REMARK  7 active torsions:
REMARK  status: ('A' for Active; 'I' for Inactive)
REMARK    1  A    between atoms: N1_1  and  C1_4 
REMARK    2  A    between atoms: C2_9  and  C3_10 
REMARK    3  A    between atoms: C3_10  and  N4_11 
REMARK    4  A    between atoms: C5_14  and  C6_15 
REMARK    5  A    between atoms: C6_15  and  N6_16 
REMARK    6  A    between atoms: C6_15  and  O1_20 
REMARK    7  A    between atoms: N7_24  and  N8_25 
ROOT
HETATM    1  N4  UNL     1       0.625   0.387  -0.825  1.00  0.00    -0.278 N 
HETATM    2  C4  UNL     1       0.133   1.557  -0.378  1.00  0.00     0.139 A 
HETATM    3  N5  UNL     1       0.952   2.708  -0.580  1.00  0.00    -0.081 NA
HETATM    4  C5  UNL     1      -1.092   1.668   0.245  1.00  0.00     0.108 A 
HETATM    5  C7  UNL     1      -1.808   0.489   0.392  1.00  0.00     0.284 A 
HETATM    6  O2  UNL     1      -2.924   0.529   0.948  1.00  0.00    -0.265 OA
HETATM    7  N7  UNL     1      -1.330  -0.685  -0.050  1.00  0.00    -0.170 N 
HETATM    8  C11 UNL     1      -0.108  -0.729  -0.659  1.00  0.00     0.352 A 
HETATM    9  O3  UNL     1       0.359  -1.832  -1.083  1.00  0.00    -0.244 OA
ENDROOT
BRANCH   1  10
HETATM   10  C3  UNL     1       1.922   0.325  -1.475  1.00  0.00     0.213 C 
BRANCH  10  11
HETATM   11  C2  UNL     1       3.028   0.091  -0.539  1.00  0.00     0.131 A 
HETATM   12  N3  UNL     1       3.734   1.046   0.090  1.00  0.00    -0.273 N 
HETATM   13  N2  UNL     1       4.645   0.460   0.849  1.00  0.00    -0.131 N 
ATOM     14  H3  UNL     1       3.592   2.052  -0.002  1.00  0.00     0.189 HD
HETATM   15  C1  UNL     1       4.552  -0.877   0.731  1.00  0.00     0.691 A 
ATOM     16  H2  UNL     1       5.319   0.950   1.437  1.00  0.00     0.205 HD
HETATM   17  N9  UNL     1       3.541  -1.081  -0.136  1.00  0.00    -0.177 N 
ATOM     18  H9  UNL     1       3.212  -1.997  -0.442  1.00  0.00     0.185 HD
BRANCH  15  19
HETATM   19  N1  UNL     1       5.271  -1.787   1.318  1.00  0.00    -0.233 N 
ATOM     20  H12 UNL     1       6.036  -1.633   1.974  1.00  0.00     0.174 HD
ATOM     21  H11 UNL     1       5.200  -2.801   1.229  1.00  0.00     0.174 HD
ENDBRANCH  15  19
ENDBRANCH  10  11
ENDBRANCH   1  10
BRANCH   4  22
HETATM   22  C6  UNL     1      -1.570   2.968   0.709  1.00  0.00     0.359 C 
BRANCH  22  23
HETATM   23  N6  UNL     1      -2.942   3.245   0.392  1.00  0.00    -0.049 N 
ATOM     24  H63 UNL     1      -3.102   3.145  -0.610  1.00  0.00     0.277 HD
ATOM     25  H62 UNL     1      -3.545   2.500   0.741  1.00  0.00     0.277 HD
ATOM     26  H61 UNL     1      -3.276   4.153   0.716  1.00  0.00     0.277 HD
ENDBRANCH  22  23
BRANCH  22  27
HETATM   27  O1  UNL     1      -1.422   3.140   2.093  1.00  0.00    -0.366 OA
ATOM     28  H1  UNL     1      -1.733   3.985   2.395  1.00  0.00     0.212 HD
ENDBRANCH  22  27
ENDBRANCH   4  22
BRANCH   7  29
HETATM   29  N8  UNL     1      -2.035  -1.884   0.088  1.00  0.00    -0.314 N 
HETATM   30  C8  UNL     1      -3.333  -2.175   0.677  1.00  0.00     0.145 A 
HETATM   31  C9  UNL     1      -3.143  -3.637   0.400  1.00  0.00     0.043 A 
HETATM   32  C10 UNL     1      -1.829  -3.266  -0.256  1.00  0.00     0.145 A 
ENDBRANCH   7  29
TORSDOF 7
