REMARK  17 active torsions:
REMARK  status: ('A' for Active; 'I' for Inactive)
REMARK    1  A    between atoms: C2_2  and  C4_4 
REMARK    2  A    between atoms: C4_4  and  N1_7 
REMARK    3  A    between atoms: N1_7  and  C8_9 
REMARK    4  A    between atoms: C8_9  and  O1_10 
REMARK    5  A    between atoms: C9_12  and  C10_13 
REMARK    6  A    between atoms: C10_13  and  C11_14 
REMARK    7  A    between atoms: C11_14  and  O2_15 
REMARK    8  A    between atoms: C11_14  and  N2_17 
REMARK    9  A    between atoms: N2_17  and  C12_19 
REMARK   10  A    between atoms: C15_22  and  C16_23 
REMARK   11  A    between atoms: C16_23  and  C17_24 
REMARK   12  A    between atoms: C17_24  and  C18_25 
REMARK   13  A    between atoms: C18_25  and  C19_26 
REMARK   14  A    between atoms: C19_26  and  C20_27 
REMARK       I    between atoms: N5_33  and  C22_35 
REMARK   15  A    between atoms: C22_35  and  C23_37 
REMARK   16  A    between atoms: C23_37  and  C24_38 
REMARK   17  A    between atoms: C24_38  and  C25_39 
ROOT
HETATM    1  C12 UNL     1      -1.355   1.114   0.435  1.00  0.00     0.121 A 
HETATM    2  C13 UNL     1      -0.914   2.148   1.249  1.00  0.00     0.052 A 
HETATM    3  C14 UNL     1       0.418   2.342   1.447  1.00  0.00     0.030 A 
HETATM    4  C15 UNL     1       1.327   1.509   0.839  1.00  0.00     0.026 A 
HETATM    5  N7  UNL     1       0.818   0.532   0.063  1.00  0.00    -0.303 N 
ATOM      6  H7  UNL     1       1.476  -0.095  -0.400  1.00  0.00     0.186 HD
HETATM    7  N8  UNL     1      -0.465   0.328  -0.141  1.00  0.00    -0.285 N 
ATOM      8  H8  UNL     1      -0.772  -0.436  -0.743  1.00  0.00     0.188 HD
ENDROOT
BRANCH   4   9
HETATM    9  C16 UNL     1       2.803   1.668   1.060  1.00  0.00     0.058 C 
BRANCH   9  10
HETATM   10  C17 UNL     1       3.246   0.857   2.247  1.00  0.00     0.006 C 
BRANCH  10  11
HETATM   11  C18 UNL     1       3.018  -0.607   2.167  1.00  0.00     0.007 C 
BRANCH  11  12
HETATM   12  C19 UNL     1       3.685  -1.352   1.079  1.00  0.00     0.066 C 
BRANCH  12  13
HETATM   13  C20 UNL     1       5.184  -1.224   1.116  1.00  0.00     0.069 A 
HETATM   14  N3  UNL     1       6.068  -1.936   1.785  1.00  0.00    -0.296 N 
HETATM   15  N4  UNL     1       7.313  -1.687   1.642  1.00  0.00    -0.279 N 
ATOM     16  H3  UNL     1       5.761  -2.680   2.412  1.00  0.00     0.187 HD
HETATM   17  C21 UNL     1       7.688  -0.714   0.822  1.00  0.00     0.167 A 
ATOM     18  H4  UNL     1       8.010  -2.230   2.152  1.00  0.00     0.189 HD
HETATM   19  N5  UNL     1       8.893  -0.301   0.536  1.00  0.00    -0.306 N 
HETATM   20  S2  UNL     1       6.177  -0.148   0.241  1.00  0.00    -0.038 SA
HETATM   21  C22 UNL     1       9.033   0.767  -0.382  1.00  0.00     0.224 C 
ATOM     22  H5  UNL     1       9.711  -0.736   0.962  1.00  0.00     0.171 HD
HETATM   23  O3  UNL     1       9.026   1.937   0.006  1.00  0.00    -0.273 OA
BRANCH  21  24
HETATM   24  C23 UNL     1       9.179   0.418  -1.807  1.00  0.00     0.109 C 
BRANCH  24  25
HETATM   25  C24 UNL     1      10.281   1.314  -2.391  1.00  0.00     0.067 C 
BRANCH  25  26
HETATM   26  C25 UNL     1      11.515   0.929  -1.573  1.00  0.00     0.016 A 
HETATM   27  C26 UNL     1      12.263  -0.154  -1.992  1.00  0.00     0.076 A 
HETATM   28  S1  UNL     1      13.480  -0.191  -0.776  1.00  0.00    -0.095 SA
HETATM   29  C27 UNL     1      12.946   1.164   0.165  1.00  0.00     0.138 A 
HETATM   30  N6  UNL     1      11.882   1.546  -0.511  1.00  0.00    -0.363 N 
ATOM     31  H6  UNL     1      11.341   2.346  -0.184  1.00  0.00     0.165 HD
ENDBRANCH  25  26
ENDBRANCH  24  25
ENDBRANCH  21  24
ENDBRANCH  12  13
ENDBRANCH  11  12
ENDBRANCH  10  11
ENDBRANCH   9  10
ENDBRANCH   4   9
BRANCH   1  32
HETATM   32  N2  UNL     1      -2.587   0.927   0.254  1.00  0.00    -0.326 N 
ATOM     33  H2  UNL     1      -3.245   1.555   0.715  1.00  0.00     0.169 HD
BRANCH  32  34
HETATM   34  C11 UNL     1      -3.097  -0.096  -0.546  1.00  0.00     0.120 C 
BRANCH  34  35
HETATM   35  C10 UNL     1      -3.716  -0.203  -1.831  1.00  0.00     0.115 C 
BRANCH  35  36
HETATM   36  C9  UNL     1      -4.756  -1.237  -2.025  1.00  0.00     0.037 C 
HETATM   37  C8  UNL     1      -6.078  -1.192  -1.482  1.00  0.00     0.134 C 
BRANCH  37  38
HETATM   38  N1  UNL     1      -6.839  -0.339  -0.677  1.00  0.00    -0.358 N 
HETATM   39  C7  UNL     1      -6.232   0.708   0.104  1.00  0.00     0.152 C 
BRANCH  38  40
HETATM   40  C4  UNL     1      -8.282  -0.507  -0.474  1.00  0.00     0.029 C 
HETATM   41  C5  UNL     1      -8.884  -0.679  -1.884  1.00  0.00     0.038 C 
HETATM   42  C6  UNL     1      -8.922   0.776   0.050  1.00  0.00     0.038 C 
BRANCH  40  43
HETATM   43  C2  UNL     1      -8.674  -1.687   0.322  1.00  0.00     0.005 C 
HETATM   44  C1  UNL     1      -8.139  -1.692   1.744  1.00  0.00     0.012 C 
HETATM   45  C3  UNL     1     -10.205  -1.626   0.504  1.00  0.00     0.012 C 
ENDBRANCH  40  43
ENDBRANCH  38  40
ENDBRANCH  37  38
BRANCH  37  46
HETATM   46  O1  UNL     1      -6.785  -2.258  -1.862  1.00  0.00    -0.346 OA
ATOM     47  H1  UNL     1      -6.268  -2.838  -2.409  1.00  0.00     0.219 HD
ENDBRANCH  37  46
ENDBRANCH  35  36
ENDBRANCH  34  35
BRANCH  34  48
HETATM   48  O2  UNL     1      -2.948  -1.272   0.092  1.00  0.00    -0.349 OA
ATOM     49  H2  UNL     1      -2.537  -1.201   0.945  1.00  0.00     0.219 HD
ENDBRANCH  34  48
ENDBRANCH  32  34
ENDBRANCH   1  32
TORSDOF 17
