REMARK  2 active torsions:
REMARK  status: ('A' for Active; 'I' for Inactive)
REMARK    1  A    between atoms: C2_2  and  C3_3 
REMARK    2  A    between atoms: C3_3  and  S1_4 
ROOT
HETATM    1  S1  UNL     1       3.173   0.814   0.792  1.00  0.00    -0.048 SA
HETATM    2  C4  UNL     1       4.274   2.032   0.145  1.00  0.00     0.133 C 
HETATM    3  N1  UNL     1       4.991   2.834  -0.265  1.00  0.00    -0.184 NA
ENDROOT
BRANCH   1   4
HETATM    4  C3  UNL     1       1.848   0.484  -0.404  1.00  0.00     0.129 C 
BRANCH   4   5
HETATM    5  C2  UNL     1       0.916  -0.549   0.149  1.00  0.00     0.137 C 
HETATM    6  C1  UNL     1       1.687  -1.831   0.416  1.00  0.00     0.048 C 
HETATM    7  N2  UNL     1       0.100  -0.109   1.266  1.00  0.00    -0.061 N 
HETATM    8  C5  UNL     1      -0.936  -0.965   0.764  1.00  0.00     0.193 C 
ATOM      9  H22 UNL     1       0.433  -0.192   2.227  1.00  0.00     0.278 HD
ATOM     10  H21 UNL     1      -0.071   0.882   1.435  1.00  0.00     0.278 HD
HETATM   11  C6  UNL     1      -2.337  -0.497   0.911  1.00  0.00     0.033 C 
HETATM   12  C10 UNL     1      -0.347  -0.816  -0.596  1.00  0.00     0.053 C 
HETATM   13  C7  UNL     1      -2.673   0.772   0.232  1.00  0.00     0.002 C 
HETATM   14  C8  UNL     1      -1.578   1.368  -0.593  1.00  0.00     0.001 C 
HETATM   15  C9  UNL     1      -0.929   0.289  -1.405  1.00  0.00     0.009 C 
ENDBRANCH   4   5
ENDBRANCH   1   4
TORSDOF 2
