REMARK  3 active torsions:
REMARK  status: ('A' for Active; 'I' for Inactive)
REMARK    1  A    between atoms: C6_6  and  C7_7 
REMARK    2  A    between atoms: C7_7  and  O1_10 
REMARK    3  A    between atoms: O1_10  and  C10_11 
ROOT
HETATM    1  C7  UNL     1       0.523  -0.212  -0.811  1.00  0.00     0.069 C 
HETATM    2  C8  UNL     1      -0.026   0.158  -2.149  1.00  0.00     0.047 C 
HETATM    3  C9  UNL     1       0.694  -1.687  -0.758  1.00  0.00     0.047 C 
ENDROOT
BRANCH   1   4
HETATM    4  C6  UNL     1      -0.331   0.233   0.349  1.00  0.00     0.024 C 
HETATM    5  C2  UNL     1      -1.704  -0.263   0.427  1.00  0.00    -0.012 C 
HETATM    6  C1  UNL     1      -2.690   0.813   0.026  1.00  0.00     0.010 C 
HETATM    7  C3  UNL     1      -1.976  -0.488   1.920  1.00  0.00     0.005 C 
HETATM    8  C4  UNL     1      -0.846   0.224   2.630  1.00  0.00     0.001 C 
HETATM    9  C5  UNL     1       0.304  -0.124   1.673  1.00  0.00     0.008 C 
ENDBRANCH   1   4
BRANCH   1  10
HETATM   10  O1  UNL     1       1.729   0.515  -0.648  1.00  0.00    -0.295 OA
BRANCH  10  11
HETATM   11  C10 UNL     1       2.832   0.457  -1.442  1.00  0.00     0.373 C 
HETATM   12  N1  UNL     1       4.020   1.212  -1.236  1.00  0.00    -0.032 NA
HETATM   13  O2  UNL     1       2.769  -0.325  -2.418  1.00  0.00    -0.242 OA
ENDBRANCH  10  11
ENDBRANCH   1  10
TORSDOF 3
