REMARK  5 active torsions:
REMARK  status: ('A' for Active; 'I' for Inactive)
REMARK    1  A    between atoms: N2_5  and  C4_6 
REMARK    2  A    between atoms: C4_6  and  C5_7 
REMARK    3  A    between atoms: C5_7  and  C6_8 
REMARK    4  A    between atoms: C6_8  and  N5_13 
REMARK    5  A    between atoms: N5_13  and  N6_15 
ROOT
HETATM    1  C6  UNL     1      -2.626  -0.117  -0.403  1.00  0.00     0.105 C 
HETATM    2  N3  UNL     1      -3.368   0.864  -0.794  1.00  0.00    -0.282 N 
ATOM      3  H3  UNL     1      -4.369   0.880  -0.597  1.00  0.00     0.179 HD
HETATM    4  C7  UNL     1      -2.750   1.908  -1.499  1.00  0.00     0.183 C 
HETATM    5  N4  UNL     1      -2.230   2.785  -2.071  1.00  0.00    -0.172 NA
ENDROOT
BRANCH   1   6
HETATM    6  C5  UNL     1      -1.161  -0.183  -0.665  1.00  0.00     0.099 C 
BRANCH   6   7
HETATM    7  C4  UNL     1      -0.474  -0.241   0.693  1.00  0.00     0.136 C 
BRANCH   7   8
HETATM    8  N2  UNL     1       0.981  -0.308   0.512  1.00  0.00    -0.351 N 
HETATM    9  C3  UNL     1       1.721  -1.426   0.393  1.00  0.00     0.109 A 
HETATM   10  C2  UNL     1       3.056  -1.043   0.238  1.00  0.00     0.108 A 
HETATM   11  N1  UNL     1       3.097   0.301   0.265  1.00  0.00    -0.356 N 
HETATM   12  C1  UNL     1       4.240   1.192   0.145  1.00  0.00     0.156 C 
HETATM   13  C8  UNL     1       1.830   0.731   0.432  1.00  0.00     0.184 A 
ENDBRANCH   7   8
ENDBRANCH   6   7
ENDBRANCH   1   6
BRANCH   1  14
HETATM   14  N5  UNL     1      -3.187  -1.217   0.321  1.00  0.00    -0.295 N 
ATOM     15  H5  UNL     1      -2.842  -2.157   0.129  1.00  0.00     0.187 HD
BRANCH  14  16
HETATM   16  N6  UNL     1      -4.178  -1.055   1.270  1.00  0.00    -0.344 N 
ATOM     17  H62 UNL     1      -4.512  -0.108   1.450  1.00  0.00     0.176 HD
ATOM     18  H61 UNL     1      -4.578  -1.839   1.786  1.00  0.00     0.176 HD
ENDBRANCH  14  16
ENDBRANCH   1  14
TORSDOF 5
