REMARK  7 active torsions:
REMARK  status: ('A' for Active; 'I' for Inactive)
REMARK    1  A    between atoms: N1_2  and  C2_4 
REMARK    2  A    between atoms: C2_4  and  N2_5 
REMARK    3  A    between atoms: C2_4  and  C5_10 
REMARK       I    between atoms: N2_5  and  C3_7 
REMARK       I    between atoms: C5_10  and  N3_12 
REMARK    4  A    between atoms: N3_12  and  C6_14 
REMARK    5  A    between atoms: C6_14  and  C8_16 
REMARK       I    between atoms: C8_16  and  N4_18 
REMARK    6  A    between atoms: N4_18  and  C9_20 
REMARK    7  A    between atoms: C12_23  and  N5_24 
ROOT
HETATM    1  C6  UNL     1       0.026  -1.341  -0.024  1.00  0.00     0.076 C 
HETATM    2  C7  UNL     1      -0.071  -1.875   1.384  1.00  0.00     0.074 C 
ENDROOT
BRANCH   1   3
HETATM    3  N3  UNL     1       1.246  -0.780  -0.405  1.00  0.00    -0.319 N 
HETATM    4  C5  UNL     1       2.411  -0.577   0.432  1.00  0.00     0.289 C 
HETATM    5  O2  UNL     1       2.393  -0.855   1.633  1.00  0.00    -0.264 OA
ATOM      6  H3  UNL     1       1.326  -0.481  -1.377  1.00  0.00     0.169 HD
BRANCH   4   7
HETATM    7  C2  UNL     1       3.661  -0.047  -0.175  1.00  0.00     0.172 C 
BRANCH   7   8
HETATM    8  N1  UNL     1       4.317  -0.892  -1.097  1.00  0.00    -0.376 N 
HETATM    9  C1  UNL     1       5.509  -1.528  -0.638  1.00  0.00     0.148 C 
ATOM     10  H1  UNL     1       3.958  -1.040  -2.040  1.00  0.00     0.160 HD
ENDBRANCH   7   8
BRANCH   7  11
HETATM   11  N2  UNL     1       3.730   1.294  -0.505  1.00  0.00    -0.309 N 
HETATM   12  C3  UNL     1       4.468   2.194   0.372  1.00  0.00     0.219 C 
HETATM   13  C4  UNL     1       4.648   3.634   0.050  1.00  0.00     0.117 C 
HETATM   14  O1  UNL     1       4.957   1.749   1.413  1.00  0.00    -0.274 OA
ATOM     15  H2  UNL     1       3.273   1.647  -1.346  1.00  0.00     0.170 HD
ENDBRANCH   7  11
ENDBRANCH   4   7
ENDBRANCH   1   3
BRANCH   1  16
HETATM   16  C8  UNL     1      -1.220  -0.642  -0.415  1.00  0.00     0.268 C 
HETATM   17  O3  UNL     1      -1.128   0.339  -1.170  1.00  0.00    -0.266 OA
HETATM   18  N4  UNL     1      -2.458  -1.107   0.080  1.00  0.00    -0.322 N 
ATOM     19  H4  UNL     1      -2.435  -1.949   0.656  1.00  0.00     0.169 HD
BRANCH  18  20
HETATM   20  C9  UNL     1      -3.732  -0.519  -0.144  1.00  0.00     0.035 A 
HETATM   21  C10 UNL     1      -3.916   0.817  -0.411  1.00  0.00     0.032 A 
HETATM   22  C11 UNL     1      -5.184   1.360  -0.551  1.00  0.00     0.038 A 
HETATM   23  C12 UNL     1      -6.337   0.564  -0.429  1.00  0.00     0.103 A 
HETATM   24  C13 UNL     1      -6.177  -0.781  -0.167  1.00  0.00     0.038 A 
HETATM   25  C14 UNL     1      -4.874  -1.274  -0.035  1.00  0.00     0.032 A 
BRANCH  23  26
HETATM   26  N5  UNL     1      -7.599   1.159  -0.582  1.00  0.00    -0.116 N 
HETATM   27  O4  UNL     1      -8.652   0.521  -0.457  1.00  0.00    -0.532 OA
HETATM   28  O5  UNL     1      -7.711   2.509  -0.883  1.00  0.00    -0.532 OA
ENDBRANCH  23  26
ENDBRANCH  18  20
ENDBRANCH   1  16
TORSDOF 7
