REMARK  15 active torsions:
REMARK  status: ('A' for Active; 'I' for Inactive)
REMARK    1  A    between atoms: C5_5  and  N1_6 
REMARK    2  A    between atoms: N1_6  and  C6_7 
REMARK    3  A    between atoms: C6_7  and  C7_8 
REMARK    4  A    between atoms: C7_8  and  C8_9 
REMARK    5  A    between atoms: C8_9  and  C9_10 
REMARK    6  A    between atoms: C9_10  and  N2_11 
REMARK    7  A    between atoms: N2_11  and  C10_14 
REMARK    8  A    between atoms: C10_14  and  C11_15 
REMARK    9  A    between atoms: C11_15  and  C12_16 
REMARK   10  A    between atoms: C12_16  and  C13_17 
REMARK   11  A    between atoms: C13_17  and  C14_18 
REMARK   12  A    between atoms: C14_18  and  N3_19 
REMARK   13  A    between atoms: N3_19  and  C15_22 
REMARK   14  A    between atoms: C15_22  and  C16_23 
REMARK   15  A    between atoms: C16_23  and  C17_24 
ROOT
HETATM    1  C8  UNL     1      -0.845  -1.031  -1.165  1.00  0.00     0.033 C 
ENDROOT
BRANCH   1   2
HETATM    2  C7  UNL     1      -2.292  -1.077  -1.011  1.00  0.00     0.061 C 
BRANCH   2   3
HETATM    3  C6  UNL     1      -2.970  -0.063  -0.135  1.00  0.00     0.155 C 
BRANCH   3   4
HETATM    4  N1  UNL     1      -4.306  -0.160   0.030  1.00  0.00    -0.420 NA
BRANCH   4   5
HETATM    5  C5  UNL     1      -5.470  -0.255   0.170  1.00  0.00     0.131 A 
HETATM    6  C4  UNL     1      -6.266  -1.393   0.013  1.00  0.00     0.032 A 
HETATM    7  C3  UNL     1      -5.677  -2.537  -0.456  1.00  0.00     0.017 A 
HETATM    8  C27 UNL     1      -7.625  -1.361   0.297  1.00  0.00     0.046 A 
HETATM    9  C2  UNL     1      -6.419  -3.713  -0.666  1.00  0.00     0.001 A 
HETATM   10  C1  UNL     1      -7.770  -3.656  -0.374  1.00  0.00     0.002 A 
HETATM   11  C28 UNL     1      -8.365  -2.517   0.095  1.00  0.00     0.030 A 
HETATM   12  N4  UNL     1      -8.217  -0.256   0.729  1.00  0.00    -0.355 N 
HETATM   13  C26 UNL     1      -7.491   0.857   0.896  1.00  0.00     0.046 A 
ATOM     14  H4  UNL     1      -9.217  -0.254   0.932  1.00  0.00     0.166 HD
HETATM   15  C21 UNL     1      -6.177   0.892   0.633  1.00  0.00     0.032 A 
HETATM   16  C25 UNL     1      -8.149   1.988   1.349  1.00  0.00     0.030 A 
HETATM   17  C22 UNL     1      -5.488   2.062   0.819  1.00  0.00     0.017 A 
HETATM   18  C23 UNL     1      -6.135   3.206   1.274  1.00  0.00     0.001 A 
HETATM   19  C24 UNL     1      -7.497   3.173   1.548  1.00  0.00     0.002 A 
ENDBRANCH   4   5
ENDBRANCH   3   4
ENDBRANCH   2   3
ENDBRANCH   1   2
BRANCH   1  20
HETATM   20  C9  UNL     1      -0.204   0.200  -1.648  1.00  0.00     0.232 C 
BRANCH  20  21
HETATM   21  N2  UNL     1       0.096   1.249  -0.695  1.00  0.00    -0.075 N 
ATOM     22  H22 UNL     1       0.303   2.147  -1.132  1.00  0.00     0.277 HD
ATOM     23  H21 UNL     1      -0.716   1.555  -0.159  1.00  0.00     0.277 HD
BRANCH  21  24
HETATM   24  C10 UNL     1       1.211   0.730   0.157  1.00  0.00     0.232 C 
BRANCH  24  25
HETATM   25  C11 UNL     1       2.467   0.531  -0.689  1.00  0.00     0.027 C 
BRANCH  25  26
HETATM   26  C12 UNL     1       3.572  -0.055   0.083  1.00  0.00     0.003 C 
BRANCH  26  27
HETATM   27  C13 UNL     1       4.171   0.662   1.215  1.00  0.00     0.027 C 
BRANCH  27  28
HETATM   28  C14 UNL     1       4.864   1.963   0.846  1.00  0.00     0.232 C 
BRANCH  28  29
HETATM   29  N3  UNL     1       5.892   1.684  -0.161  1.00  0.00    -0.075 N 
ATOM     30  H32 UNL     1       5.495   1.257  -0.998  1.00  0.00     0.277 HD
ATOM     31  H31 UNL     1       6.252   2.541  -0.581  1.00  0.00     0.277 HD
BRANCH  29  32
HETATM   32  C15 UNL     1       6.956   0.874   0.402  1.00  0.00     0.237 C 
BRANCH  32  33
HETATM   33  C16 UNL     1       7.962   0.545  -0.664  1.00  0.00     0.066 C 
BRANCH  33  34
HETATM   34  C17 UNL     1       9.036  -0.354  -0.046  1.00  0.00    -0.050 A 
HETATM   35  C18 UNL     1       8.962  -1.708  -0.051  1.00  0.00     0.014 A 
HETATM   36  C19 UNL     1       9.980  -2.388   0.556  1.00  0.00     0.050 A 
HETATM   37  S1  UNL     1      11.000  -1.125   1.112  1.00  0.00    -0.113 SA
HETATM   38  C20 UNL     1      10.121   0.215   0.566  1.00  0.00     0.056 A 
ENDBRANCH  33  34
ENDBRANCH  32  33
ENDBRANCH  29  32
ENDBRANCH  28  29
ENDBRANCH  27  28
ENDBRANCH  26  27
ENDBRANCH  25  26
ENDBRANCH  24  25
ENDBRANCH  21  24
ENDBRANCH  20  21
ENDBRANCH   1  20
TORSDOF 15
