REMARK  1 active torsions:
REMARK  status: ('A' for Active; 'I' for Inactive)
REMARK    1  A    between atoms: N4_9  and  N5_11 
ROOT
HETATM    1  O1  UNL     1      -4.122  -1.401  -0.517  1.00  0.00    -0.245 OA
HETATM    2  C1  UNL     1      -3.066  -0.770  -0.253  1.00  0.00     0.351 C 
HETATM    3  N1  UNL     1      -3.142   0.539   0.291  1.00  0.00    -0.234 N 
ATOM      4  H1  UNL     1      -3.957   1.130   0.124  1.00  0.00     0.189 HD
HETATM    5  N2  UNL     1      -2.069   0.996   1.062  1.00  0.00    -0.004 NA
HETATM    6  N3  UNL     1      -0.895   0.701   0.365  1.00  0.00    -0.114 N 
ATOM      7  H3  UNL     1      -0.199   1.436   0.237  1.00  0.00     0.203 HD
HETATM    8  C2  UNL     1      -0.638  -0.595  -0.174  1.00  0.00     0.714 C 
HETATM    9  N4  UNL     1       0.530  -1.057  -0.366  1.00  0.00    -0.119 N 
ATOM     10  H4  UNL     1       0.647  -1.992  -0.756  1.00  0.00     0.206 HD
HETATM   11  N6  UNL     1      -1.803  -1.357  -0.494  1.00  0.00    -0.138 N 
ATOM     12  H6  UNL     1      -1.726  -2.296  -0.885  1.00  0.00     0.189 HD
ENDROOT
BRANCH   9  13
HETATM   13  N5  UNL     1       1.674  -0.280  -0.041  1.00  0.00    -0.175 N 
HETATM   14  C3  UNL     1       2.264   0.208   1.146  1.00  0.00     0.254 C 
HETATM   15  O2  UNL     1       1.836   0.474   2.277  1.00  0.00    -0.271 OA
HETATM   16  C4  UNL     1       3.559   0.250   0.445  1.00  0.00     0.210 C 
HETATM   17  C5  UNL     1       2.718   0.343  -0.758  1.00  0.00     0.254 C 
HETATM   18  O3  UNL     1       2.829   0.770  -1.913  1.00  0.00    -0.271 OA
ENDBRANCH   9  13
TORSDOF 1
