REMARK  2 active torsions:
REMARK  status: ('A' for Active; 'I' for Inactive)
REMARK    1  A    between atoms: N1_1  and  N2_4 
REMARK       I    between atoms: C1_6  and  N3_7 
REMARK       I    between atoms: C1_6  and  N5_12 
REMARK    2  A    between atoms: N3_7  and  N4_9 
ROOT
HETATM    1  N2  UNL     1      -0.999   1.312  -0.099  1.00  0.00    -0.136 N 
ATOM      2  H2  UNL     1      -0.423   2.150  -0.184  1.00  0.00     0.205 HD
HETATM    3  C1  UNL     1      -0.403   0.166  -0.092  1.00  0.00     0.731 C 
HETATM    4  N3  UNL     1      -1.110  -1.052   0.022  1.00  0.00    -0.136 N 
ATOM      5  H3  UNL     1      -0.671  -1.793   0.569  1.00  0.00     0.205 HD
HETATM    6  N5  UNL     1       1.014   0.169  -0.204  1.00  0.00    -0.053 N 
HETATM    7  N6  UNL     1       2.025   1.139  -0.331  1.00  0.00    -0.106 NA
HETATM    8  C2  UNL     1       2.992   0.098  -0.629  1.00  0.00     0.241 C 
HETATM    9  C3  UNL     1       1.976  -0.873  -0.231  1.00  0.00     0.272 C 
HETATM   10  O1  UNL     1       1.934  -2.100  -0.003  1.00  0.00    -0.270 OA
ENDROOT
BRANCH   1  11
HETATM   11  N1  UNL     1      -2.369   1.475   0.002  1.00  0.00    -0.331 N 
ATOM     12  H12 UNL     1      -2.929   0.627   0.087  1.00  0.00     0.177 HD
ATOM     13  H11 UNL     1      -2.840   2.380  -0.004  1.00  0.00     0.177 HD
ENDBRANCH   1  11
BRANCH   4  14
HETATM   14  N4  UNL     1      -2.335  -1.331  -0.536  1.00  0.00    -0.331 N 
ATOM     15  H42 UNL     1      -2.759  -0.579  -1.079  1.00  0.00     0.177 HD
ATOM     16  H41 UNL     1      -2.845  -2.210  -0.454  1.00  0.00     0.177 HD
ENDBRANCH   4  14
TORSDOF 2
