REMARK  13 active torsions:
REMARK  status: ('A' for Active; 'I' for Inactive)
REMARK    1  A    between atoms: N1_1  and  C1_4 
REMARK    2  A    between atoms: C4_13  and  N5_14 
REMARK    3  A    between atoms: N5_14  and  C5_16 
REMARK    4  A    between atoms: C5_16  and  C6_17 
REMARK    5  A    between atoms: C6_17  and  N6_18 
REMARK    6  A    between atoms: N6_18  and  C7_21 
REMARK    7  A    between atoms: C7_21  and  C8_22 
REMARK    8  A    between atoms: C8_22  and  N7_23 
REMARK    9  A    between atoms: N7_23  and  C9_26 
REMARK   10  A    between atoms: C9_26  and  C10_27 
REMARK   11  A    between atoms: C10_27  and  O1_28 
REMARK   12  A    between atoms: N8_31  and  N9_32 
REMARK   13  A    between atoms: N9_32  and  C12_34 
ROOT
HETATM    1  C1  UNL     1      -4.950   0.716   0.046  1.00  0.00     0.699 A 
HETATM    2  N2  UNL     1      -5.510  -0.487   0.321  1.00  0.00    -0.173 N 
ATOM      3  H2  UNL     1      -6.502  -0.662   0.484  1.00  0.00     0.186 HD
HETATM    4  C2  UNL     1      -4.537  -1.407   0.342  1.00  0.00     0.155 A 
HETATM    5  N3  UNL     1      -4.518  -2.732   0.558  1.00  0.00    -0.336 N 
ATOM      6  H3  UNL     1      -5.400  -3.204   0.755  1.00  0.00     0.168 HD
HETATM    7  C3  UNL     1      -3.395  -3.465   0.527  1.00  0.00     0.183 A 
HETATM    8  N4  UNL     1      -2.258  -2.825   0.267  1.00  0.00    -0.337 N 
ATOM      9  H4  UNL     1      -1.398  -3.373   0.241  1.00  0.00     0.168 HD
HETATM   10  C4  UNL     1      -2.167  -1.506   0.037  1.00  0.00     0.135 A 
HETATM   11  C11 UNL     1      -3.314  -0.760   0.069  1.00  0.00     0.162 A 
HETATM   12  N8  UNL     1      -3.628   0.558  -0.107  1.00  0.00    -0.081 N 
ENDROOT
BRANCH  10  13
HETATM   13  N5  UNL     1      -1.047  -0.982  -0.205  1.00  0.00    -0.373 N 
ATOM     14  H5  UNL     1      -1.032   0.024  -0.374  1.00  0.00     0.161 HD
BRANCH  13  15
HETATM   15  C5  UNL     1       0.218  -1.678  -0.265  1.00  0.00     0.148 C 
BRANCH  15  16
HETATM   16  C6  UNL     1       0.930  -1.690   1.064  1.00  0.00     0.251 C 
BRANCH  16  17
HETATM   17  N6  UNL     1       2.162  -2.393   0.972  1.00  0.00    -0.072 N 
ATOM     18  H62 UNL     1       2.540  -2.596   1.898  1.00  0.00     0.277 HD
ATOM     19  H61 UNL     1       2.017  -3.347   0.642  1.00  0.00     0.277 HD
BRANCH  17  20
HETATM   20  C7  UNL     1       3.119  -1.710   0.165  1.00  0.00     0.259 C 
BRANCH  20  21
HETATM   21  C8  UNL     1       3.633  -0.423   0.761  1.00  0.00     0.259 C 
BRANCH  21  22
HETATM   22  N7  UNL     1       4.605   0.159  -0.163  1.00  0.00    -0.072 N 
ATOM     23  H72 UNL     1       5.358  -0.483  -0.408  1.00  0.00     0.277 HD
ATOM     24  H71 UNL     1       4.234   0.291  -1.104  1.00  0.00     0.277 HD
BRANCH  22  25
HETATM   25  C9  UNL     1       5.079   1.387   0.437  1.00  0.00     0.258 C 
BRANCH  25  26
HETATM   26  C10 UNL     1       6.090   2.047  -0.475  1.00  0.00     0.191 C 
BRANCH  26  27
HETATM   27  O1  UNL     1       6.557   3.233   0.092  1.00  0.00    -0.399 OA
ATOM     28  H1  UNL     1       7.192   3.647  -0.481  1.00  0.00     0.209 HD
ENDBRANCH  26  27
ENDBRANCH  25  26
ENDBRANCH  22  25
ENDBRANCH  21  22
ENDBRANCH  20  21
ENDBRANCH  17  20
ENDBRANCH  16  17
ENDBRANCH  15  16
ENDBRANCH  13  15
ENDBRANCH  10  13
BRANCH  12  29
HETATM   29  N9  UNL     1      -2.706   1.534  -0.410  1.00  0.00    -0.275 N 
ATOM     30  H9  UNL     1      -1.723   1.263  -0.447  1.00  0.00     0.185 HD
BRANCH  29  31
HETATM   31  C12 UNL     1      -3.035   2.929  -0.682  1.00  0.00     0.327 A 
HETATM   32  N10 UNL     1      -3.711   3.382  -1.791  1.00  0.00    -0.297 N 
HETATM   33  N11 UNL     1      -2.326   3.585  -1.778  1.00  0.00    -0.093 NA
ATOM     34  H10 UNL     1      -4.599   3.493  -2.280  1.00  0.00     0.179 HD
ENDBRANCH  29  31
ENDBRANCH  12  29
BRANCH   1  35
HETATM   35  N1  UNL     1      -5.597   1.815  -0.037  1.00  0.00    -0.233 N 
ATOM     36  H12 UNL     1      -6.603   1.935   0.079  1.00  0.00     0.174 HD
ATOM     37  H11 UNL     1      -5.175   2.720  -0.244  1.00  0.00     0.174 HD
ENDBRANCH   1  35
TORSDOF 13
