REMARK  12 active torsions:
REMARK  status: ('A' for Active; 'I' for Inactive)
REMARK    1  A    between atoms: C2_2  and  N1_3 
REMARK    2  A    between atoms: C2_2  and  C8_12 
REMARK       I    between atoms: N1_3  and  C3_5 
REMARK    3  A    between atoms: C3_5  and  O2_7 
REMARK    4  A    between atoms: O2_7  and  C4_8 
REMARK       I    between atoms: C8_12  and  N2_14 
REMARK    5  A    between atoms: C12_18  and  C13_19 
REMARK       I    between atoms: C13_19  and  N3_21 
REMARK    6  A    between atoms: N3_21  and  C14_23 
REMARK    7  A    between atoms: C14_23  and  C15_24 
REMARK    8  A    between atoms: C14_23  and  C20_29 
REMARK    9  A    between atoms: C15_24  and  C16_25 
REMARK   10  A    between atoms: C20_29  and  C22_31 
REMARK   11  A    between atoms: C22_31  and  O5_32 
REMARK   12  A    between atoms: N4_34  and  O6_36 
ROOT
HETATM    1  C13 UNL     1      -0.868  -0.884   0.405  1.00  0.00     0.245 C 
HETATM    2  O4  UNL     1      -0.410   0.066   1.077  1.00  0.00    -0.271 OA
HETATM    3  N3  UNL     1      -2.216  -0.759   0.002  1.00  0.00    -0.325 N 
ATOM      4  H3  UNL     1      -2.619  -1.524  -0.539  1.00  0.00     0.169 HD
ENDROOT
BRANCH   1   5
HETATM    5  C12 UNL     1       0.005  -2.008   0.099  1.00  0.00     0.179 C 
HETATM    6  N2  UNL     1       1.329  -1.955   0.678  1.00  0.00    -0.337 N 
HETATM    7  C8  UNL     1       2.313  -0.997   0.328  1.00  0.00     0.243 C 
HETATM    8  C9  UNL     1       1.456  -3.038   1.612  1.00  0.00     0.127 C 
HETATM    9  O3  UNL     1       1.972  -0.051  -0.475  1.00  0.00    -0.271 OA
HETATM   10  C10 UNL     1       0.381  -4.068   1.300  1.00  0.00     0.022 C 
HETATM   11  C11 UNL     1      -0.649  -3.288   0.564  1.00  0.00     0.037 C 
BRANCH   7  12
HETATM   12  C2  UNL     1       3.712  -0.959   0.784  1.00  0.00     0.175 C 
HETATM   13  C1  UNL     1       4.012  -1.459   2.128  1.00  0.00     0.042 C 
BRANCH  12  14
HETATM   14  N1  UNL     1       4.281   0.335   0.449  1.00  0.00    -0.324 N 
HETATM   15  C3  UNL     1       5.117   0.624  -0.644  1.00  0.00     0.362 C 
HETATM   16  O1  UNL     1       5.482  -0.225  -1.488  1.00  0.00    -0.238 OA
ATOM     17  H1  UNL     1       4.051   1.112   1.069  1.00  0.00     0.165 HD
BRANCH  15  18
HETATM   18  O2  UNL     1       5.579   1.922  -0.821  1.00  0.00    -0.294 OA
BRANCH  18  19
HETATM   19  C4  UNL     1       6.413   2.355  -1.865  1.00  0.00     0.061 C 
HETATM   20  C5  UNL     1       6.636   3.860  -1.651  1.00  0.00     0.046 C 
HETATM   21  C6  UNL     1       7.753   1.682  -1.841  1.00  0.00     0.046 C 
HETATM   22  C7  UNL     1       5.753   2.165  -3.221  1.00  0.00     0.046 C 
ENDBRANCH  18  19
ENDBRANCH  15  18
ENDBRANCH  12  14
ENDBRANCH   7  12
ENDBRANCH   1   5
BRANCH   3  23
HETATM   23  C14 UNL     1      -3.075   0.380   0.300  1.00  0.00     0.042 C 
BRANCH  23  24
HETATM   24  C15 UNL     1      -4.126   0.108   1.263  1.00  0.00     0.012 C 
BRANCH  24  25
HETATM   25  C16 UNL     1      -5.197  -0.862   1.157  1.00  0.00    -0.032 C 
HETATM   26  C17 UNL     1      -6.198  -0.764   0.042  1.00  0.00     0.019 C 
HETATM   27  C18 UNL     1      -4.792  -2.316   1.235  1.00  0.00     0.019 C 
HETATM   28  C19 UNL     1      -6.072  -0.655   2.427  1.00  0.00     0.019 C 
ENDBRANCH  24  25
ENDBRANCH  23  24
BRANCH  23  29
HETATM   29  C20 UNL     1      -3.306   1.226  -0.903  1.00  0.00     0.017 C 
HETATM   30  C21 UNL     1      -3.960   0.635  -2.084  1.00  0.00     0.055 C 
BRANCH  29  31
HETATM   31  C22 UNL     1      -3.677   2.608  -0.557  1.00  0.00     0.168 C 
HETATM   32  N4  UNL     1      -3.590   3.087   0.621  1.00  0.00    -0.247 N 
ATOM     33  H4  UNL     1      -3.243   2.473   1.357  1.00  0.00     0.196 HD
BRANCH  31  34
HETATM   34  O5  UNL     1      -4.155   3.498  -1.545  1.00  0.00    -0.344 OA
ATOM     35  H5  UNL     1      -4.394   4.390  -1.322  1.00  0.00     0.219 HD
ENDBRANCH  31  34
BRANCH  32  36
HETATM   36  O6  UNL     1      -3.931   4.374   0.971  1.00  0.00    -0.288 OA
ATOM     37  H6  UNL     1      -3.866   4.731   1.849  1.00  0.00     0.244 HD
ENDBRANCH  32  36
ENDBRANCH  29  31
ENDBRANCH  23  29
ENDBRANCH   3  23
TORSDOF 12
