REMARK  11 active torsions:
REMARK  status: ('A' for Active; 'I' for Inactive)
REMARK       I    between atoms: C2_2  and  N1_4 
REMARK    1  A    between atoms: C3_5  and  C4_6 
REMARK    2  A    between atoms: C4_6  and  C5_7 
REMARK    3  A    between atoms: C5_7  and  C6_8 
REMARK    4  A    between atoms: C6_8  and  S1_9 
REMARK    5  A    between atoms: N2_13  and  N3_15 
REMARK    6  A    between atoms: N3_15  and  S2_17 
REMARK    7  A    between atoms: S2_17  and  C8_20 
REMARK    8  A    between atoms: C11_23  and  N4_24 
REMARK       I    between atoms: N4_24  and  C12_26 
REMARK    9  A    between atoms: C12_26  and  C13_28 
REMARK       I    between atoms: C13_28  and  N5_30 
REMARK   10  A    between atoms: N5_30  and  C14_32 
REMARK   11  A    between atoms: C19_37  and  N6_38 
ROOT
HETATM    1  S2  UNL     1       0.815   2.602  -2.981  1.00  0.00     0.276 S 
HETATM    2  O4  UNL     1       0.392   3.975  -2.575  1.00  0.00    -0.199 OA
HETATM    3  O5  UNL     1       1.140   2.613  -4.426  1.00  0.00    -0.199 OA
ENDROOT
BRANCH   1   4
HETATM    4  N3  UNL     1      -0.479   1.525  -2.585  1.00  0.00    -0.223 N 
ATOM      5  H3  UNL     1      -0.292   0.530  -2.709  1.00  0.00     0.200 HD
BRANCH   4   6
HETATM    6  N2  UNL     1      -1.717   1.852  -2.127  1.00  0.00    -0.292 N 
HETATM    7  C4  UNL     1      -2.786   1.148  -2.276  1.00  0.00     0.072 C 
ATOM      8  H2  UNL     1      -1.807   2.733  -1.621  1.00  0.00     0.187 HD
BRANCH   7   9
HETATM    9  C3  UNL     1      -4.065   1.587  -1.746  1.00  0.00     0.140 A 
HETATM   10  N1  UNL     1      -4.429   2.481  -0.827  1.00  0.00    -0.264 N 
HETATM   11  C2  UNL     1      -3.685   3.038   0.206  1.00  0.00     0.226 C 
HETATM   12  C27 UNL     1      -5.804   2.711  -0.891  1.00  0.00     0.070 A 
HETATM   13  C1  UNL     1      -2.371   2.638   0.699  1.00  0.00     0.118 C 
HETATM   14  O1  UNL     1      -4.183   4.039   0.865  1.00  0.00    -0.273 OA
HETATM   15  C22 UNL     1      -6.270   1.894  -1.904  1.00  0.00     0.061 A 
HETATM   16  C26 UNL     1      -6.689   3.510  -0.209  1.00  0.00     0.032 A 
HETATM   17  N7  UNL     1      -5.238   1.239  -2.399  1.00  0.00    -0.338 N 
HETATM   18  C23 UNL     1      -7.620   1.882  -2.227  1.00  0.00     0.032 A 
ATOM     19  H7  UNL     1      -5.295   0.565  -3.162  1.00  0.00     0.167 HD
HETATM   20  C24 UNL     1      -8.467   2.685  -1.539  1.00  0.00     0.002 A 
HETATM   21  C25 UNL     1      -8.032   3.510  -0.525  1.00  0.00     0.002 A 
ENDBRANCH   7   9
BRANCH   7  22
HETATM   22  C5  UNL     1      -2.666  -0.167  -2.957  1.00  0.00     0.077 C 
BRANCH  22  23
HETATM   23  C6  UNL     1      -2.626  -1.382  -2.159  1.00  0.00     0.146 C 
BRANCH  23  24
HETATM   24  S1  UNL     1      -3.923  -1.933  -1.162  1.00  0.00     0.141 S 
HETATM   25  C7  UNL     1      -5.426  -2.328  -1.981  1.00  0.00     0.161 C 
HETATM   26  O2  UNL     1      -4.232  -1.056   0.025  1.00  0.00    -0.228 OA
HETATM   27  O3  UNL     1      -3.433  -3.254  -0.515  1.00  0.00    -0.228 OA
ENDBRANCH  23  24
ENDBRANCH  22  23
ENDBRANCH   7  22
ENDBRANCH   4   6
ENDBRANCH   1   4
BRANCH   1  28
HETATM   28  C8  UNL     1       2.169   2.105  -1.981  1.00  0.00     0.081 A 
HETATM   29  C9  UNL     1       2.533   2.839  -0.895  1.00  0.00     0.027 A 
HETATM   30  C10 UNL     1       3.588   2.425  -0.061  1.00  0.00     0.031 A 
HETATM   31  C11 UNL     1       4.214   1.283  -0.386  1.00  0.00     0.035 A 
HETATM   32  C20 UNL     1       3.872   0.515  -1.486  1.00  0.00     0.031 A 
HETATM   33  C21 UNL     1       2.852   0.931  -2.278  1.00  0.00     0.027 A 
BRANCH  31  34
HETATM   34  N4  UNL     1       5.291   0.738   0.382  1.00  0.00    -0.319 N 
HETATM   35  C12 UNL     1       4.944  -0.342   1.218  1.00  0.00     0.314 C 
HETATM   36  O6  UNL     1       3.717  -0.696   1.277  1.00  0.00    -0.262 OA
ATOM     37  H4  UNL     1       6.241   1.105   0.328  1.00  0.00     0.169 HD
BRANCH  35  38
HETATM   38  C13 UNL     1       5.869  -1.113   2.038  1.00  0.00     0.314 C 
HETATM   39  O7  UNL     1       7.095  -0.805   2.108  1.00  0.00    -0.262 OA
HETATM   40  N5  UNL     1       5.372  -2.217   2.767  1.00  0.00    -0.317 N 
ATOM     41  H5  UNL     1       4.378  -2.420   2.660  1.00  0.00     0.169 HD
BRANCH  40  42
HETATM   42  C14 UNL     1       6.076  -3.045   3.601  1.00  0.00     0.068 A 
HETATM   43  C15 UNL     1       7.213  -2.665   4.275  1.00  0.00     0.032 A 
HETATM   44  C16 UNL     1       7.832  -3.501   5.201  1.00  0.00     0.002 A 
HETATM   45  C17 UNL     1       7.327  -4.737   5.472  1.00  0.00     0.003 A 
HETATM   46  C18 UNL     1       6.203  -5.154   4.826  1.00  0.00     0.038 A 
HETATM   47  C19 UNL     1       5.585  -4.316   3.899  1.00  0.00     0.129 A 
BRANCH  47  48
HETATM   48  N6  UNL     1       4.462  -4.816   3.228  1.00  0.00    -0.113 N 
HETATM   49  O8  UNL     1       4.214  -4.542   2.061  1.00  0.00    -0.532 OA
HETATM   50  O9  UNL     1       3.617  -5.688   3.876  1.00  0.00    -0.532 OA
ENDBRANCH  47  48
ENDBRANCH  40  42
ENDBRANCH  35  38
ENDBRANCH  31  34
ENDBRANCH   1  28
TORSDOF 11
