REMARK  13 active torsions:
REMARK  status: ('A' for Active; 'I' for Inactive)
REMARK       I    between atoms: C2_2  and  N1_4 
REMARK    1  A    between atoms: N1_4  and  C3_6 
REMARK    2  A    between atoms: C3_6  and  O2_7 
REMARK    3  A    between atoms: C3_6  and  N2_9 
REMARK    4  A    between atoms: N2_9  and  C4_11 
REMARK    5  A    between atoms: C4_11  and  C6_13 
REMARK    6  A    between atoms: C6_13  and  C7_15 
REMARK    7  A    between atoms: C8_18  and  C9_19 
REMARK    8  A    between atoms: C9_19  and  S1_20 
REMARK    9  A    between atoms: S1_20  and  C10_21 
REMARK   10  A    between atoms: C10_21  and  N4_23 
REMARK   11  A    between atoms: N4_23  and  C12_25 
REMARK   12  A    between atoms: C13_28  and  N6_29 
REMARK   13  A    between atoms: C14_34  and  N8_35 
ROOT
HETATM    1  C9  UNL     1       1.622   0.422   0.728  1.00  0.00     0.139 C 
ENDROOT
BRANCH   1   2
HETATM    2  C8  UNL     1       0.147   0.039   0.928  1.00  0.00     0.026 A 
HETATM    3  N3  UNL     1      -0.736   0.326   0.030  1.00  0.00    -0.350 N 
HETATM    4  C7  UNL     1      -2.010  -0.021   0.210  1.00  0.00     0.122 A 
ATOM      5  H3  UNL     1      -0.458   0.819  -0.818  1.00  0.00     0.166 HD
HETATM    6  S3  UNL     1      -1.951  -0.791   1.733  1.00  0.00    -0.079 SA
HETATM    7  C15 UNL     1      -0.270  -0.621   2.050  1.00  0.00     0.077 A 
BRANCH   4   8
HETATM    8  C6  UNL     1      -3.133   0.192  -0.710  1.00  0.00     0.204 C 
HETATM    9  O3  UNL     1      -2.930   0.742  -1.785  1.00  0.00    -0.288 OA
BRANCH   8  10
HETATM   10  C4  UNL     1      -4.473  -0.274  -0.302  1.00  0.00     0.153 C 
HETATM   11  C5  UNL     1      -4.928   0.395   0.965  1.00  0.00     0.040 C 
BRANCH  10  12
HETATM   12  N2  UNL     1      -5.348  -0.126  -1.414  1.00  0.00    -0.370 N 
ATOM     13  H2  UNL     1      -5.050   0.393  -2.240  1.00  0.00     0.158 HD
BRANCH  12  14
HETATM   14  C3  UNL     1      -6.637  -0.707  -1.360  1.00  0.00     0.325 C 
BRANCH  14  15
HETATM   15  N1  UNL     1      -7.528  -0.148  -0.401  1.00  0.00    -0.319 N 
HETATM   16  C2  UNL     1      -8.591   0.685  -0.827  1.00  0.00     0.216 C 
HETATM   17  C1  UNL     1      -9.536   1.282   0.139  1.00  0.00     0.117 C 
HETATM   18  O1  UNL     1      -8.760   0.941  -2.048  1.00  0.00    -0.274 OA
ATOM     19  H1  UNL     1      -7.401  -0.347   0.591  1.00  0.00     0.166 HD
ENDBRANCH  14  15
BRANCH  14  20
HETATM   20  O2  UNL     1      -6.602  -2.101  -1.204  1.00  0.00    -0.360 OA
ATOM     21  H2  UNL     1      -6.007  -2.474  -1.844  1.00  0.00     0.214 HD
ENDBRANCH  14  20
ENDBRANCH  12  14
ENDBRANCH  10  12
ENDBRANCH   8  10
ENDBRANCH   4   8
ENDBRANCH   1   2
BRANCH   1  22
HETATM   22  S1  UNL     1       2.412  -0.868  -0.201  1.00  0.00    -0.094 SA
BRANCH  22  23
HETATM   23  C10 UNL     1       4.122  -0.644  -0.442  1.00  0.00     0.156 C 
HETATM   24  S2  UNL     1       4.816  -1.727  -1.541  1.00  0.00    -0.052 SA
BRANCH  23  25
HETATM   25  N4  UNL     1       4.946   0.306   0.166  1.00  0.00    -0.171 N 
HETATM   26  C11 UNL     1       4.607   1.315   1.127  1.00  0.00     0.177 C 
BRANCH  25  27
HETATM   27  C12 UNL     1       6.337   0.289  -0.227  1.00  0.00     0.703 A 
HETATM   28  N5  UNL     1       6.785   1.291  -0.978  1.00  0.00    -0.022 N 
HETATM   29  C13 UNL     1       8.088   1.252  -1.350  1.00  0.00     0.693 A 
ATOM     30  H5  UNL     1       6.174   2.057  -1.262  1.00  0.00     0.203 HD
HETATM   31  N7  UNL     1       8.871   0.233  -0.964  1.00  0.00    -0.155 N 
HETATM   32  C14 UNL     1       8.431  -0.787  -0.205  1.00  0.00     0.278 A 
ATOM     33  H7  UNL     1       9.847   0.232  -1.260  1.00  0.00     0.187 HD
HETATM   34  N9  UNL     1       7.116  -0.725   0.158  1.00  0.00    -0.154 N 
ATOM     35  H9  UNL     1       6.721  -1.468   0.735  1.00  0.00     0.187 HD
BRANCH  29  36
HETATM   36  N6  UNL     1       8.504   2.234  -2.076  1.00  0.00    -0.234 N 
ATOM     37  H62 UNL     1       7.909   3.009  -2.369  1.00  0.00     0.174 HD
ATOM     38  H61 UNL     1       9.484   2.205  -2.356  1.00  0.00     0.174 HD
ENDBRANCH  29  36
BRANCH  32  39
HETATM   39  N8  UNL     1       9.267  -1.862   0.192  1.00  0.00    -0.078 N 
HETATM   40  O4  UNL     1      10.559  -1.875  -0.180  1.00  0.00    -0.529 OA
HETATM   41  O5  UNL     1       8.754  -2.859   0.932  1.00  0.00    -0.529 OA
ENDBRANCH  32  39
ENDBRANCH  25  27
ENDBRANCH  23  25
ENDBRANCH  22  23
ENDBRANCH   1  22
TORSDOF 13
