REMARK  14 active torsions:
REMARK  status: ('A' for Active; 'I' for Inactive)
REMARK    1  A    between atoms: C2_2  and  C4_4 
REMARK    2  A    between atoms: C6_6  and  C7_7 
REMARK    3  A    between atoms: C7_7  and  C9_9 
REMARK    4  A    between atoms: C9_9  and  C10_10 
REMARK    5  A    between atoms: C10_10  and  C11_11 
REMARK    6  A    between atoms: C11_11  and  N1_12 
REMARK    7  A    between atoms: C14_15  and  N2_16 
REMARK    8  A    between atoms: N3_21  and  C19_22 
REMARK    9  A    between atoms: C19_22  and  C20_23 
REMARK   10  A    between atoms: C20_23  and  C21_24 
REMARK   11  A    between atoms: N4_27  and  C24_28 
REMARK   12  A    between atoms: C24_28  and  C25_29 
REMARK   13  A    between atoms: C25_29  and  C26_30 
REMARK   14  A    between atoms: C26_30  and  S1_31 
ROOT
HETATM    1  N2  UNL     1      -0.190  -1.745  -0.334  1.00  0.00    -0.212 N 
HETATM    2  C15 UNL     1      -0.435  -2.689  -1.390  1.00  0.00     0.141 C 
HETATM    3  C16 UNL     1       0.137  -4.021  -0.952  1.00  0.00     0.022 C 
HETATM    4  C17 UNL     1       1.600  -4.058  -1.292  1.00  0.00     0.022 C 
HETATM    5  C18 UNL     1       2.499  -3.482  -0.252  1.00  0.00     0.141 C 
HETATM    6  N3  UNL     1       2.370  -2.027  -0.111  1.00  0.00    -0.217 N 
HETATM    7  C30 UNL     1       1.157  -1.330   0.112  1.00  0.00     0.687 C 
HETATM    8  N5  UNL     1       1.199  -0.268   0.736  1.00  0.00    -0.126 N 
ATOM      9  H5  UNL     1       0.239   0.073   0.786  1.00  0.00     0.197 HD
HETATM   10  C31 UNL     1       1.940   0.622   1.368  1.00  0.00     0.196 C 
HETATM   11  N6  UNL     1       2.559   1.392   1.930  1.00  0.00    -0.171 NA
ENDROOT
BRANCH   1  12
HETATM   12  C14 UNL     1      -1.257  -1.122   0.388  1.00  0.00     0.105 C 
HETATM   13  C13 UNL     1      -2.126  -2.039   1.175  1.00  0.00     0.056 C 
HETATM   14  C12 UNL     1      -3.476  -2.329   0.569  1.00  0.00     0.274 C 
HETATM   15  N1  UNL     1      -4.205  -1.112   0.443  1.00  0.00     0.088 N 
HETATM   16  C33 UNL     1      -3.375   0.052   0.284  1.00  0.00     0.274 C 
HETATM   17  C32 UNL     1      -2.152  -0.294  -0.549  1.00  0.00     0.056 C 
BRANCH  15  18
HETATM   18  C11 UNL     1      -5.178  -1.109  -0.622  1.00  0.00     0.272 C 
BRANCH  18  19
HETATM   19  C10 UNL     1      -6.324  -2.017  -0.415  1.00  0.00     0.031 C 
BRANCH  19  20
HETATM   20  C9  UNL     1      -7.332  -2.036  -1.487  1.00  0.00     0.008 C 
BRANCH  20  21
HETATM   21  C7  UNL     1      -8.115  -0.820  -1.799  1.00  0.00     0.011 C 
HETATM   22  C8  UNL     1      -7.399   0.255  -2.562  1.00  0.00     0.012 C 
BRANCH  21  23
HETATM   23  C6  UNL     1      -8.976  -0.281  -0.694  1.00  0.00     0.136 C 
HETATM   24  C5  UNL     1      -8.314   0.513   0.363  1.00  0.00     0.048 C 
HETATM   25  C4  UNL     1      -9.302   1.652   0.706  1.00  0.00     0.091 C 
HETATM   26  C34 UNL     1      -9.917   1.839  -0.626  1.00  0.00     0.263 C 
HETATM   27  O3  UNL     1      -9.982   0.585  -1.202  1.00  0.00    -0.315 OA
HETATM   28  O4  UNL     1     -10.313   2.886  -1.164  1.00  0.00    -0.265 OA
BRANCH  25  29
HETATM   29  C2  UNL     1      -8.541   2.858   1.194  1.00  0.00    -0.009 C 
HETATM   30  C1  UNL     1      -7.576   3.392   0.191  1.00  0.00     0.010 C 
HETATM   31  C3  UNL     1      -9.517   3.967   1.517  1.00  0.00     0.010 C 
ENDBRANCH  25  29
ENDBRANCH  21  23
ENDBRANCH  20  21
ENDBRANCH  19  20
ENDBRANCH  18  19
ENDBRANCH  15  18
ENDBRANCH   1  12
BRANCH   6  32
HETATM   32  C19 UNL     1       3.634  -1.342  -0.266  1.00  0.00     0.141 C 
BRANCH  32  33
HETATM   33  C20 UNL     1       4.631  -1.650   0.821  1.00  0.00     0.025 C 
BRANCH  33  34
HETATM   34  C21 UNL     1       5.965  -1.013   0.642  1.00  0.00    -0.007 C 
HETATM   35  C22 UNL     1       6.641  -1.459  -0.644  1.00  0.00     0.024 C 
HETATM   36  C23 UNL     1       8.097  -1.104  -0.500  1.00  0.00     0.122 C 
HETATM   37  N4  UNL     1       8.221   0.344  -0.455  1.00  0.00    -0.393 N 
HETATM   38  C28 UNL     1       6.987   1.015  -0.376  1.00  0.00     0.058 C 
HETATM   39  C29 UNL     1       6.019   0.468   0.677  1.00  0.00     0.049 C 
BRANCH  37  40
HETATM   40  C24 UNL     1       9.316   0.784   0.318  1.00  0.00     0.122 C 
BRANCH  40  41
HETATM   41  C25 UNL     1       9.470   2.272   0.291  1.00  0.00     0.035 C 
BRANCH  41  42
HETATM   42  C26 UNL     1      10.703   2.660   1.109  1.00  0.00     0.141 C 
BRANCH  42  43
HETATM   43  S1  UNL     1      10.801   4.435   1.005  1.00  0.00     0.140 S 
HETATM   44  C27 UNL     1      12.198   5.032   1.911  1.00  0.00     0.161 C 
HETATM   45  O1  UNL     1       9.541   5.050   1.587  1.00  0.00    -0.228 OA
HETATM   46  O2  UNL     1      10.972   4.790  -0.442  1.00  0.00    -0.228 OA
ENDBRANCH  42  43
ENDBRANCH  41  42
ENDBRANCH  40  41
ENDBRANCH  37  40
ENDBRANCH  33  34
ENDBRANCH  32  33
ENDBRANCH   6  32
TORSDOF 14
