REMARK  17 active torsions:
REMARK  status: ('A' for Active; 'I' for Inactive)
REMARK    1  A    between atoms: C2_2  and  O1_3 
REMARK    2  A    between atoms: O1_3  and  C3_4 
REMARK    3  A    between atoms: C3_4  and  C4_6 
REMARK    4  A    between atoms: C4_6  and  C5_7 
REMARK    5  A    between atoms: C5_7  and  N1_8 
REMARK    6  A    between atoms: N1_8  and  C6_9 
REMARK    7  A    between atoms: N1_8  and  S1_22 
REMARK    8  A    between atoms: C7_10  and  O3_11 
REMARK    9  A    between atoms: C7_10  and  N2_13 
REMARK   10  A    between atoms: N2_13  and  C9_15 
REMARK   11  A    between atoms: C9_15  and  C10_16 
REMARK   12  A    between atoms: C10_16  and  N3_17 
REMARK   13  A    between atoms: N3_17  and  C11_18 
REMARK   14  A    between atoms: N3_17  and  C13_20 
REMARK   15  A    between atoms: S1_22  and  C15_25 
REMARK   16  A    between atoms: C19_29  and  N4_30 
REMARK       I    between atoms: N4_30  and  C21_32 
REMARK   17  A    between atoms: C27_39  and  C28_40 
ROOT
HETATM    1  S1  UNL     1      -0.399   2.176  -1.417  1.00  0.00     0.247 S 
HETATM    2  O4  UNL     1      -0.718   3.662  -1.285  1.00  0.00    -0.205 OA
HETATM    3  O5  UNL     1      -0.538   1.772  -2.878  1.00  0.00    -0.205 OA
ENDROOT
BRANCH   1   4
HETATM    4  N1  UNL     1       1.201   1.917  -0.828  1.00  0.00    -0.178 NA
BRANCH   4   5
HETATM    5  C5  UNL     1       1.772   3.132  -0.348  1.00  0.00     0.122 C 
BRANCH   5   6
HETATM    6  C4  UNL     1       2.277   4.046  -1.434  1.00  0.00     0.127 C 
BRANCH   6   7
HETATM    7  C3  UNL     1       2.811   5.289  -0.774  1.00  0.00     0.259 C 
HETATM    8  O2  UNL     1       2.820   5.387   0.485  1.00  0.00    -0.265 OA
BRANCH   7   9
HETATM    9  O1  UNL     1       3.295   6.340  -1.497  1.00  0.00    -0.322 OA
BRANCH   9  10
HETATM   10  C2  UNL     1       3.821   7.541  -1.048  1.00  0.00     0.174 C 
HETATM   11  C1  UNL     1       2.788   8.294  -0.244  1.00  0.00     0.034 C 
ENDBRANCH   9  10
ENDBRANCH   7   9
ENDBRANCH   6   7
ENDBRANCH   5   6
ENDBRANCH   4   5
BRANCH   4  12
HETATM   12  C6  UNL     1       1.914   1.050  -1.644  1.00  0.00     0.132 C 
HETATM   13  C7  UNL     1       2.777   0.007  -1.182  1.00  0.00     0.149 C 
BRANCH  13  14
HETATM   14  O3  UNL     1       3.251  -0.747  -2.170  1.00  0.00    -0.345 OA
ATOM     15  H3  UNL     1       3.824  -1.440  -1.863  1.00  0.00     0.219 HD
ENDBRANCH  13  14
BRANCH  13  16
HETATM   16  N2  UNL     1       3.249  -0.416   0.063  1.00  0.00    -0.364 N 
HETATM   17  C8  UNL     1       2.930   0.268   1.300  1.00  0.00     0.151 C 
BRANCH  16  18
HETATM   18  C9  UNL     1       4.071  -1.621   0.230  1.00  0.00     0.144 C 
BRANCH  18  19
HETATM   19  C10 UNL     1       5.534  -1.361  -0.073  1.00  0.00     0.146 C 
BRANCH  19  20
HETATM   20  N3  UNL     1       6.288  -2.537   0.181  1.00  0.00    -0.373 N 
BRANCH  20  21
HETATM   21  C11 UNL     1       6.489  -2.801   1.535  1.00  0.00     0.058 C 
HETATM   22  C12 UNL     1       7.284  -4.036   1.866  1.00  0.00     0.055 C 
ENDBRANCH  20  21
BRANCH  20  23
HETATM   23  C13 UNL     1       7.276  -2.824  -0.747  1.00  0.00     0.058 C 
HETATM   24  C14 UNL     1       6.742  -3.259  -2.104  1.00  0.00     0.055 C 
ENDBRANCH  20  23
ENDBRANCH  19  20
ENDBRANCH  18  19
ENDBRANCH  16  18
ENDBRANCH  13  16
ENDBRANCH   4  12
ENDBRANCH   1   4
BRANCH   1  25
HETATM   25  C15 UNL     1      -1.587   1.339  -0.515  1.00  0.00     0.078 A 
HETATM   26  C16 UNL     1      -2.295   0.291  -1.116  1.00  0.00     0.038 A 
HETATM   27  C17 UNL     1      -3.291  -0.332  -0.448  1.00  0.00    -0.008 A 
HETATM   28  C18 UNL     1      -3.636   0.029   0.819  1.00  0.00    -0.015 A 
HETATM   29  C32 UNL     1      -4.203  -1.412  -0.854  1.00  0.00     0.022 A 
HETATM   30  C19 UNL     1      -2.962   1.071   1.480  1.00  0.00     0.045 A 
HETATM   31  C24 UNL     1      -4.741  -0.790   1.277  1.00  0.00     0.082 A 
HETATM   32  C23 UNL     1      -1.952   1.698   0.791  1.00  0.00     0.055 A 
HETATM   33  C25 UNL     1      -5.083  -1.697   0.142  1.00  0.00    -0.035 A 
HETATM   34  C26 UNL     1      -6.001  -2.672  -0.103  1.00  0.00     0.024 A 
HETATM   35  C27 UNL     1      -5.963  -3.281  -1.318  1.00  0.00    -0.009 A 
HETATM   36  S2  UNL     1      -4.663  -2.499  -2.098  1.00  0.00    -0.093 SA
BRANCH  30  37
HETATM   37  N4  UNL     1      -3.367   1.411   2.797  1.00  0.00    -0.322 N 
HETATM   38  C20 UNL     1      -2.711   0.910   3.978  1.00  0.00     0.159 C 
HETATM   39  C21 UNL     1      -4.461   2.290   2.948  1.00  0.00     0.220 C 
HETATM   40  C22 UNL     1      -4.965   2.676   4.315  1.00  0.00     0.117 C 
HETATM   41  O6  UNL     1      -5.043   2.771   1.956  1.00  0.00    -0.274 OA
ENDBRANCH  30  37
BRANCH  35  42
HETATM   42  C28 UNL     1      -6.839  -4.367  -1.833  1.00  0.00    -0.018 C 
HETATM   43  C29 UNL     1      -8.224  -3.764  -2.017  1.00  0.00     0.020 C 
HETATM   44  C30 UNL     1      -6.344  -4.816  -3.181  1.00  0.00     0.020 C 
HETATM   45  C31 UNL     1      -6.963  -5.508  -0.833  1.00  0.00     0.020 C 
ENDBRANCH  35  42
ENDBRANCH   1  25
TORSDOF 17
