REMARK  10 active torsions:
REMARK  status: ('A' for Active; 'I' for Inactive)
REMARK    1  A    between atoms: N1_3  and  C3_5 
REMARK    2  A    between atoms: C3_5  and  C4_6 
REMARK    3  A    between atoms: C3_5  and  C11_22 
REMARK    4  A    between atoms: C4_6  and  N2_7 
REMARK    5  A    between atoms: C4_6  and  C5_11 
REMARK       I    between atoms: C5_11  and  N3_13 
REMARK    6  A    between atoms: N3_13  and  C6_15 
REMARK    7  A    between atoms: C6_15  and  C7_16 
REMARK    8  A    between atoms: C6_15  and  C8_19 
REMARK    9  A    between atoms: C11_22  and  C12_23 
REMARK   10  A    between atoms: C11_22  and  C15_26 
ROOT
HETATM    1  C1  UNL     1       0.847   1.926  -5.058  1.00  0.00     0.037 C 
HETATM    2  C2  UNL     1       1.214   1.256  -4.111  1.00  0.00    -0.001 C 
HETATM    3  N1  UNL     1       1.660   0.525  -3.049  1.00  0.00    -0.317 N 
ATOM      4  H1  UNL     1       2.607   0.150  -3.113  1.00  0.00     0.176 HD
ENDROOT
BRANCH   3   5
HETATM    5  C3  UNL     1       0.901   0.222  -1.810  1.00  0.00     0.060 C 
BRANCH   5   6
HETATM    6  C4  UNL     1      -0.153  -0.702  -2.153  1.00  0.00     0.325 C 
BRANCH   6   7
HETATM    7  N2  UNL     1      -0.998  -0.027  -3.193  1.00  0.00    -0.061 N 
ATOM      8  H23 UNL     1      -1.344   0.887  -2.900  1.00  0.00     0.275 HD
ATOM      9  H22 UNL     1      -0.463   0.291  -4.001  1.00  0.00     0.275 HD
ATOM     10  H21 UNL     1      -1.743  -0.680  -3.435  1.00  0.00     0.275 HD
ENDBRANCH   6   7
BRANCH   6  11
HETATM   11  C5  UNL     1      -1.269  -0.901  -1.102  1.00  0.00     0.258 C 
HETATM   12  O1  UNL     1      -1.543  -2.100  -0.822  1.00  0.00    -0.270 OA
HETATM   13  N3  UNL     1      -1.875   0.198  -0.568  1.00  0.00    -0.324 N 
ATOM     14  H3  UNL     1      -1.446   1.055  -0.917  1.00  0.00     0.169 HD
BRANCH  13  15
HETATM   15  C6  UNL     1      -2.938   0.495   0.340  1.00  0.00     0.081 C 
BRANCH  15  16
HETATM   16  C7  UNL     1      -3.124   1.937   0.546  1.00  0.00     0.277 C 
HETATM   17  N4  UNL     1      -4.076   2.652   1.268  1.00  0.00    -0.056 NA
HETATM   18  O2  UNL     1      -2.249   2.683  -0.053  1.00  0.00    -0.270 OA
ENDBRANCH  15  16
BRANCH  15  19
HETATM   19  C8  UNL     1      -3.054  -0.303   1.603  1.00  0.00     0.033 C 
HETATM   20  C9  UNL     1      -4.174   0.267   2.474  1.00  0.00     0.016 C 
HETATM   21  C10 UNL     1      -3.623  -1.721   1.296  1.00  0.00     0.016 C 
ENDBRANCH  15  19
ENDBRANCH  13  15
ENDBRANCH   6  11
ENDBRANCH   5   6
BRANCH   5  22
HETATM   22  C11 UNL     1       1.742   0.205  -0.611  1.00  0.00    -0.047 C 
BRANCH  22  23
HETATM   23  C12 UNL     1       2.385   1.513  -0.205  1.00  0.00     0.009 C 
HETATM   24  C13 UNL     1       3.294   2.061  -1.272  1.00  0.00     0.014 C 
HETATM   25  C14 UNL     1       1.389   2.593   0.143  1.00  0.00     0.014 C 
ENDBRANCH  22  23
BRANCH  22  26
HETATM   26  C15 UNL     1       1.474  -0.758   0.493  1.00  0.00     0.017 C 
HETATM   27  C16 UNL     1       2.464  -0.521   1.664  1.00  0.00     0.009 C 
HETATM   28  C17 UNL     1       2.111  -1.573   2.716  1.00  0.00     0.001 C 
HETATM   29  C18 UNL     1       2.571  -2.935   2.238  1.00  0.00     0.000 C 
HETATM   30  C19 UNL     1       1.681  -3.233   1.020  1.00  0.00     0.001 C 
HETATM   31  C20 UNL     1       1.904  -2.166   0.011  1.00  0.00     0.009 C 
ENDBRANCH  22  26
ENDBRANCH   5  22
ENDBRANCH   3   5
TORSDOF 10
