REMARK  2 active torsions:
REMARK  status: ('A' for Active; 'I' for Inactive)
REMARK    1  A    between atoms: C7_10  and  C8_11 
REMARK       I    between atoms: C8_11  and  N3_13 
REMARK    2  A    between atoms: N3_13  and  C9_15 
ROOT
HETATM    1  N1  UNL     1       8.372  -2.630  -0.865  1.00  0.00    -0.188 NA
HETATM    2  C1  UNL     1       7.447  -2.003  -0.562  1.00  0.00     0.137 C 
HETATM    3  C2  UNL     1       6.302  -1.202  -0.172  1.00  0.00     0.188 A 
HETATM    4  N2  UNL     1       6.445  -0.392   0.900  1.00  0.00    -0.343 N 
ATOM      5  H2  UNL     1       7.333  -0.363   1.400  1.00  0.00     0.167 HD
HETATM    6  C3  UNL     1       5.420   0.375   1.309  1.00  0.00     0.104 A 
HETATM    7  C4  UNL     1       4.213   0.327   0.620  1.00  0.00     0.006 A 
HETATM    8  C5  UNL     1       3.141   1.097   1.009  1.00  0.00     0.016 A 
HETATM    9  C6  UNL     1       1.949   1.043   0.321  1.00  0.00     0.018 A 
HETATM   10  C7  UNL     1       1.856   0.192  -0.776  1.00  0.00     0.034 A 
HETATM   11  C18 UNL     1       2.933  -0.577  -1.161  1.00  0.00     0.047 A 
HETATM   12  C19 UNL     1       4.108  -0.511  -0.466  1.00  0.00     0.046 A 
HETATM   13  N5  UNL     1       5.149  -1.261  -0.847  1.00  0.00    -0.333 N 
ATOM     14  H5  UNL     1       5.063  -1.879  -1.654  1.00  0.00     0.168 HD
ENDROOT
BRANCH  10  15
HETATM   15  C8  UNL     1       0.597   0.134  -1.504  1.00  0.00     0.257 C 
HETATM   16  O1  UNL     1       0.475  -0.623  -2.501  1.00  0.00    -0.267 OA
HETATM   17  N3  UNL     1      -0.527   0.915  -1.129  1.00  0.00    -0.309 N 
ATOM     18  H3  UNL     1      -0.442   1.930  -1.190  1.00  0.00     0.170 HD
BRANCH  17  19
HETATM   19  C9  UNL     1      -1.638   0.436  -0.720  1.00  0.00     0.108 A 
HETATM   20  C10 UNL     1      -1.863  -0.936  -0.598  1.00  0.00     0.049 A 
HETATM   21  C11 UNL     1      -3.065  -1.428  -0.155  1.00  0.00     0.017 A 
HETATM   22  C12 UNL     1      -4.071  -0.520   0.174  1.00  0.00    -0.009 A 
HETATM   23  C13 UNL     1      -5.308  -0.985   0.628  1.00  0.00     0.013 A 
HETATM   24  C17 UNL     1      -3.799   0.822   0.036  1.00  0.00     0.043 A 
HETATM   25  C14 UNL     1      -6.313  -0.103   0.958  1.00  0.00     0.001 A 
HETATM   26  C15 UNL     1      -6.043   1.243   0.821  1.00  0.00     0.002 A 
HETATM   27  C16 UNL     1      -4.827   1.709   0.375  1.00  0.00     0.030 A 
HETATM   28  N4  UNL     1      -2.618   1.286  -0.397  1.00  0.00    -0.342 N 
ATOM     29  H4  UNL     1      -2.467   2.291  -0.480  1.00  0.00     0.167 HD
ENDBRANCH  17  19
ENDBRANCH  10  15
TORSDOF 2
