REMARK  2 active torsions:
REMARK  status: ('A' for Active; 'I' for Inactive)
REMARK    1  A    between atoms: O1_1  and  N1_3 
REMARK    2  A    between atoms: C2_5  and  N2_6 
ROOT
HETATM    1  N1  UNL     1      -3.221   1.749  -0.288  1.00  0.00    -0.242 N 
HETATM    2  C1  UNL     1      -1.755   1.637  -0.297  1.00  0.00     0.184 C 
HETATM    3  C2  UNL     1      -1.605   0.330  -1.030  1.00  0.00     0.145 C 
HETATM    4  C10 UNL     1      -2.744  -0.450  -0.578  1.00  0.00     0.010 A 
HETATM    5  C11 UNL     1      -3.077  -1.805  -0.491  1.00  0.00     0.014 A 
HETATM    6  C12 UNL     1      -4.298  -2.207   0.004  1.00  0.00     0.018 A 
HETATM    7  C13 UNL     1      -5.250  -1.289   0.437  1.00  0.00     0.090 A 
HETATM    8  N4  UNL     1      -4.905   0.006   0.343  1.00  0.00    -0.350 N 
ATOM      9  H4  UNL     1      -5.575   0.711   0.650  1.00  0.00     0.166 HD
HETATM   10  C14 UNL     1      -3.715   0.419  -0.138  1.00  0.00     0.135 A 
ENDROOT
BRANCH   3  11
HETATM   11  N2  UNL     1      -0.316  -0.222  -0.734  1.00  0.00    -0.161 NA
HETATM   12  C3  UNL     1       0.692   0.676  -1.255  1.00  0.00     0.126 C 
HETATM   13  C4  UNL     1       1.658   1.063  -0.168  1.00  0.00     0.050 C 
HETATM   14  C5  UNL     1       2.116  -0.218   0.507  1.00  0.00     0.054 C 
HETATM   15  C6  UNL     1       3.158   0.151   1.543  1.00  0.00     0.033 C 
HETATM   16  C9  UNL     1       2.892  -1.131  -0.389  1.00  0.00     0.033 C 
HETATM   17  N3  UNL     1       0.947  -0.831   1.048  1.00  0.00    -0.273 N 
HETATM   18  C7  UNL     1       4.372   0.420   0.683  1.00  0.00     0.002 C 
HETATM   19  C8  UNL     1       4.356  -0.715  -0.288  1.00  0.00     0.002 C 
HETATM   20  O2  UNL     1      -0.218  -0.405   0.597  1.00  0.00    -0.186 OA
ATOM     21  H3  UNL     1       1.009  -1.566   1.752  1.00  0.00     0.190 HD
ENDBRANCH   3  11
BRANCH   1  22
HETATM   22  O1  UNL     1      -3.880   2.899  -0.399  1.00  0.00    -0.286 OA
ATOM     23  H1  UNL     1      -4.827   2.971  -0.393  1.00  0.00     0.244 HD
ENDBRANCH   1  22
TORSDOF 2
