REMARK  15 active torsions:
REMARK  status: ('A' for Active; 'I' for Inactive)
REMARK    1  A    between atoms: C2_2  and  N1_4 
REMARK       I    between atoms: N1_4  and  C4_6 
REMARK    2  A    between atoms: C4_6  and  C5_8 
REMARK    3  A    between atoms: C5_8  and  C6_9 
REMARK    4  A    between atoms: C5_8  and  N2_16 
REMARK    5  A    between atoms: C6_9  and  C7_10 
REMARK    6  A    between atoms: N2_16  and  C13_18 
REMARK    7  A    between atoms: C13_18  and  O2_19 
REMARK    8  A    between atoms: C13_18  and  C14_21 
REMARK    9  A    between atoms: C14_21  and  C15_23 
REMARK   10  A    between atoms: C15_23  and  N3_24 
REMARK   11  A    between atoms: N3_24  and  C16_27 
REMARK   12  A    between atoms: C16_27  and  C17_28 
REMARK   13  A    between atoms: C17_28  and  C18_29 
REMARK   14  A    between atoms: C18_29  and  O4_30 
REMARK   15  A    between atoms: N4_32  and  O5_34 
ROOT
HETATM    1  C13 UNL     1       0.965   0.316  -0.657  1.00  0.00     0.287 C 
ENDROOT
BRANCH   1   2
HETATM    2  N2  UNL     1       0.116  -0.171   0.333  1.00  0.00    -0.378 N 
ATOM      3  H2  UNL     1       0.469  -0.376   1.268  1.00  0.00     0.157 HD
BRANCH   2   4
HETATM    4  C5  UNL     1      -1.289  -0.381   0.003  1.00  0.00     0.172 C 
BRANCH   4   5
HETATM    5  C4  UNL     1      -1.630  -1.751   0.481  1.00  0.00     0.240 C 
HETATM    6  N1  UNL     1      -2.703  -2.498  -0.074  1.00  0.00    -0.355 N 
ATOM      7  H1  UNL     1      -3.279  -2.107  -0.819  1.00  0.00     0.162 HD
HETATM    8  O1  UNL     1      -0.903  -2.224   1.420  1.00  0.00    -0.271 OA
BRANCH   6   9
HETATM    9  C2  UNL     1      -2.961  -3.819   0.437  1.00  0.00     0.076 C 
HETATM   10  C1  UNL     1      -3.262  -4.862  -0.596  1.00  0.00     0.032 C 
HETATM   11  C3  UNL     1      -4.166  -3.790   1.381  1.00  0.00     0.032 C 
ENDBRANCH   6   9
ENDBRANCH   4   5
BRANCH   4  12
HETATM   12  C6  UNL     1      -2.083   0.548   0.961  1.00  0.00     0.039 C 
BRANCH  12  13
HETATM   13  C7  UNL     1      -1.863   1.969   0.595  1.00  0.00    -0.012 C 
HETATM   14  C8  UNL     1      -2.360   2.343  -0.762  1.00  0.00     0.005 C 
HETATM   15  C9  UNL     1      -3.228   3.589  -0.705  1.00  0.00     0.000 C 
HETATM   16  C10 UNL     1      -4.417   3.327   0.186  1.00  0.00     0.000 C 
HETATM   17  C11 UNL     1      -3.944   2.959   1.557  1.00  0.00     0.000 C 
HETATM   18  C12 UNL     1      -2.429   2.876   1.652  1.00  0.00     0.005 C 
ENDBRANCH  12  13
ENDBRANCH   4  12
ENDBRANCH   2   4
ENDBRANCH   1   2
BRANCH   1  19
HETATM   19  O2  UNL     1       0.507   0.502  -1.934  1.00  0.00    -0.370 OA
ATOM     20  H2  UNL     1       1.086   0.834  -2.610  1.00  0.00     0.212 HD
ENDBRANCH   1  19
BRANCH   1  21
HETATM   21  C14 UNL     1       2.260  -0.422  -0.730  1.00  0.00     0.200 C 
HETATM   22  O3  UNL     1       2.628  -1.023   0.277  1.00  0.00    -0.291 OA
BRANCH  21  23
HETATM   23  C15 UNL     1       3.092  -0.450  -1.949  1.00  0.00     0.314 C 
BRANCH  23  24
HETATM   24  N3  UNL     1       4.446  -0.926  -1.545  1.00  0.00    -0.068 N 
ATOM     25  H32 UNL     1       4.432  -1.833  -1.078  1.00  0.00     0.277 HD
ATOM     26  H31 UNL     1       5.030  -1.198  -2.336  1.00  0.00     0.277 HD
BRANCH  24  27
HETATM   27  C16 UNL     1       5.033   0.131  -0.732  1.00  0.00     0.240 C 
BRANCH  27  28
HETATM   28  C17 UNL     1       6.408  -0.299  -0.225  1.00  0.00     0.113 C 
BRANCH  28  29
HETATM   29  C18 UNL     1       6.986   0.810   0.587  1.00  0.00     0.136 C 
HETATM   30  N4  UNL     1       7.800   1.629   0.030  1.00  0.00    -0.251 N 
ATOM     31  H4  UNL     1       8.187   2.381   0.600  1.00  0.00     0.196 HD
BRANCH  29  32
HETATM   32  O4  UNL     1       6.651   0.971   1.902  1.00  0.00    -0.348 OA
ATOM     33  H4  UNL     1       7.019   1.678   2.419  1.00  0.00     0.219 HD
ENDBRANCH  29  32
BRANCH  30  34
HETATM   34  O5  UNL     1       8.184   1.557  -1.288  1.00  0.00    -0.288 OA
ATOM     35  H5  UNL     1       8.787   2.164  -1.701  1.00  0.00     0.244 HD
ENDBRANCH  30  34
ENDBRANCH  28  29
ENDBRANCH  27  28
ENDBRANCH  24  27
ENDBRANCH  23  24
ENDBRANCH  21  23
ENDBRANCH   1  21
TORSDOF 15
