REMARK  5 active torsions:
REMARK  status: ('A' for Active; 'I' for Inactive)
REMARK    1  A    between atoms: O1_1  and  C1_3 
REMARK    2  A    between atoms: C1_3  and  C2_4 
REMARK    3  A    between atoms: C1_3  and  C10_15 
REMARK    4  A    between atoms: C2_4  and  C3_5 
REMARK    5  A    between atoms: C10_15  and  N2_16 
ROOT
HETATM    1  C2  UNL     1       0.633  -1.090  -0.542  1.00  0.00     0.040 C 
ENDROOT
BRANCH   1   2
HETATM    2  C1  UNL     1      -0.840  -0.935  -0.361  1.00  0.00     0.136 C 
BRANCH   2   3
HETATM    3  O1  UNL     1      -1.429  -1.277  -1.622  1.00  0.00    -0.394 OA
ATOM      4  H1  UNL     1      -2.367  -1.178  -1.507  1.00  0.00     0.210 HD
ENDBRANCH   2   3
BRANCH   2   5
HETATM    5  C10 UNL     1      -1.241   0.436   0.023  1.00  0.00     0.148 C 
BRANCH   5   6
HETATM    6  N2  UNL     1      -2.673   0.622   0.107  1.00  0.00    -0.406 N 
HETATM    7  C11 UNL     1      -3.397   0.578  -1.107  1.00  0.00     0.143 C 
HETATM    8  C12 UNL     1      -4.730   1.298  -0.821  1.00  0.00     0.187 C 
HETATM    9  O2  UNL     1      -5.368   0.739   0.261  1.00  0.00    -0.388 OA
HETATM   10  C13 UNL     1      -4.731  -0.366   0.801  1.00  0.00     0.187 C 
HETATM   11  C14 UNL     1      -3.290  -0.056   1.209  1.00  0.00     0.143 C 
ENDBRANCH   5   6
ENDBRANCH   2   5
ENDBRANCH   1   2
BRANCH   1  12
HETATM   12  C3  UNL     1       1.543  -0.827   0.582  1.00  0.00     0.021 C 
HETATM   13  C4  UNL     1       1.613   0.532   1.163  1.00  0.00     0.039 C 
HETATM   14  C5  UNL     1       3.099   0.709   1.484  1.00  0.00     0.186 C 
HETATM   15  C6  UNL     1       3.715   1.490   0.383  1.00  0.00     0.033 C 
HETATM   16  N1  UNL     1       3.639  -0.624   1.503  1.00  0.00    -0.066 N 
HETATM   17  C7  UNL     1       4.200   0.716  -0.793  1.00  0.00     0.004 C 
HETATM   18  C8  UNL     1       3.567  -0.640  -0.940  1.00  0.00     0.033 C 
HETATM   19  C9  UNL     1       2.982  -1.178   0.308  1.00  0.00     0.190 C 
ATOM     20  H12 UNL     1       4.656  -0.693   1.525  1.00  0.00     0.278 HD
ATOM     21  H11 UNL     1       3.505  -1.147   2.368  1.00  0.00     0.278 HD
ENDBRANCH   1  12
TORSDOF 5
