REMARK  4 active torsions:
REMARK  status: ('A' for Active; 'I' for Inactive)
REMARK    1  A    between atoms: C2_2  and  C3_3 
REMARK    2  A    between atoms: C3_3  and  C4_4 
REMARK    3  A    between atoms: C4_4  and  N1_5 
REMARK       I    between atoms: C5_7  and  N2_8 
REMARK       I    between atoms: C5_7  and  N7_25 
REMARK    4  A    between atoms: N2_8  and  C6_10 
ROOT
HETATM    1  C6  UNL     1       1.391   0.137   0.050  1.00  0.00     0.165 A 
HETATM    2  N3  UNL     1       1.397   1.239  -0.719  1.00  0.00    -0.282 N 
ATOM      3  H3  UNL     1       0.563   1.771  -0.967  1.00  0.00     0.188 HD
HETATM    4  N4  UNL     1       2.606   1.544  -1.109  1.00  0.00    -0.292 N 
ATOM      5  H4  UNL     1       2.855   2.338  -1.699  1.00  0.00     0.187 HD
HETATM    6  C7  UNL     1       3.468   0.645  -0.609  1.00  0.00     0.147 A 
HETATM    7  C8  UNL     1       4.841   0.467  -0.687  1.00  0.00     0.281 A 
HETATM    8  O1  UNL     1       5.506   1.307  -1.370  1.00  0.00    -0.265 OA
HETATM    9  N5  UNL     1       5.463  -0.553  -0.067  1.00  0.00    -0.269 N 
HETATM   10  C9  UNL     1       6.891  -0.732  -0.153  1.00  0.00     0.164 C 
HETATM   11  C10 UNL     1       4.709  -1.418   0.646  1.00  0.00     0.329 A 
HETATM   12  O2  UNL     1       5.260  -2.386   1.240  1.00  0.00    -0.246 OA
HETATM   13  N6  UNL     1       3.373  -1.263   0.734  1.00  0.00    -0.303 N 
ATOM     14  H6  UNL     1       2.840  -1.938   1.282  1.00  0.00     0.171 HD
HETATM   15  C11 UNL     1       2.710  -0.259   0.132  1.00  0.00     0.116 A 
ENDROOT
BRANCH   1  16
HETATM   16  N2  UNL     1       0.425  -0.476   0.619  1.00  0.00    -0.173 N 
HETATM   17  C5  UNL     1      -0.925  -0.101   0.556  1.00  0.00     0.675 C 
HETATM   18  N1  UNL     1      -1.721  -0.607  -0.291  1.00  0.00    -0.226 N 
HETATM   19  N7  UNL     1      -1.404   0.870   1.467  1.00  0.00    -0.231 N 
ATOM     20  H1  UNL     1      -1.328  -1.302  -0.926  1.00  0.00     0.177 HD
HETATM   21  C12 UNL     1      -1.782   2.215   1.093  1.00  0.00     0.165 C 
ATOM     22  H7  UNL     1      -1.488   0.605   2.448  1.00  0.00     0.177 HD
ATOM     23  H2  UNL     1       0.655  -1.307   1.164  1.00  0.00     0.186 HD
BRANCH  18  24
HETATM   24  C4  UNL     1      -3.105  -0.309  -0.452  1.00  0.00     0.138 C 
BRANCH  24  25
HETATM   25  C3  UNL     1      -3.968  -0.811   0.673  1.00  0.00     0.020 C 
BRANCH  25  26
HETATM   26  C2  UNL     1      -5.423  -0.486   0.482  1.00  0.00    -0.003 C 
HETATM   27  C1  UNL     1      -6.013  -1.067  -0.756  1.00  0.00     0.005 C 
ENDBRANCH  25  26
ENDBRANCH  24  25
ENDBRANCH  18  24
ENDBRANCH   1  16
TORSDOF 4
