REMARK  7 active torsions:
REMARK  status: ('A' for Active; 'I' for Inactive)
REMARK    1  A    between atoms: N1_2  and  C2_4 
REMARK    2  A    between atoms: C2_4  and  N2_6 
REMARK    3  A    between atoms: N2_6  and  C3_8 
REMARK    4  A    between atoms: C5_10  and  N3_11 
REMARK    5  A    between atoms: N3_11  and  S2_13 
REMARK    6  A    between atoms: C7_19  and  N5_20 
REMARK    7  A    between atoms: N5_20  and  C8_22 
ROOT
HETATM    1  C3  UNL     1       1.686  -0.189   0.177  1.00  0.00     0.126 A 
HETATM    2  C4  UNL     1       1.078   0.797  -0.565  1.00  0.00     0.098 A 
HETATM    3  C5  UNL     1      -0.309   0.785  -0.654  1.00  0.00     0.133 A 
HETATM    4  N4  UNL     1      -1.007  -0.175  -0.022  1.00  0.00    -0.176 N 
ATOM      5  H4  UNL     1      -2.024  -0.173  -0.094  1.00  0.00     0.186 HD
HETATM    6  C7  UNL     1      -0.412  -1.134   0.699  1.00  0.00     0.681 A 
HETATM    7  N6  UNL     1       0.943  -1.131   0.791  1.00  0.00    -0.177 N 
ATOM      8  H6  UNL     1       1.408  -1.857   1.336  1.00  0.00     0.186 HD
ENDROOT
BRANCH   1   9
HETATM    9  N2  UNL     1       2.954  -0.239   0.300  1.00  0.00    -0.319 N 
ATOM     10  H2  UNL     1       3.343  -0.996   0.862  1.00  0.00     0.169 HD
BRANCH   9  11
HETATM   11  C2  UNL     1       3.861   0.672  -0.281  1.00  0.00     0.172 C 
HETATM   12  S1  UNL     1       4.395   1.946   0.569  1.00  0.00    -0.041 SA
BRANCH  11  13
HETATM   13  N1  UNL     1       4.301   0.478  -1.590  1.00  0.00    -0.371 N 
HETATM   14  C1  UNL     1       3.834  -0.648  -2.352  1.00  0.00     0.148 C 
ATOM     15  H1  UNL     1       4.957   1.138  -2.008  1.00  0.00     0.161 HD
ENDBRANCH  11  13
ENDBRANCH   9  11
ENDBRANCH   1   9
BRANCH   3  16
HETATM   16  N3  UNL     1      -0.975   1.785  -1.409  1.00  0.00    -0.270 N 
ATOM     17  H3  UNL     1      -1.160   1.626  -2.399  1.00  0.00     0.180 HD
BRANCH  16  18
HETATM   18  S2  UNL     1      -1.472   3.250  -0.686  1.00  0.00     0.228 S 
HETATM   19  C6  UNL     1      -0.035   4.110  -0.080  1.00  0.00     0.186 C 
HETATM   20  O1  UNL     1      -2.145   4.134  -1.678  1.00  0.00    -0.206 OA
HETATM   21  O2  UNL     1      -2.387   2.956   0.480  1.00  0.00    -0.206 OA
ENDBRANCH  16  18
ENDBRANCH   3  16
BRANCH   6  22
HETATM   22  N5  UNL     1      -1.082  -2.036   1.291  1.00  0.00    -0.222 N 
ATOM     23  H5  UNL     1      -0.570  -2.739   1.825  1.00  0.00     0.178 HD
BRANCH  22  24
HETATM   24  C8  UNL     1      -2.506  -2.129   1.257  1.00  0.00     0.091 C 
HETATM   25  C9  UNL     1      -2.978  -3.093   2.347  1.00  0.00     0.032 C 
HETATM   26  C10 UNL     1      -2.921  -2.716  -0.095  1.00  0.00     0.032 C 
ENDBRANCH  22  24
ENDBRANCH   6  22
TORSDOF 7
