REMARK  3 active torsions:
REMARK  status: ('A' for Active; 'I' for Inactive)
REMARK    1  A    between atoms: C6_13  and  N4_14 
REMARK    2  A    between atoms: N4_14  and  O2_16 
REMARK    3  A    between atoms: C10_23  and  N6_24 
ROOT
HETATM    1  C1  UNL     1      -3.262  -2.237   0.078  1.00  0.00     0.161 C 
HETATM    2  N1  UNL     1      -1.796  -2.222   0.130  1.00  0.00    -0.303 N 
HETATM    3  C2  UNL     1      -1.196  -3.503   0.166  1.00  0.00     0.328 A 
HETATM    4  O1  UNL     1      -1.904  -4.570   0.153  1.00  0.00    -0.246 OA
HETATM    5  N2  UNL     1       0.209  -3.629   0.219  1.00  0.00    -0.296 N 
ATOM      6  H2  UNL     1       0.668  -4.540   0.246  1.00  0.00     0.172 HD
HETATM    7  C3  UNL     1       0.934  -2.439   0.232  1.00  0.00     0.114 A 
HETATM    8  N3  UNL     1       2.224  -2.544   0.316  1.00  0.00    -0.386 N 
ATOM      9  H31 UNL     1       2.755  -1.673   0.326  1.00  0.00     0.157 HD
ATOM     10  H32 UNL     1       2.605  -3.489   0.361  1.00  0.00     0.157 HD
HETATM   11  C4  UNL     1       0.375  -1.052   0.166  1.00  0.00     0.137 A 
HETATM   12  C5  UNL     1       1.157  -0.373  -0.905  1.00  0.00     0.077 C 
HETATM   13  C6  UNL     1       2.506   0.029  -0.330  1.00  0.00     0.180 C 
HETATM   14  C8  UNL     1       2.280  -0.068   1.109  1.00  0.00     0.239 C 
HETATM   15  O3  UNL     1       3.095   0.115   2.059  1.00  0.00    -0.272 OA
HETATM   16  N5  UNL     1       0.905  -0.429   1.389  1.00  0.00    -0.338 N 
ATOM     17  H5  UNL     1       0.402  -0.280   2.264  1.00  0.00     0.164 HD
HETATM   18  C9  UNL     1      -1.077  -0.951   0.140  1.00  0.00     0.075 A 
HETATM   19  C10 UNL     1      -1.839   0.102   0.112  1.00  0.00     0.229 C 
ENDROOT
BRANCH  13  20
HETATM   20  N4  UNL     1       2.871   1.406  -0.720  1.00  0.00    -0.190 NA
HETATM   21  C7  UNL     1       4.164   1.651  -0.108  1.00  0.00     0.144 C 
BRANCH  20  22
HETATM   22  O2  UNL     1       3.073   1.352  -2.064  1.00  0.00    -0.313 OA
ATOM     23  H2  UNL     1       3.308   2.238  -2.315  1.00  0.00     0.237 HD
ENDBRANCH  20  22
ENDBRANCH  13  20
BRANCH  19  24
HETATM   24  N6  UNL     1      -1.754   1.475   0.106  1.00  0.00    -0.057 N 
HETATM   25  C11 UNL     1      -3.036   2.058   0.696  1.00  0.00     0.277 C 
HETATM   26  C12 UNL     1      -0.767   2.206   0.788  1.00  0.00     0.277 C 
HETATM   27  C13 UNL     1      -1.892   2.036  -1.264  1.00  0.00     0.277 C 
ENDBRANCH  19  24
TORSDOF 3
