REMARK  4 active torsions:
REMARK  status: ('A' for Active; 'I' for Inactive)
REMARK       I    between atoms: N2_5  and  C4_6 
REMARK       I    between atoms: C4_6  and  N3_8 
REMARK    1  A    between atoms: N3_8  and  N4_10 
REMARK       I    between atoms: N4_10  and  C5_12 
REMARK    2  A    between atoms: C5_12  and  C6_14 
REMARK    3  A    between atoms: C6_14  and  N5_15 
REMARK    4  A    between atoms: C6_14  and  C8_19 
REMARK       I    between atoms: N5_15  and  C7_16 
ROOT
HETATM    1  N4  UNL     1       0.070  -0.908  -0.980  1.00  0.00    -0.263 N 
ATOM      2  H4  UNL     1      -0.312  -1.065  -1.912  1.00  0.00     0.190 HD
HETATM    3  C5  UNL     1      -0.767  -1.270   0.043  1.00  0.00     0.272 C 
HETATM    4  O2  UNL     1      -0.466  -1.172   1.246  1.00  0.00    -0.268 OA
ENDROOT
BRANCH   3   5
HETATM    5  C6  UNL     1      -2.135  -1.822  -0.334  1.00  0.00     0.265 C 
BRANCH   5   6
HETATM    6  N5  UNL     1      -2.483  -2.780   0.616  1.00  0.00    -0.384 NA
HETATM    7  C7  UNL     1      -2.817  -3.704   1.530  1.00  0.00     0.401 C 
HETATM    8  N6  UNL     1      -3.699  -3.356   2.632  1.00  0.00    -0.025 NA
HETATM    9  O3  UNL     1      -2.432  -4.929   1.550  1.00  0.00    -0.234 OA
ENDBRANCH   5   6
BRANCH   5  10
HETATM   10  C8  UNL     1      -3.131  -0.679  -0.456  1.00  0.00     0.031 C 
HETATM   11  C9  UNL     1      -3.166   0.041   0.855  1.00  0.00     0.008 C 
HETATM   12  C10 UNL     1      -4.518   0.594   1.195  1.00  0.00     0.001 C 
HETATM   13  C11 UNL     1      -4.842   1.880   0.502  1.00  0.00     0.000 C 
HETATM   14  C12 UNL     1      -3.847   2.251  -0.545  1.00  0.00     0.000 C 
HETATM   15  C13 UNL     1      -3.807   1.396  -1.753  1.00  0.00     0.001 C 
HETATM   16  C14 UNL     1      -3.073   0.110  -1.674  1.00  0.00     0.008 C 
ENDBRANCH   5  10
ENDBRANCH   3   5
BRANCH   1  17
HETATM   17  N3  UNL     1       1.326  -0.374  -0.969  1.00  0.00    -0.249 N 
HETATM   18  C4  UNL     1       2.138   0.099   0.075  1.00  0.00     0.337 C 
HETATM   19  N2  UNL     1       3.448   0.635  -0.137  1.00  0.00    -0.330 N 
HETATM   20  O1  UNL     1       1.776   0.089   1.285  1.00  0.00    -0.245 OA
HETATM   21  C3  UNL     1       4.213   1.079   1.050  1.00  0.00     0.147 C 
HETATM   22  C15 UNL     1       4.116   0.799  -1.378  1.00  0.00     0.147 C 
HETATM   23  C2  UNL     1       5.453   0.215   1.058  1.00  0.00     0.136 C 
HETATM   24  N1  UNL     1       6.202   0.439  -0.134  1.00  0.00    -0.414 N 
HETATM   25  C1  UNL     1       7.019   1.611  -0.103  1.00  0.00     0.143 C 
HETATM   26  C16 UNL     1       5.519   0.214  -1.362  1.00  0.00     0.136 C 
ATOM     27  H3  UNL     1       1.755  -0.306  -1.892  1.00  0.00     0.192 HD
ENDBRANCH   1  17
TORSDOF 4
