REMARK  4 active torsions:
REMARK  status: ('A' for Active; 'I' for Inactive)
REMARK    1  A    between atoms: C8_9  and  O2_10 
REMARK    2  A    between atoms: O2_10  and  C9_11 
REMARK    3  A    between atoms: C9_11  and  O3_12 
REMARK    4  A    between atoms: N1_14  and  O4_16 
ROOT
HETATM    1  C1  UNL     1      -3.232  -0.156  -0.178  1.00  0.00     0.046 C 
HETATM    2  C2  UNL     1      -1.778   0.215  -0.005  1.00  0.00     0.060 C 
HETATM    3  C3  UNL     1      -1.574   1.551  -0.680  1.00  0.00     0.046 C 
HETATM    4  O1  UNL     1      -1.483   0.221   1.325  1.00  0.00    -0.351 OA
HETATM    5  C4  UNL     1      -0.904  -0.954   1.709  1.00  0.00     0.264 C 
HETATM    6  C5  UNL     1      -0.986  -1.906   0.506  1.00  0.00     0.068 C 
HETATM    7  C6  UNL     1      -0.851  -0.853  -0.575  1.00  0.00     0.029 C 
HETATM    8  C7  UNL     1       0.550  -0.296  -0.464  1.00  0.00     0.069 C 
HETATM    9  C8  UNL     1       1.198  -0.483   0.840  1.00  0.00     0.273 C 
HETATM   10  O5  UNL     1       0.435  -0.759   1.919  1.00  0.00    -0.331 OA
ENDROOT
BRANCH   9  11
HETATM   11  O2  UNL     1       1.957   0.703   1.133  1.00  0.00    -0.283 OA
BRANCH  11  12
HETATM   12  C9  UNL     1       2.980   1.080   0.256  1.00  0.00     0.284 C 
HETATM   13  N1  UNL     1       3.561   0.133  -0.371  1.00  0.00    -0.227 N 
ATOM     14  H1  UNL     1       3.245  -0.821  -0.194  1.00  0.00     0.198 HD
BRANCH  12  15
HETATM   15  O3  UNL     1       3.321   2.433   0.099  1.00  0.00    -0.325 OA
ATOM     16  H3  UNL     1       4.016   2.689  -0.496  1.00  0.00     0.221 HD
ENDBRANCH  12  15
BRANCH  13  17
HETATM   17  O4  UNL     1       4.583   0.315  -1.268  1.00  0.00    -0.286 OA
ATOM     18  H4  UNL     1       5.016  -0.390  -1.735  1.00  0.00     0.244 HD
ENDBRANCH  13  17
ENDBRANCH  11  12
ENDBRANCH   9  11
TORSDOF 4
