REMARK  13 active torsions:
REMARK  status: ('A' for Active; 'I' for Inactive)
REMARK    1  A    between atoms: N1_7  and  C7_8 
REMARK    2  A    between atoms: C8_11  and  N3_12 
REMARK    3  A    between atoms: N3_12  and  C9_14 
REMARK    4  A    between atoms: C13_18  and  N4_19 
REMARK    5  A    between atoms: N4_19  and  C14_21 
REMARK    6  A    between atoms: C14_21  and  C15_22 
REMARK    7  A    between atoms: C15_22  and  C16_23 
REMARK    8  A    between atoms: C16_23  and  N5_24 
REMARK    9  A    between atoms: N6_27  and  C19_28 
REMARK   10  A    between atoms: C19_28  and  C20_29 
REMARK   11  A    between atoms: C20_29  and  C21_30 
REMARK   12  A    between atoms: C21_30  and  N7_31 
REMARK   13  A    between atoms: N7_31  and  C22_33 
ROOT
HETATM    1  C1  UNL     1      -8.269   2.015  -1.856  1.00  0.00     0.012 C 
HETATM    2  C2  UNL     1      -7.850   2.377  -0.774  1.00  0.00    -0.111 C 
HETATM    3  C3  UNL     1      -7.323   2.824   0.524  1.00  0.00     0.083 C 
HETATM    4  C4  UNL     1      -7.873   1.903   1.581  1.00  0.00     0.020 C 
HETATM    5  C5  UNL     1      -7.064   1.941   2.856  1.00  0.00     0.022 C 
HETATM    6  C6  UNL     1      -5.592   1.680   2.643  1.00  0.00     0.141 C 
HETATM    7  N1  UNL     1      -5.302   1.640   1.226  1.00  0.00    -0.216 N 
HETATM    8  C26 UNL     1      -5.816   2.726   0.417  1.00  0.00     0.158 C 
ENDROOT
BRANCH   7   9
HETATM    9  C7  UNL     1      -4.539   0.557   0.725  1.00  0.00     0.683 A 
HETATM   10  N2  UNL     1      -5.070  -0.629   0.378  1.00  0.00    -0.177 N 
HETATM   11  C8  UNL     1      -4.348  -1.655  -0.106  1.00  0.00     0.120 A 
ATOM     12  H2  UNL     1      -6.076  -0.757   0.488  1.00  0.00     0.185 HD
HETATM   13  C12 UNL     1      -2.976  -1.432  -0.240  1.00  0.00     0.097 A 
HETATM   14  C13 UNL     1      -2.402  -0.228   0.107  1.00  0.00     0.120 A 
HETATM   15  N8  UNL     1      -3.219   0.730   0.582  1.00  0.00    -0.177 N 
ATOM     16  H8  UNL     1      -2.814   1.629   0.845  1.00  0.00     0.185 HD
BRANCH  11  17
HETATM   17  N3  UNL     1      -4.861  -2.799  -0.434  1.00  0.00    -0.372 N 
ATOM     18  H3  UNL     1      -4.291  -3.562  -0.799  1.00  0.00     0.161 HD
BRANCH  17  19
HETATM   19  C9  UNL     1      -6.308  -2.932  -0.249  1.00  0.00     0.075 C 
HETATM   20  C10 UNL     1      -6.708  -4.390  -0.173  1.00  0.00     0.031 C 
HETATM   21  C11 UNL     1      -7.017  -2.198  -1.341  1.00  0.00     0.031 C 
ENDBRANCH  17  19
ENDBRANCH  11  17
BRANCH  14  22
HETATM   22  N4  UNL     1      -1.007   0.012  -0.031  1.00  0.00    -0.376 N 
ATOM     23  H4  UNL     1      -0.596   0.908   0.230  1.00  0.00     0.161 HD
BRANCH  22  24
HETATM   24  C14 UNL     1      -0.192  -1.064  -0.556  1.00  0.00     0.123 C 
BRANCH  24  25
HETATM   25  C15 UNL     1       1.247  -0.529  -0.602  1.00  0.00     0.050 C 
BRANCH  25  26
HETATM   26  C16 UNL     1       2.187  -1.571  -1.140  1.00  0.00     0.274 C 
BRANCH  26  27
HETATM   27  N5  UNL     1       3.513  -1.050  -1.177  1.00  0.00     0.091 N 
HETATM   28  C17 UNL     1       3.755  -0.005  -2.117  1.00  0.00     0.302 C 
HETATM   29  C18 UNL     1       4.483   1.176  -1.523  1.00  0.00     0.302 C 
HETATM   30  N6  UNL     1       5.660   0.802  -0.764  1.00  0.00     0.091 N 
HETATM   31  C24 UNL     1       5.481  -0.412  -0.027  1.00  0.00     0.302 C 
HETATM   32  C25 UNL     1       3.994  -0.767   0.136  1.00  0.00     0.302 C 
BRANCH  30  33
HETATM   33  C19 UNL     1       6.801   0.854  -1.615  1.00  0.00     0.274 C 
BRANCH  33  34
HETATM   34  C20 UNL     1       8.109   0.521  -0.985  1.00  0.00     0.050 C 
BRANCH  34  35
HETATM   35  C21 UNL     1       8.485   1.417   0.148  1.00  0.00     0.122 C 
BRANCH  35  36
HETATM   36  N7  UNL     1       9.769   1.092   0.718  1.00  0.00    -0.385 N 
ATOM     37  H7  UNL     1      10.545   1.741   0.587  1.00  0.00     0.160 HD
BRANCH  36  38
HETATM   38  C22 UNL     1       9.987  -0.090   1.448  1.00  0.00     0.069 C 
HETATM   39  C23 UNL     1      11.357  -0.382   2.020  1.00  0.00     0.081 C 
HETATM   40  S1  UNL     1       8.861  -1.222   1.761  1.00  0.00    -0.066 SA
ENDBRANCH  36  38
ENDBRANCH  35  36
ENDBRANCH  34  35
ENDBRANCH  33  34
ENDBRANCH  30  33
ENDBRANCH  26  27
ENDBRANCH  25  26
ENDBRANCH  24  25
ENDBRANCH  22  24
ENDBRANCH  14  22
ENDBRANCH   7   9
TORSDOF 13
