REMARK  12 active torsions:
REMARK  status: ('A' for Active; 'I' for Inactive)
REMARK    1  A    between atoms: C2_2  and  C3_3 
REMARK    2  A    between atoms: C3_3  and  C4_4 
REMARK    3  A    between atoms: C4_4  and  C5_5 
REMARK    4  A    between atoms: C5_5  and  C7_7 
REMARK    5  A    between atoms: C16_20  and  C17_21 
REMARK    6  A    between atoms: C17_21  and  C18_22 
REMARK    7  A    between atoms: C18_22  and  C19_23 
REMARK    8  A    between atoms: C20_28  and  O5_29 
REMARK    9  A    between atoms: C24_36  and  O6_37 
REMARK   10  A    between atoms: C25_39  and  C26_40 
REMARK   11  A    between atoms: C26_40  and  C27_41 
REMARK   12  A    between atoms: C30_46  and  O7_47 
ROOT
HETATM    1  C7  UNL     1      -2.836  -0.153  -1.332  1.00  0.00     0.072 C 
HETATM    2  C8  UNL     1      -1.664  -0.814  -0.683  1.00  0.00     0.115 C 
HETATM    3  C9  UNL     1      -0.698  -1.277  -1.694  1.00  0.00     0.218 C 
HETATM    4  O1  UNL     1      -1.090  -1.195  -2.913  1.00  0.00    -0.274 OA
HETATM    5  N1  UNL     1       0.589  -1.794  -1.516  1.00  0.00    -0.356 N 
ATOM      6  H1  UNL     1       1.296  -1.382  -2.125  1.00  0.00     0.162 HD
HETATM    7  C10 UNL     1       1.080  -2.784  -0.643  1.00  0.00     0.096 C 
HETATM    8  C11 UNL     1       0.168  -3.264   0.443  1.00  0.00     0.026 C 
HETATM    9  C12 UNL     1       1.090  -4.297   1.110  1.00  0.00     0.003 C 
HETATM   10  C13 UNL     1       2.502  -3.785   0.843  1.00  0.00     0.015 C 
HETATM   11  C14 UNL     1       2.316  -2.434   0.172  1.00  0.00     0.084 C 
HETATM   12  C15 UNL     1       3.391  -1.998  -0.711  1.00  0.00     0.177 C 
HETATM   13  O2  UNL     1       3.464  -2.693  -1.767  1.00  0.00    -0.291 OA
HETATM   14  C16 UNL     1       4.375  -0.937  -0.616  1.00  0.00     0.058 C 
HETATM   15  N2  UNL     1       4.056   0.325  -1.263  1.00  0.00    -0.339 N 
ATOM     16  H2  UNL     1       4.826   0.669  -1.837  1.00  0.00     0.167 HD
HETATM   17  C20 UNL     1       2.977   1.164  -1.291  1.00  0.00     0.144 C 
HETATM   18  C21 UNL     1       2.302   2.012  -0.285  1.00  0.00     0.089 C 
HETATM   19  C22 UNL     1       3.276   3.080   0.269  1.00  0.00     0.047 C 
HETATM   20  C23 UNL     1       1.735   1.349   0.899  1.00  0.00     0.047 C 
HETATM   21  N3  UNL     1       1.241   2.811  -0.898  1.00  0.00    -0.357 N 
ATOM     22  H3  UNL     1       1.581   3.626  -1.409  1.00  0.00     0.162 HD
HETATM   23  C24 UNL     1      -0.127   2.673  -0.916  1.00  0.00     0.135 C 
HETATM   24  C25 UNL     1      -1.164   2.786   0.112  1.00  0.00     0.158 C 
HETATM   25  N4  UNL     1      -2.444   2.176  -0.196  1.00  0.00    -0.362 N 
ATOM     26  H4  UNL     1      -3.173   2.462   0.458  1.00  0.00     0.162 HD
HETATM   27  C30 UNL     1      -2.917   1.310  -1.149  1.00  0.00     0.117 C 
ENDROOT
BRANCH   1  28
HETATM   28  C5  UNL     1      -4.155  -0.806  -0.893  1.00  0.00    -0.006 C 
HETATM   29  C6  UNL     1      -5.358  -0.084  -1.444  1.00  0.00     0.011 C 
BRANCH  28  30
HETATM   30  C4  UNL     1      -4.227  -2.235  -1.257  1.00  0.00     0.005 C 
BRANCH  30  31
HETATM   31  C3  UNL     1      -5.454  -2.902  -0.726  1.00  0.00     0.000 C 
BRANCH  31  32
HETATM   32  C2  UNL     1      -5.496  -2.814   0.772  1.00  0.00    -0.005 C 
HETATM   33  C1  UNL     1      -6.758  -3.538   1.297  1.00  0.00     0.005 C 
ENDBRANCH  31  32
ENDBRANCH  30  31
ENDBRANCH  28  30
ENDBRANCH   1  28
BRANCH  27  34
HETATM   34  O7  UNL     1      -3.593   1.859  -2.120  1.00  0.00    -0.349 OA
ATOM     35  H7  UNL     1      -3.645   2.800  -2.002  1.00  0.00     0.219 HD
ENDBRANCH  27  34
BRANCH  24  36
HETATM   36  C26 UNL     1      -1.497   4.291   0.295  1.00  0.00     0.037 C 
BRANCH  36  37
HETATM   37  C27 UNL     1      -0.365   5.127   0.732  1.00  0.00    -0.020 C 
HETATM   38  C28 UNL     1      -0.915   6.571   0.809  1.00  0.00     0.009 C 
HETATM   39  C29 UNL     1       0.075   4.815   2.168  1.00  0.00     0.009 C 
ENDBRANCH  36  37
ENDBRANCH  24  36
BRANCH  23  40
HETATM   40  O6  UNL     1      -0.646   2.385  -2.074  1.00  0.00    -0.348 OA
ATOM     41  H6  UNL     1      -1.591   2.290  -2.086  1.00  0.00     0.219 HD
ENDBRANCH  23  40
BRANCH  14  42
HETATM   42  C17 UNL     1       5.107  -0.723   0.669  1.00  0.00     0.071 C 
BRANCH  42  43
HETATM   43  C18 UNL     1       5.947  -1.856   1.159  1.00  0.00     0.119 C 
BRANCH  43  44
HETATM   44  C19 UNL     1       7.023  -2.269   0.236  1.00  0.00     0.172 C 
HETATM   45  O3  UNL     1       6.821  -3.156  -0.636  1.00  0.00    -0.648 OA
HETATM   46  O4  UNL     1       8.276  -1.660   0.342  1.00  0.00    -0.648 OA
ENDBRANCH  43  44
ENDBRANCH  42  43
ENDBRANCH  14  42
BRANCH  17  47
HETATM   47  O5  UNL     1       2.402   1.248  -2.463  1.00  0.00    -0.347 OA
ATOM     48  H5  UNL     1       1.652   1.831  -2.482  1.00  0.00     0.219 HD
ENDBRANCH  17  47
TORSDOF 12
