REMARK  6 active torsions:
REMARK  status: ('A' for Active; 'I' for Inactive)
REMARK    1  A    between atoms: O1_2  and  C2_3 
REMARK    2  A    between atoms: C2_3  and  C3_5 
REMARK    3  A    between atoms: C5_9  and  N2_10 
REMARK    4  A    between atoms: N2_10  and  C6_12 
REMARK    5  A    between atoms: C9_17  and  N4_18 
REMARK    6  A    between atoms: C11_27  and  N8_28 
ROOT
HETATM    1  C3  UNL     1       3.247   0.045   0.445  1.00  0.00     0.099 A 
HETATM    2  C4  UNL     1       2.572   0.198   1.634  1.00  0.00     0.127 A 
HETATM    3  N1  UNL     1       1.375   0.807   1.643  1.00  0.00    -0.200 N 
ATOM      4  H1  UNL     1       0.882   0.917   2.529  1.00  0.00     0.183 HD
HETATM    5  C5  UNL     1       0.806   1.277   0.518  1.00  0.00     0.698 A 
HETATM    6  N7  UNL     1       1.478   1.118  -0.632  1.00  0.00    -0.175 N 
ATOM      7  H7  UNL     1       1.058   1.469  -1.493  1.00  0.00     0.186 HD
HETATM    8  C11 UNL     1       2.674   0.520  -0.702  1.00  0.00     0.132 A 
ENDROOT
BRANCH   5   9
HETATM    9  N2  UNL     1      -0.468   1.915   0.568  1.00  0.00    -0.022 N 
ATOM     10  H2  UNL     1      -0.520   2.909   0.790  1.00  0.00     0.203 HD
BRANCH   9  11
HETATM   11  C6  UNL     1      -1.567   1.256   0.336  1.00  0.00     0.698 A 
HETATM   12  N3  UNL     1      -2.747   1.891   0.392  1.00  0.00    -0.193 N 
HETATM   13  C7  UNL     1      -3.915   1.227   0.154  1.00  0.00     0.059 A 
ATOM     14  H3  UNL     1      -2.772   2.886   0.616  1.00  0.00     0.184 HD
HETATM   15  C8  UNL     1      -5.228   1.925   0.211  1.00  0.00     0.071 C 
HETATM   16  C9  UNL     1      -3.919  -0.113  -0.151  1.00  0.00     0.167 A 
HETATM   17  C10 UNL     1      -2.701  -0.756  -0.206  1.00  0.00     0.166 A 
HETATM   18  N5  UNL     1      -2.685  -2.140  -0.520  1.00  0.00    -0.079 NA
HETATM   19  N6  UNL     1      -1.578  -0.055   0.037  1.00  0.00    -0.176 N 
ATOM     20  H6  UNL     1      -0.685  -0.546  -0.008  1.00  0.00     0.185 HD
BRANCH  16  21
HETATM   21  N4  UNL     1      -5.149  -0.776  -0.394  1.00  0.00    -0.110 N 
HETATM   22  O3  UNL     1      -5.822  -0.623  -1.432  1.00  0.00    -0.532 OA
HETATM   23  O4  UNL     1      -5.675  -1.651   0.542  1.00  0.00    -0.532 OA
ENDBRANCH  16  21
ENDBRANCH   9  11
ENDBRANCH   5   9
BRANCH   8  24
HETATM   24  N8  UNL     1       3.304   0.380  -1.845  1.00  0.00    -0.384 N 
ATOM     25  H82 UNL     1       4.215  -0.076  -1.898  1.00  0.00     0.157 HD
ATOM     26  H81 UNL     1       2.877   0.734  -2.701  1.00  0.00     0.157 HD
ENDBRANCH   8  24
BRANCH   1  27
HETATM   27  C2  UNL     1       4.534  -0.604   0.415  1.00  0.00     0.298 C 
HETATM   28  O2  UNL     1       5.046  -1.054   1.451  1.00  0.00    -0.259 OA
BRANCH  27  29
HETATM   29  O1  UNL     1       5.249  -0.752  -0.767  1.00  0.00    -0.322 OA
HETATM   30  C1  UNL     1       6.525  -1.398  -0.780  1.00  0.00     0.213 C 
ENDBRANCH  27  29
ENDBRANCH   1  27
TORSDOF 6
