REMARK  7 active torsions:
REMARK  status: ('A' for Active; 'I' for Inactive)
REMARK    1  A    between atoms: N1_1  and  C1_5 
REMARK    2  A    between atoms: C2_6  and  O1_7 
REMARK    3  A    between atoms: C3_9  and  O2_10 
REMARK    4  A    between atoms: N2_13  and  C5_14 
REMARK    5  A    between atoms: C5_14  and  C6_15 
REMARK    6  A    between atoms: C6_15  and  C7_16 
REMARK    7  A    between atoms: C7_16  and  C8_17 
ROOT
HETATM    1  C1  UNL     1      -1.588  -0.296  -1.114  1.00  0.00     0.448 C 
HETATM    2  C2  UNL     1      -2.640   0.269  -0.235  1.00  0.00     0.209 C 
HETATM    3  C3  UNL     1      -2.320  -0.176   1.155  1.00  0.00     0.179 C 
HETATM    4  C4  UNL     1      -0.998  -0.885   1.074  1.00  0.00     0.309 C 
HETATM    5  N2  UNL     1      -0.487  -0.777  -0.279  1.00  0.00     0.124 N 
ENDROOT
BRANCH   5   6
HETATM    6  C5  UNL     1       0.567   0.214  -0.398  1.00  0.00     0.275 C 
BRANCH   6   7
HETATM    7  C6  UNL     1       1.890  -0.251   0.167  1.00  0.00     0.031 C 
BRANCH   7   8
HETATM    8  C7  UNL     1       2.841   0.931  -0.017  1.00  0.00     0.012 C 
BRANCH   8   9
HETATM    9  C8  UNL     1       4.232   0.645   0.444  1.00  0.00     0.085 C 
HETATM   10 BR1  UNL     1       5.291   2.223   0.137  1.00  0.00    -0.097 Br
ENDBRANCH   8   9
ENDBRANCH   7   8
ENDBRANCH   6   7
ENDBRANCH   5   6
BRANCH   1  11
HETATM   11  N1  UNL     1      -2.056  -1.382  -1.977  1.00  0.00    -0.045 N 
ATOM     12  H13 UNL     1      -2.493  -2.118  -1.422  1.00  0.00     0.277 HD
ATOM     13  H12 UNL     1      -2.860  -1.081  -2.528  1.00  0.00     0.277 HD
ATOM     14  H11 UNL     1      -1.332  -1.771  -2.582  1.00  0.00     0.277 HD
ENDBRANCH   1  11
BRANCH   2  15
HETATM   15  O1  UNL     1      -2.731   1.680  -0.304  1.00  0.00    -0.389 OA
ATOM     16  H1  UNL     1      -3.405   2.042   0.259  1.00  0.00     0.210 HD
ENDBRANCH   2  15
BRANCH   3  17
HETATM   17  O2  UNL     1      -3.365  -1.009   1.603  1.00  0.00    -0.391 OA
ATOM     18  H2  UNL     1      -3.162  -1.292   2.487  1.00  0.00     0.210 HD
ENDBRANCH   3  17
TORSDOF 7
