REMARK  3 active torsions:
REMARK  status: ('A' for Active; 'I' for Inactive)
REMARK    1  A    between atoms: C2_2  and  N1_3 
REMARK    2  A    between atoms: N1_3  and  C3_5 
REMARK    3  A    between atoms: C3_5  and  C4_7 
ROOT
HETATM    1  C4  UNL     1       0.019  -0.278   0.811  1.00  0.00     0.047 C 
HETATM    2  C5  UNL     1      -0.240   0.733  -0.236  1.00  0.00     0.011 C 
HETATM    3  C6  UNL     1      -1.437   0.540  -1.095  1.00  0.00     0.001 C 
HETATM    4  C7  UNL     1      -2.630  -0.079  -0.443  1.00  0.00     0.000 C 
HETATM    5  C8  UNL     1      -2.390  -0.086   1.050  1.00  0.00     0.001 C 
HETATM    6  C9  UNL     1      -1.205  -1.043   1.249  1.00  0.00     0.011 C 
ENDROOT
BRANCH   1   7
HETATM    7  C3  UNL     1       1.104  -1.236   0.537  1.00  0.00     0.081 C 
HETATM    8  S1  UNL     1       0.788  -2.832   0.291  1.00  0.00    -0.065 SA
BRANCH   7   9
HETATM    9  N1  UNL     1       2.454  -0.801   0.478  1.00  0.00    -0.361 N 
ATOM     10  H1  UNL     1       3.204  -1.464   0.284  1.00  0.00     0.165 HD
BRANCH   9  11
HETATM   11  C2  UNL     1       2.744   0.576   0.694  1.00  0.00     0.078 C 
HETATM   12  C1  UNL     1       3.665   1.169  -0.039  1.00  0.00     0.029 C 
ENDBRANCH   9  11
ENDBRANCH   7   9
ENDBRANCH   1   7
TORSDOF 3
