REMARK  2 active torsions:
REMARK  status: ('A' for Active; 'I' for Inactive)
REMARK    1  A    between atoms: C4_4  and  N1_5 
REMARK    2  A    between atoms: N1_5  and  C5_7 
ROOT
HETATM    1  C1  UNL     1      -3.273   0.010  -0.017  1.00  0.00     0.000 C 
HETATM    2  C2  UNL     1      -2.323   0.529  -1.042  1.00  0.00     0.002 C 
HETATM    3  C3  UNL     1      -1.088   1.082  -0.329  1.00  0.00     0.024 C 
HETATM    4  C4  UNL     1      -0.437   0.087   0.569  1.00  0.00     0.077 C 
HETATM    5  C9  UNL     1      -1.361  -0.780   1.364  1.00  0.00     0.024 C 
HETATM    6  C10 UNL     1      -2.599  -1.195   0.650  1.00  0.00     0.002 C 
ENDROOT
BRANCH   4   7
HETATM    7  N1  UNL     1       0.595  -0.601  -0.105  1.00  0.00    -0.413 N 
ATOM      8  H1  UNL     1       0.531  -1.605  -0.276  1.00  0.00     0.154 HD
BRANCH   7   9
HETATM    9  C5  UNL     1       1.720   0.140  -0.537  1.00  0.00     0.077 C 
HETATM   10  C6  UNL     1       2.552   0.765   0.575  1.00  0.00     0.025 C 
HETATM   11  C7  UNL     1       3.776   0.375  -0.210  1.00  0.00     0.004 C 
HETATM   12  C8  UNL     1       2.943  -0.665  -0.913  1.00  0.00     0.025 C 
ENDBRANCH   7   9
ENDBRANCH   4   7
TORSDOF 2
