REMARK  10 active torsions:
REMARK  status: ('A' for Active; 'I' for Inactive)
REMARK    1  A    between atoms: C2_2  and  N1_4 
REMARK    2  A    between atoms: N1_4  and  C4_5 
REMARK    3  A    between atoms: N1_4  and  C11_13 
REMARK    4  A    between atoms: C4_5  and  C5_6 
REMARK    5  A    between atoms: C11_13  and  N2_15 
REMARK    6  A    between atoms: N2_15  and  N3_17 
REMARK    7  A    between atoms: C12_19  and  C13_20 
REMARK    8  A    between atoms: C12_19  and  C19_26 
REMARK    9  A    between atoms: N4_29  and  C22_30 
REMARK   10  A    between atoms: C22_30  and  O1_31 
ROOT
HETATM    1  N3  UNL     1       0.784   1.361   0.129  1.00  0.00    -0.297 N 
ATOM      2  H3  UNL     1       0.559   2.354   0.198  1.00  0.00     0.187 HD
HETATM    3  C12 UNL     1       1.999   1.077   0.451  1.00  0.00     0.068 C 
ENDROOT
BRANCH   1   4
HETATM    4  N2  UNL     1      -0.250   0.591  -0.283  1.00  0.00    -0.276 N 
ATOM      5  H2  UNL     1      -0.407  -0.300   0.188  1.00  0.00     0.189 HD
BRANCH   4   6
HETATM    6  C11 UNL     1      -1.147   0.967  -1.359  1.00  0.00     0.189 C 
HETATM    7  S1  UNL     1      -0.803   2.396  -2.047  1.00  0.00    -0.039 SA
BRANCH   6   8
HETATM    8  N1  UNL     1      -2.214   0.171  -1.798  1.00  0.00    -0.349 N 
BRANCH   8   9
HETATM    9  C2  UNL     1      -3.135   0.489  -2.823  1.00  0.00     0.079 C 
HETATM   10  C1  UNL     1      -3.184   1.866  -3.386  1.00  0.00     0.032 C 
HETATM   11  C3  UNL     1      -4.566  -0.000  -2.574  1.00  0.00     0.032 C 
ENDBRANCH   8   9
BRANCH   8  12
HETATM   12  C4  UNL     1      -2.322  -1.132  -1.105  1.00  0.00     0.167 C 
BRANCH  12  13
HETATM   13  C5  UNL     1      -3.105  -1.045   0.135  1.00  0.00    -0.002 A 
HETATM   14  C6  UNL     1      -3.591   0.158   0.593  1.00  0.00     0.012 A 
HETATM   15  C7  UNL     1      -4.309   0.235   1.786  1.00  0.00     0.001 A 
HETATM   16  C8  UNL     1      -4.549  -0.885   2.532  1.00  0.00     0.003 A 
HETATM   17  C9  UNL     1      -4.077  -2.102   2.103  1.00  0.00     0.043 A 
HETATM   18  C10 UNL     1      -3.371  -2.157   0.923  1.00  0.00     0.124 A 
HETATM   19  F1  UNL     1      -2.902  -3.376   0.499  1.00  0.00    -0.205 F 
ENDBRANCH  12  13
ENDBRANCH   8  12
ENDBRANCH   6   8
ENDBRANCH   4   6
ENDBRANCH   1   4
BRANCH   3  20
HETATM   20  C13 UNL     1       2.780   2.257   0.847  1.00  0.00    -0.007 A 
HETATM   21  C14 UNL     1       4.144   2.294   0.897  1.00  0.00     0.014 A 
HETATM   22  C15 UNL     1       4.858   3.420   1.345  1.00  0.00     0.001 A 
HETATM   23  C16 UNL     1       4.168   4.540   1.752  1.00  0.00     0.000 A 
HETATM   24  C17 UNL     1       2.782   4.520   1.705  1.00  0.00     0.001 A 
HETATM   25  C18 UNL     1       2.108   3.410   1.265  1.00  0.00     0.014 A 
ENDBRANCH   3  20
BRANCH   3  26
HETATM   26  C19 UNL     1       2.601  -0.234   0.396  1.00  0.00    -0.005 A 
HETATM   27  C20 UNL     1       2.120  -1.165  -0.487  1.00  0.00     0.031 A 
HETATM   28  C21 UNL     1       2.591  -2.459  -0.475  1.00  0.00     0.093 A 
HETATM   29  N4  UNL     1       3.530  -2.856   0.390  1.00  0.00    -0.345 N 
HETATM   30  C23 UNL     1       4.016  -1.961   1.263  1.00  0.00     0.093 A 
HETATM   31  C24 UNL     1       3.566  -0.645   1.285  1.00  0.00     0.031 A 
BRANCH  29  32
HETATM   32  C22 UNL     1       4.016  -4.237   0.383  1.00  0.00     0.294 C 
BRANCH  32  33
HETATM   33  O1  UNL     1       3.277  -5.048   1.221  1.00  0.00    -0.382 OA
ATOM     34  H1  UNL     1       3.592  -5.944   1.216  1.00  0.00     0.211 HD
ENDBRANCH  32  33
ENDBRANCH  29  32
ENDBRANCH   3  26
TORSDOF 10
