REMARK  5 active torsions:
REMARK  status: ('A' for Active; 'I' for Inactive)
REMARK    1  A    between atoms: N2_4  and  N3_6 
REMARK    2  A    between atoms: N3_6  and  C1_8 
REMARK    3  A    between atoms: N4_9  and  C2_11 
REMARK    4  A    between atoms: N5_12  and  C3_14 
REMARK    5  A    between atoms: C3_14  and  C4_15 
ROOT
HETATM    1  C1  UNL     1       2.306   0.727  -0.412  1.00  0.00     0.199 C 
HETATM    2  N4  UNL     1       1.062   0.433  -0.553  1.00  0.00    -0.348 N 
ATOM      3  H4  UNL     1       0.395   1.179  -0.747  1.00  0.00     0.167 HD
ENDROOT
BRANCH   2   4
HETATM    4  C2  UNL     1       0.592  -0.905  -0.445  1.00  0.00     0.176 C 
HETATM    5  N5  UNL     1      -0.435  -1.250   0.238  1.00  0.00    -0.385 N 
ATOM      6  H5  UNL     1      -0.678  -2.241   0.242  1.00  0.00     0.160 HD
BRANCH   5   7
HETATM    7  C3  UNL     1      -1.271  -0.372   0.995  1.00  0.00     0.135 C 
BRANCH   7   8
HETATM    8  C4  UNL     1      -2.642  -0.220   0.353  1.00  0.00     0.080 A 
HETATM    9  C5  UNL     1      -3.472   0.671   1.133  1.00  0.00     0.071 A 
HETATM   10  N6  UNL     1      -3.546   1.517   0.244  1.00  0.00    -0.381 N 
HETATM   11  C6  UNL     1      -2.774   0.829  -0.658  1.00  0.00     0.071 A 
ATOM     12  H6  UNL     1      -4.019   2.420   0.194  1.00  0.00     0.164 HD
ENDBRANCH   7   8
ENDBRANCH   5   7
ENDBRANCH   2   4
BRANCH   1  13
HETATM   13  N3  UNL     1       3.234  -0.304  -0.142  1.00  0.00    -0.282 N 
ATOM     14  H3  UNL     1       2.975  -1.068   0.482  1.00  0.00     0.189 HD
BRANCH  13  15
HETATM   15  N2  UNL     1       4.510  -0.283  -0.727  1.00  0.00    -0.248 N 
HETATM   16  N1  UNL     1       5.311  -1.245  -0.635  1.00  0.00    -0.331 N 
ATOM     17  H12 UNL     1       5.007  -2.066  -0.112  1.00  0.00     0.178 HD
ATOM     18  H11 UNL     1       6.238  -1.230  -1.060  1.00  0.00     0.178 HD
ATOM     19  H2  UNL     1       4.797   0.546  -1.247  1.00  0.00     0.207 HD
ENDBRANCH  13  15
ENDBRANCH   1  13
TORSDOF 5
