REMARK  9 active torsions:
REMARK  status: ('A' for Active; 'I' for Inactive)
REMARK    1  A    between atoms: N1_6  and  C4_7 
REMARK    2  A    between atoms: C4_7  and  C5_8 
REMARK    3  A    between atoms: C5_8  and  N2_9 
REMARK    4  A    between atoms: N2_9  and  C8_12 
REMARK    5  A    between atoms: C8_12  and  C9_13 
REMARK    6  A    between atoms: C9_13  and  C10_14 
REMARK    7  A    between atoms: C10_14  and  N3_15 
REMARK    8  A    between atoms: N3_15  and  C11_18 
REMARK    9  A    between atoms: C21_31  and  C22_32 
ROOT
HETATM    1  C1  UNL     1      -6.681   2.023   0.904  1.00  0.00     0.011 C 
HETATM    2  C2  UNL     1      -5.461   2.301   0.005  1.00  0.00     0.008 C 
HETATM    3  C3  UNL     1      -4.257   2.289   0.820  1.00  0.00     0.144 C 
HETATM    4  S1  UNL     1      -2.728   1.751   0.118  1.00  0.00     0.210 S 
HETATM    5  O1  UNL     1      -1.953   2.802  -0.595  1.00  0.00    -0.229 OA
HETATM    6  N1  UNL     1      -2.769   0.205  -0.622  1.00  0.00     0.013 N 
HETATM    7  C17 UNL     1      -3.349   0.286  -1.889  1.00  0.00     0.255 C 
HETATM    8  C18 UNL     1      -4.399   1.345  -2.068  1.00  0.00     0.043 C 
HETATM    9  C19 UNL     1      -5.549   1.357  -1.151  1.00  0.00     0.084 C 
HETATM   10  C20 UNL     1      -6.051   0.017  -0.750  1.00  0.00     0.223 C 
HETATM   11  O2  UNL     1      -7.324  -0.091  -0.669  1.00  0.00    -0.273 OA
HETATM   12  N4  UNL     1      -5.511  -1.242  -0.389  1.00  0.00    -0.345 N 
ATOM     13  H4  UNL     1      -6.243  -1.909  -0.144  1.00  0.00     0.163 HD
HETATM   14  C21 UNL     1      -4.172  -1.841  -0.274  1.00  0.00     0.212 C 
HETATM   15  C23 UNL     1      -3.377  -0.685   0.337  1.00  0.00     0.290 C 
ENDROOT
BRANCH   6  16
HETATM   16  C4  UNL     1      -1.410  -0.394  -0.732  1.00  0.00     0.282 C 
BRANCH  16  17
HETATM   17  C5  UNL     1      -0.585  -0.045   0.423  1.00  0.00     0.265 C 
BRANCH  17  18
HETATM   18  N2  UNL     1       0.752  -0.717   0.317  1.00  0.00    -0.073 N 
HETATM   19  C6  UNL     1       1.108  -0.986  -0.995  1.00  0.00     0.272 C 
HETATM   20  C7  UNL     1       0.498  -2.076   0.939  1.00  0.00     0.272 C 
BRANCH  18  21
HETATM   21  C8  UNL     1       1.622  -0.084   1.215  1.00  0.00     0.238 C 
BRANCH  21  22
HETATM   22  C9  UNL     1       2.667   0.880   0.809  1.00  0.00     0.055 C 
BRANCH  22  23
HETATM   23  C10 UNL     1       3.812   0.305   0.001  1.00  0.00     0.234 C 
BRANCH  23  24
HETATM   24  N3  UNL     1       4.436  -0.768   0.733  1.00  0.00    -0.071 N 
ATOM     25  H32 UNL     1       4.165  -0.744   1.716  1.00  0.00     0.277 HD
ATOM     26  H31 UNL     1       4.035  -1.669   0.472  1.00  0.00     0.277 HD
BRANCH  24  27
HETATM   27  C11 UNL     1       5.860  -0.783   0.595  1.00  0.00     0.185 C 
HETATM   28  C12 UNL     1       6.375  -0.843  -0.806  1.00  0.00     0.033 C 
HETATM   29  C13 UNL     1       7.866  -0.542  -0.745  1.00  0.00     0.002 C 
HETATM   30  C14 UNL     1       8.015   0.908  -0.313  1.00  0.00     0.000 C 
HETATM   31  C15 UNL     1       7.351   1.190   0.998  1.00  0.00     0.002 C 
HETATM   32  C16 UNL     1       6.627   0.023   1.576  1.00  0.00     0.033 C 
ENDBRANCH  24  27
ENDBRANCH  23  24
ENDBRANCH  22  23
ENDBRANCH  21  22
ENDBRANCH  18  21
ENDBRANCH  17  18
ENDBRANCH  16  17
ENDBRANCH   6  16
BRANCH  14  33
HETATM   33  C22 UNL     1      -4.340  -2.751   0.914  1.00  0.00     0.198 C 
HETATM   34  O3  UNL     1      -3.438  -2.709   1.816  1.00  0.00    -0.646 OA
HETATM   35  O4  UNL     1      -5.418  -3.600   1.088  1.00  0.00    -0.646 OA
ENDBRANCH  14  33
TORSDOF 9
