REMARK  8 active torsions:
REMARK  status: ('A' for Active; 'I' for Inactive)
REMARK    1  A    between atoms: C4_4  and  C5_5 
REMARK    2  A    between atoms: C14_19  and  C15_20 
REMARK    3  A    between atoms: C20_27  and  N4_28 
REMARK    4  A    between atoms: N4_28  and  C21_30 
REMARK    5  A    between atoms: C21_30  and  C22_31 
REMARK    6  A    between atoms: C22_31  and  C23_32 
REMARK    7  A    between atoms: C23_32  and  C24_33 
REMARK    8  A    between atoms: C24_33  and  N5_34 
ROOT
HETATM    1  C1  UNL     1      -5.988   0.476  -0.208  1.00  0.00     0.050 C 
HETATM    2  C2  UNL     1      -4.539   0.859  -0.231  1.00  0.00    -0.034 A 
HETATM    3  C3  UNL     1      -4.161   2.160  -0.475  1.00  0.00     0.022 A 
HETATM    4  C4  UNL     1      -2.833   2.507  -0.495  1.00  0.00    -0.011 A 
HETATM    5  C9  UNL     1      -1.836   1.568  -0.272  1.00  0.00     0.028 A 
HETATM    6  C10 UNL     1      -2.190   0.267  -0.027  1.00  0.00     0.006 A 
HETATM    7  C11 UNL     1      -1.513  -0.931   0.236  1.00  0.00     0.026 A 
HETATM    8  C12 UNL     1      -2.438  -1.959   0.409  1.00  0.00     0.058 A 
HETATM    9  N2  UNL     1      -3.648  -1.376   0.247  1.00  0.00    -0.354 N 
ATOM     10  H2  UNL     1      -4.535  -1.874   0.313  1.00  0.00     0.166 HD
HETATM   11  C13 UNL     1      -3.541  -0.065  -0.011  1.00  0.00     0.050 A 
HETATM   12  C14 UNL     1      -2.086  -3.203   0.727  1.00  0.00     0.043 C 
HETATM   13  C16 UNL     1      -0.651  -3.547   0.959  1.00  0.00    -0.008 C 
HETATM   14  C17 UNL     1      -0.351  -4.780   0.124  1.00  0.00     0.021 C 
HETATM   15  C18 UNL     1      -0.481  -3.968   2.417  1.00  0.00     0.021 C 
HETATM   16  C19 UNL     1       0.299  -2.494   0.613  1.00  0.00     0.071 C 
HETATM   17  C20 UNL     1      -0.205  -1.137   0.336  1.00  0.00     0.019 C 
ENDROOT
BRANCH  17  18
HETATM   18  N4  UNL     1       0.721  -0.061   0.213  1.00  0.00    -0.392 N 
ATOM     19  H4  UNL     1       0.703   0.623   0.969  1.00  0.00     0.159 HD
BRANCH  18  20
HETATM   20  C21 UNL     1       1.669   0.191  -0.820  1.00  0.00     0.119 C 
BRANCH  20  21
HETATM   21  C22 UNL     1       2.855  -0.712  -0.902  1.00  0.00     0.021 C 
BRANCH  21  22
HETATM   22  C23 UNL     1       3.715  -0.768   0.297  1.00  0.00     0.029 C 
BRANCH  22  23
HETATM   23  C24 UNL     1       4.432   0.432   0.754  1.00  0.00     0.236 C 
BRANCH  23  24
HETATM   24  N5  UNL     1       5.444   0.989  -0.089  1.00  0.00    -0.079 N 
HETATM   25  C25 UNL     1       6.418   1.678   0.805  1.00  0.00     0.271 C 
HETATM   26  C26 UNL     1       4.937   2.023  -0.938  1.00  0.00     0.271 C 
HETATM   27  C27 UNL     1       6.259   0.006  -0.779  1.00  0.00     0.271 C 
ENDBRANCH  23  24
ENDBRANCH  22  23
ENDBRANCH  21  22
ENDBRANCH  20  21
ENDBRANCH  18  20
ENDBRANCH  17  18
BRANCH  12  28
HETATM   28  C15 UNL     1      -3.041  -4.273   0.905  1.00  0.00     0.264 C 
HETATM   29  N3  UNL     1      -4.425  -4.155   0.763  1.00  0.00    -0.057 NA
HETATM   30  O2  UNL     1      -2.617  -5.420   1.216  1.00  0.00    -0.271 OA
ENDBRANCH  12  28
BRANCH   4  31
HETATM   31  C5  UNL     1      -2.475   3.908  -0.758  1.00  0.00     0.035 A 
HETATM   32  N1  UNL     1      -1.366   4.542  -0.849  1.00  0.00    -0.329 N 
HETATM   33  C6  UNL     1      -1.907   5.813  -1.113  1.00  0.00     0.231 A 
ATOM     34  H1  UNL     1      -0.400   4.226  -0.759  1.00  0.00     0.168 HD
HETATM   35  O1  UNL     1      -1.451   6.947  -1.323  1.00  0.00    -0.272 OA
HETATM   36  C7  UNL     1      -3.206   5.166  -1.022  1.00  0.00     0.125 A 
HETATM   37  C8  UNL     1      -4.006   5.032  -2.294  1.00  0.00     0.026 C 
ENDBRANCH   4  31
TORSDOF 8
