REMARK  7 active torsions:
REMARK  status: ('A' for Active; 'I' for Inactive)
REMARK    1  A    between atoms: C2_2  and  C3_3 
REMARK    2  A    between atoms: C4_4  and  O1_5 
REMARK    3  A    between atoms: C5_7  and  C6_8 
REMARK    4  A    between atoms: C6_8  and  O2_9 
REMARK    5  A    between atoms: O2_9  and  C7_10 
REMARK    6  A    between atoms: C7_10  and  C8_11 
REMARK    7  A    between atoms: C8_11  and  N1_12 
ROOT
HETATM    1  C6  UNL     1       0.309  -1.720  -0.067  1.00  0.00     0.175 C 
ENDROOT
BRANCH   1   2
HETATM    2  C5  UNL     1      -0.625  -0.653   0.487  1.00  0.00     0.049 A 
HETATM    3  C3  UNL     1      -2.096  -0.814   0.185  1.00  0.00     0.045 A 
HETATM    4  C4  UNL     1      -1.342   0.228  -0.543  1.00  0.00     0.133 A 
BRANCH   3   5
HETATM    5  C2  UNL     1      -3.086  -0.356   1.201  1.00  0.00    -0.029 C 
HETATM    6  C1  UNL     1      -3.975   0.580   0.916  1.00  0.00     0.007 C 
ENDBRANCH   3   5
BRANCH   4   7
HETATM    7  O1  UNL     1      -1.534   1.574  -0.206  1.00  0.00    -0.394 OA
ATOM      8  H1  UNL     1      -1.049   2.244  -0.674  1.00  0.00     0.210 HD
ENDBRANCH   4   7
ENDBRANCH   1   2
BRANCH   1   9
HETATM    9  O2  UNL     1       1.625  -1.433   0.295  1.00  0.00    -0.389 OA
BRANCH   9  10
HETATM   10  C7  UNL     1       1.934  -0.198  -0.238  1.00  0.00     0.188 C 
BRANCH  10  11
HETATM   11  C8  UNL     1       3.340   0.253   0.073  1.00  0.00     0.165 C 
BRANCH  11  12
HETATM   12  N1  UNL     1       3.532   1.541  -0.534  1.00  0.00    -0.341 N 
HETATM   13  N2  UNL     1       4.261   2.425  -0.083  1.00  0.00    -0.349 N 
ATOM     14  H22 UNL     1       4.756   2.212   0.783  1.00  0.00     0.176 HD
ATOM     15  H21 UNL     1       4.397   3.339  -0.514  1.00  0.00     0.176 HD
ATOM     16  H1  UNL     1       3.029   1.737  -1.399  1.00  0.00     0.179 HD
ENDBRANCH  11  12
ENDBRANCH  10  11
ENDBRANCH   9  10
ENDBRANCH   1   9
TORSDOF 7
