REMARK  8 active torsions:
REMARK  status: ('A' for Active; 'I' for Inactive)
REMARK    1  A    between atoms: C4_4  and  C5_5 
REMARK    2  A    between atoms: C5_5  and  O1_6 
REMARK    3  A    between atoms: N2_14  and  C10_15 
REMARK    4  A    between atoms: C10_15  and  O2_16 
REMARK    5  A    between atoms: C10_15  and  N3_18 
REMARK    6  A    between atoms: N4_21  and  C13_22 
REMARK    7  A    between atoms: C14_27  and  C15_28 
REMARK    8  A    between atoms: C16_32  and  C17_33 
ROOT
HETATM    1  C13 UNL     1      -1.516   0.104   0.950  1.00  0.00     0.714 A 
HETATM    2  N5  UNL     1      -1.177  -1.148   1.307  1.00  0.00    -0.129 N 
ATOM      3  H5  UNL     1      -0.225  -1.472   1.478  1.00  0.00     0.205 HD
HETATM    4  N6  UNL     1      -2.265  -1.896   1.403  1.00  0.00    -0.268 N 
ATOM      5  H6  UNL     1      -2.283  -2.883   1.658  1.00  0.00     0.189 HD
HETATM    6  C14 UNL     1      -3.341  -1.149   1.111  1.00  0.00     0.182 A 
HETATM    7  N12 UNL     1      -2.875   0.081   0.833  1.00  0.00    -0.169 N 
ATOM      8  H12 UNL     1      -3.453   0.880   0.573  1.00  0.00     0.186 HD
ENDROOT
BRANCH   1   9
HETATM    9  N4  UNL     1      -0.660   1.220   0.737  1.00  0.00    -0.104 N 
HETATM   10  C12 UNL     1      -1.041   2.559   0.347  1.00  0.00     0.187 C 
HETATM   11  C11 UNL     1       0.311   3.277   0.251  1.00  0.00     0.172 C 
HETATM   12  N3  UNL     1       1.177   2.098  -0.034  1.00  0.00    -0.238 N 
HETATM   13  N13 UNL     1       0.727   1.171   0.885  1.00  0.00     0.000 NA
BRANCH  12  14
HETATM   14  C10 UNL     1       2.181   2.002  -0.988  1.00  0.00     0.234 C 
BRANCH  14  15
HETATM   15  N2  UNL     1       2.986   0.923  -1.269  1.00  0.00    -0.346 N 
HETATM   16  C9  UNL     1       3.969   1.171  -2.334  1.00  0.00     0.131 C 
HETATM   17  C8  UNL     1       4.946   0.025  -2.482  1.00  0.00     0.061 C 
HETATM   18  C7  UNL     1       5.674  -0.273  -1.234  1.00  0.00    -0.028 A 
HETATM   19  C2  UNL     1       7.014  -0.456  -1.542  1.00  0.00    -0.052 A 
HETATM   20  C6  UNL     1       5.210  -0.378   0.050  1.00  0.00     0.018 A 
HETATM   21  C1  UNL     1       7.543  -0.357  -2.896  1.00  0.00     0.049 C 
HETATM   22  C3  UNL     1       7.860  -0.749  -0.486  1.00  0.00     0.034 A 
HETATM   23  C4  UNL     1       7.367  -0.848   0.799  1.00  0.00     0.033 A 
HETATM   24  N1  UNL     1       6.065  -0.666   1.061  1.00  0.00    -0.361 N 
ATOM     25  H1  UNL     1       5.719  -0.744   2.017  1.00  0.00     0.165 HD
HETATM   26  C24 UNL     1       3.820  -0.222   0.618  1.00  0.00     0.077 C 
HETATM   27  C23 UNL     1       2.874  -0.319  -0.585  1.00  0.00     0.132 C 
BRANCH  23  28
HETATM   28  C5  UNL     1       8.297  -1.163   1.909  1.00  0.00     0.221 C 
BRANCH  28  29
HETATM   29  O1  UNL     1       8.817   0.017   2.448  1.00  0.00    -0.395 OA
ATOM     30  H1  UNL     1       9.413  -0.185   3.160  1.00  0.00     0.209 HD
ENDBRANCH  28  29
ENDBRANCH  23  28
ENDBRANCH  14  15
BRANCH  14  31
HETATM   31  O2  UNL     1       2.336   3.112  -1.678  1.00  0.00    -0.332 OA
ATOM     32  H2  UNL     1       1.780   3.857  -1.484  1.00  0.00     0.221 HD
ENDBRANCH  14  31
ENDBRANCH  12  14
ENDBRANCH   1   9
BRANCH   6  33
HETATM   33  C15 UNL     1      -4.750  -1.564   1.092  1.00  0.00     0.169 A 
HETATM   34  N7  UNL     1      -5.717  -0.692   0.778  1.00  0.00    -0.274 N 
HETATM   35  N8  UNL     1      -7.008  -1.043   0.753  1.00  0.00    -0.237 N 
ATOM     36  H7  UNL     1      -5.461   0.269   0.551  1.00  0.00     0.189 HD
HETATM   37  C16 UNL     1      -8.116  -0.337   0.470  1.00  0.00     0.056 A 
HETATM   38  C21 UNL     1      -7.339  -2.313   1.054  1.00  0.00     0.171 A 
HETATM   39  C20 UNL     1      -9.171  -1.210   0.603  1.00  0.00     0.117 A 
HETATM   40  N9  UNL     1      -8.682  -2.391   0.953  1.00  0.00    -0.346 N 
ATOM     41  H9  UNL     1      -9.236  -3.231   1.120  1.00  0.00     0.167 HD
HETATM   42  C22 UNL     1      -6.365  -3.248   1.385  1.00  0.00     0.147 A 
HETATM   43  N10 UNL     1      -6.736  -4.443   1.662  1.00  0.00    -0.382 N 
HETATM   44  N11 UNL     1      -5.087  -2.829   1.391  1.00  0.00    -0.322 N 
ATOM     45 2H10 UNL     1      -7.705  -4.761   1.657  1.00  0.00     0.157 HD
ATOM     46 1H10 UNL     1      -6.021  -5.129   1.905  1.00  0.00     0.157 HD
ATOM     47  H11 UNL     1      -4.351  -3.493   1.630  1.00  0.00     0.169 HD
BRANCH  37  48
HETATM   48  C17 UNL     1      -8.150   1.099   0.094  1.00  0.00     0.039 A 
HETATM   49  C18 UNL     1      -9.184   1.518  -0.878  1.00  0.00     0.011 A 
HETATM   50  C19 UNL     1      -9.291   1.948   0.555  1.00  0.00     0.011 A 
ENDBRANCH  37  48
ENDBRANCH   6  33
TORSDOF 8
