REMARK  5 active torsions:
REMARK  status: ('A' for Active; 'I' for Inactive)
REMARK    1  A    between atoms: N1_1  and  S1_4 
REMARK    2  A    between atoms: S1_4  and  N2_5 
REMARK    3  A    between atoms: S1_4  and  N3_9 
REMARK    4  A    between atoms: N3_9  and  C1_11 
REMARK    5  A    between atoms: C1_11  and  C2_12 
ROOT
HETATM    1  N3  UNL     1      -0.837  -0.049  -0.740  1.00  0.00    -0.317 N 
ATOM      2  H3  UNL     1      -0.649   0.267  -1.692  1.00  0.00     0.172 HD
ENDROOT
BRANCH   1   3
HETATM    3  S1  UNL     1      -2.415  -0.234  -0.074  1.00  0.00     0.186 S 
HETATM    4  O1  UNL     1      -2.431  -1.572   0.631  1.00  0.00    -0.207 OA
BRANCH   3   5
HETATM    5  N1  UNL     1      -3.424  -0.359  -1.267  1.00  0.00    -0.329 N 
ATOM      6  H12 UNL     1      -4.224   0.260  -1.393  1.00  0.00     0.168 HD
ATOM      7  H11 UNL     1      -3.175  -1.129  -1.887  1.00  0.00     0.168 HD
ENDBRANCH   3   5
BRANCH   3   8
HETATM    8  N2  UNL     1      -2.831   1.054   0.963  1.00  0.00    -0.329 N 
ATOM      9  H22 UNL     1      -3.639   1.658   0.812  1.00  0.00     0.168 HD
ATOM     10  H21 UNL     1      -2.174   1.135   1.739  1.00  0.00     0.168 HD
ENDBRANCH   3   8
ENDBRANCH   1   3
BRANCH   1  11
HETATM   11  C1  UNL     1       0.198  -0.401   0.229  1.00  0.00     0.179 C 
BRANCH  11  12
HETATM   12  C2  UNL     1       1.525  -0.186  -0.506  1.00  0.00     0.149 A 
HETATM   13  C3  UNL     1       2.733  -0.475   0.261  1.00  0.00     0.167 A 
HETATM   14  S2  UNL     1       3.011   1.018  -0.064  1.00  0.00     0.056 S 
HETATM   15  O2  UNL     1       4.331   1.776  -0.176  1.00  0.00    -0.247 OA
HETATM   16  N4  UNL     1       1.871   1.133  -0.737  1.00  0.00    -0.325 N 
ATOM     17  H4  UNL     1       1.422   1.902  -1.235  1.00  0.00     0.171 HD
ENDBRANCH  11  12
ENDBRANCH   1  11
TORSDOF 5
