REMARK  3 active torsions:
REMARK  status: ('A' for Active; 'I' for Inactive)
REMARK    1  A    between atoms: C4_4  and  C5_5 
REMARK       I    between atoms: N1_10  and  C8_12 
REMARK    2  A    between atoms: C8_12  and  C9_14 
REMARK    3  A    between atoms: C9_14  and  O3_15 
ROOT
HETATM    1  C1  UNL     1      -3.629   0.043  -0.610  1.00  0.00     0.010 C 
HETATM    2  C2  UNL     1      -2.598  -1.052  -0.613  1.00  0.00    -0.012 C 
HETATM    3  C3  UNL     1      -2.103  -1.243   0.800  1.00  0.00     0.012 C 
HETATM    4  C4  UNL     1      -1.509   0.068   1.258  1.00  0.00     0.028 C 
HETATM    5  C6  UNL     1      -0.489   0.626   0.329  1.00  0.00     0.164 C 
HETATM    6  O1  UNL     1       0.793   0.795   0.951  1.00  0.00    -0.329 OA
HETATM    7  C7  UNL     1       1.962   0.425   0.348  1.00  0.00     0.145 C 
HETATM    8  N1  UNL     1       3.114   0.967   0.631  1.00  0.00    -0.307 N 
ATOM      9  H1  UNL     1       3.165   1.704   1.334  1.00  0.00     0.170 HD
HETATM   10  C8  UNL     1       4.297   0.544  -0.027  1.00  0.00     0.246 C 
HETATM   11  O2  UNL     1       4.436   0.757  -1.248  1.00  0.00    -0.271 OA
HETATM   12  C10 UNL     1       1.915  -0.645  -0.678  1.00  0.00     0.252 C 
HETATM   13  O4  UNL     1       0.632  -1.214  -0.606  1.00  0.00    -0.375 OA
HETATM   14  C11 UNL     1      -0.263  -0.189  -0.909  1.00  0.00     0.155 C 
HETATM   15  C12 UNL     1      -1.495  -0.706  -1.549  1.00  0.00     0.017 C 
HETATM   16  C13 UNL     1      -1.958   0.269  -2.640  1.00  0.00     0.013 C 
ENDROOT
BRANCH  10  17
HETATM   17  C9  UNL     1       5.396  -0.158   0.710  1.00  0.00     0.267 C 
BRANCH  17  18
HETATM   18  O3  UNL     1       6.444  -0.478  -0.116  1.00  0.00    -0.392 OA
ATOM     19  H3  UNL     1       7.141  -0.923   0.351  1.00  0.00     0.210 HD
ENDBRANCH  17  18
ENDBRANCH  10  17
BRANCH   4  20
HETATM   20  C5  UNL     1      -0.955  -0.167   2.656  1.00  0.00     0.093 C 
HETATM   21  S1  UNL     1      -2.241  -0.686   3.797  1.00  0.00    -0.097 SA
ENDBRANCH   4  20
TORSDOF 3
