REMARK  4 active torsions:
REMARK  status: ('A' for Active; 'I' for Inactive)
REMARK    1  A    between atoms: C5_8  and  O1_9 
REMARK    2  A    between atoms: O1_9  and  C6_10 
REMARK    3  A    between atoms: C6_10  and  N2_12 
REMARK    4  A    between atoms: N2_12  and  C7_14 
ROOT
HETATM    1  O1  UNL     1       0.251   0.382   0.437  1.00  0.00    -0.294 OA
ENDROOT
BRANCH   1   2
HETATM    2  C5  UNL     1       1.674   0.511   0.535  1.00  0.00     0.294 C 
HETATM    3  C4  UNL     1       2.096   1.749  -0.143  1.00  0.00     0.293 C 
HETATM    4  N1  UNL     1       3.559   1.755  -0.236  1.00  0.00    -0.068 N 
HETATM    5  C3  UNL     1       3.871   0.626  -1.108  1.00  0.00     0.264 C 
ATOM      6  H12 UNL     1       4.034   1.729   0.666  1.00  0.00     0.277 HD
ATOM      7  H11 UNL     1       3.954   2.643  -0.546  1.00  0.00     0.277 HD
HETATM    8  C2  UNL     1       3.466  -0.636  -0.424  1.00  0.00     0.146 C 
HETATM    9  C1  UNL     1       4.488  -0.991   0.638  1.00  0.00     0.041 C 
HETATM   10  O2  UNL     1       2.229  -0.654   0.129  1.00  0.00    -0.353 OA
ENDBRANCH   1   2
BRANCH   1  11
HETATM   11  C6  UNL     1      -0.356  -0.725   1.016  1.00  0.00     0.212 C 
HETATM   12  S1  UNL     1       0.373  -1.552   2.214  1.00  0.00    -0.033 SA
BRANCH  11  13
HETATM   13  N2  UNL     1      -1.632  -1.174   0.584  1.00  0.00    -0.357 N 
ATOM     14  H2  UNL     1      -2.044  -1.991   1.034  1.00  0.00     0.162 HD
BRANCH  13  15
HETATM   15  C7  UNL     1      -2.371  -0.513  -0.474  1.00  0.00     0.085 C 
HETATM   16  C8  UNL     1      -3.665  -1.214  -0.700  1.00  0.00     0.035 C 
HETATM   17  C9  UNL     1      -4.547  -1.253   0.526  1.00  0.00     0.076 C 
HETATM   18  S2  UNL     1      -4.815   0.498   1.011  1.00  0.00    -0.169 SA
HETATM   19  C10 UNL     1      -3.897   1.471  -0.244  1.00  0.00     0.076 C 
HETATM   20  C11 UNL     1      -2.495   0.962  -0.255  1.00  0.00     0.035 C 
ENDBRANCH  13  15
ENDBRANCH  11  13
ENDBRANCH   1  11
TORSDOF 4
