REMARK  6 active torsions:
REMARK  status: ('A' for Active; 'I' for Inactive)
REMARK    1  A    between atoms: N1_1  and  C1_4 
REMARK    2  A    between atoms: C2_7  and  N3_8 
REMARK    3  A    between atoms: N3_8  and  N4_9 
REMARK    4  A    between atoms: N3_8  and  N6_13 
REMARK    5  A    between atoms: N4_9  and  N5_10 
REMARK    6  A    between atoms: N6_13  and  C3_15 
ROOT
HETATM    1  C1  UNL     1       2.344  -0.369  -0.677  1.00  0.00     0.677 A 
HETATM    2  N2  UNL     1       1.026  -0.421  -0.905  1.00  0.00    -0.174 N 
ATOM      3  H2  UNL     1       0.675  -0.791  -1.788  1.00  0.00     0.186 HD
HETATM    4  C2  UNL     1       0.174   0.010   0.022  1.00  0.00     0.160 A 
HETATM    5  C4  UNL     1       0.663   0.503   1.204  1.00  0.00     0.070 A 
HETATM    6  C5  UNL     1       2.019   0.552   1.429  1.00  0.00     0.110 A 
HETATM    7  N7  UNL     1       2.852   0.111   0.477  1.00  0.00    -0.202 N 
ATOM      8  H7  UNL     1       3.861   0.138   0.623  1.00  0.00     0.183 HD
ENDROOT
BRANCH   4   9
HETATM    9  N3  UNL     1      -1.248  -0.027  -0.183  1.00  0.00    -0.161 N 
BRANCH   9  10
HETATM   10  N4  UNL     1      -1.823  -0.507  -1.341  1.00  0.00    -0.005 NA
BRANCH  10  11
HETATM   11  N5  UNL     1      -1.173  -1.632  -1.861  1.00  0.00    -0.327 N 
ATOM     12  H52 UNL     1      -0.354  -2.045  -1.415  1.00  0.00     0.174 HD
ATOM     13  H51 UNL     1      -1.598  -1.987  -2.717  1.00  0.00     0.174 HD
ENDBRANCH  10  11
ENDBRANCH   9  10
BRANCH   9  14
HETATM   14  N6  UNL     1      -2.113   0.440   0.826  1.00  0.00    -0.256 N 
ATOM     15  H6  UNL     1      -2.333  -0.164   1.618  1.00  0.00     0.191 HD
BRANCH  14  16
HETATM   16  C3  UNL     1      -2.681   1.731   0.759  1.00  0.00     0.370 C 
HETATM   17  O1  UNL     1      -2.395   2.464  -0.229  1.00  0.00    -0.282 OA
ENDBRANCH  14  16
ENDBRANCH   9  14
ENDBRANCH   4   9
BRANCH   1  18
HETATM   18  N1  UNL     1       3.146  -0.805  -1.616  1.00  0.00    -0.234 N 
ATOM     19  H12 UNL     1       2.762  -1.168  -2.488  1.00  0.00     0.174 HD
ATOM     20  H11 UNL     1       4.150  -0.765  -1.442  1.00  0.00     0.174 HD
ENDBRANCH   1  18
TORSDOF 6
