REMARK  2 active torsions:
REMARK  status: ('A' for Active; 'I' for Inactive)
REMARK    1  A    between atoms: C5_11  and  N4_12 
REMARK    2  A    between atoms: C6_17  and  N6_18 
ROOT
HETATM    1  C1  UNL     1       3.541  -1.647  -0.648  1.00  0.00     0.064 C 
HETATM    2  C2  UNL     1       2.494  -0.579  -0.387  1.00  0.00    -0.011 C 
HETATM    3  N1  UNL     1       1.342  -1.109  -0.283  1.00  0.00    -0.347 N 
ATOM      4  H1  UNL     1       1.321  -2.123  -0.389  1.00  0.00     0.167 HD
HETATM    5  C3  UNL     1       0.098  -0.509  -0.045  1.00  0.00     0.141 A 
HETATM    6  N2  UNL     1      -0.933  -1.282  -0.428  1.00  0.00    -0.324 N 
ATOM      7  H2  UNL     1      -0.759  -2.197  -0.843  1.00  0.00     0.169 HD
HETATM    8  C4  UNL     1      -2.182  -0.850  -0.264  1.00  0.00     0.153 A 
HETATM    9  N3  UNL     1      -3.263  -1.577  -0.627  1.00  0.00    -0.174 N 
ATOM     10  H3  UNL     1      -3.124  -2.497  -1.045  1.00  0.00     0.186 HD
HETATM   11  C5  UNL     1      -4.511  -1.122  -0.452  1.00  0.00     0.679 A 
HETATM   12  N5  UNL     1      -4.754   0.095   0.100  1.00  0.00    -0.175 N 
ATOM     13  H5  UNL     1      -5.712   0.423   0.225  1.00  0.00     0.186 HD
HETATM   14  C6  UNL     1      -3.730   0.854   0.476  1.00  0.00     0.145 A 
HETATM   15  C7  UNL     1      -2.444   0.379   0.292  1.00  0.00     0.123 A 
HETATM   16  N7  UNL     1      -1.444   1.185   0.690  1.00  0.00    -0.342 N 
ATOM     17  H7  UNL     1      -1.621   2.100   1.106  1.00  0.00     0.167 HD
HETATM   18  C8  UNL     1      -0.204   0.717   0.509  1.00  0.00     0.115 A 
HETATM   19  S1  UNL     1       1.031   1.902   1.084  1.00  0.00    -0.108 SA
HETATM   20  C9  UNL     1       2.277   1.946  -0.260  1.00  0.00     0.091 C 
HETATM   21  C10 UNL     1       3.078   0.724  -0.329  1.00  0.00     0.036 C 
HETATM   22  C11 UNL     1       4.019   0.741   0.892  1.00  0.00     0.017 C 
ENDROOT
BRANCH  11  23
HETATM   23  N4  UNL     1      -5.534  -1.830  -0.805  1.00  0.00    -0.234 N 
ATOM     24  H42 UNL     1      -5.352  -2.744  -1.220  1.00  0.00     0.174 HD
ATOM     25  H41 UNL     1      -6.484  -1.484  -0.672  1.00  0.00     0.174 HD
ENDBRANCH  11  23
BRANCH  14  26
HETATM   26  N6  UNL     1      -3.923   2.016   1.003  1.00  0.00    -0.383 N 
ATOM     27  H62 UNL     1      -4.871   2.366   1.139  1.00  0.00     0.157 HD
ATOM     28  H61 UNL     1      -3.137   2.599   1.292  1.00  0.00     0.157 HD
ENDBRANCH  14  26
TORSDOF 2
