REMARK  2 active torsions:
REMARK  status: ('A' for Active; 'I' for Inactive)
REMARK    1  A    between atoms: N2_14  and  O2_16 
REMARK    2  A    between atoms: C11_22  and  N4_23 
ROOT
HETATM    1  C1  UNL     1      -1.275   2.278  -0.398  1.00  0.00     0.030 C 
HETATM    2  C2  UNL     1      -1.102   1.127   0.521  1.00  0.00     0.045 C 
HETATM    3  C3  UNL     1       0.146   1.093   1.300  1.00  0.00     0.060 C 
HETATM    4  C4  UNL     1       1.357   0.690   0.492  1.00  0.00     0.166 C 
HETATM    5  O1  UNL     1       2.420   0.428   1.399  1.00  0.00    -0.329 OA
HETATM    6  C5  UNL     1       3.494  -0.362   1.041  1.00  0.00     0.115 C 
HETATM    7  N1  UNL     1       4.508  -0.436   1.809  1.00  0.00    -0.383 N 
ATOM      8  H11 UNL     1       5.302  -1.020   1.544  1.00  0.00     0.157 HD
ATOM      9  H12 UNL     1       4.533   0.084   2.686  1.00  0.00     0.157 HD
HETATM   10  C6  UNL     1       3.458  -1.108  -0.216  1.00  0.00     0.111 C 
HETATM   11  C7  UNL     1       2.090  -1.218  -0.781  1.00  0.00    -0.007 C 
HETATM   12  C8  UNL     1       1.108  -0.388  -0.460  1.00  0.00    -0.005 C 
HETATM   13  C9  UNL     1      -0.238  -0.536  -1.060  1.00  0.00     0.072 C 
HETATM   14  N2  UNL     1      -0.360  -0.894  -2.277  1.00  0.00    -0.271 N 
ATOM     15  H2  UNL     1      -1.318  -0.975  -2.617  1.00  0.00     0.194 HD
HETATM   16  C10 UNL     1      -1.357  -0.222  -0.167  1.00  0.00     0.259 C 
HETATM   17  N3  UNL     1      -2.644  -0.120  -0.757  1.00  0.00    -0.026 N 
ATOM     18  H31 UNL     1      -2.869  -0.857  -1.425  1.00  0.00     0.281 HD
ATOM     19  H32 UNL     1      -2.753   0.650  -1.417  1.00  0.00     0.281 HD
HETATM   20  C11 UNL     1      -3.533  -0.058   0.420  1.00  0.00     0.444 C 
HETATM   21  S1  UNL     1      -2.609   1.045   1.576  1.00  0.00    -0.096 SA
ENDROOT
BRANCH  14  22
HETATM   22  O2  UNL     1       0.599  -1.180  -3.176  1.00  0.00    -0.290 OA
ATOM     23  H2  UNL     1       0.508  -1.447  -4.083  1.00  0.00     0.244 HD
ENDBRANCH  14  22
BRANCH  20  24
HETATM   24  N4  UNL     1      -3.759  -1.343   0.995  1.00  0.00    -0.041 N 
ATOM     25  H43 UNL     1      -4.113  -2.001   0.300  1.00  0.00     0.277 HD
ATOM     26  H42 UNL     1      -2.878  -1.805   1.222  1.00  0.00     0.277 HD
ATOM     27  H41 UNL     1      -4.373  -1.300   1.808  1.00  0.00     0.277 HD
ENDBRANCH  20  24
TORSDOF 2
