REMARK  5 active torsions:
REMARK  status: ('A' for Active; 'I' for Inactive)
REMARK    1  A    between atoms: C1_2  and  C2_4 
REMARK    2  A    between atoms: C5_7  and  S1_8 
REMARK    3  A    between atoms: S1_8  and  N2_11 
REMARK    4  A    between atoms: N2_11  and  C6_13 
REMARK    5  A    between atoms: C6_13  and  N3_14 
ROOT
HETATM    1  S1  UNL     1      -0.214   0.536   2.230  1.00  0.00     0.275 S 
HETATM    2  O2  UNL     1      -0.174  -0.726   3.057  1.00  0.00    -0.199 OA
HETATM    3  O3  UNL     1      -0.163   1.692   3.188  1.00  0.00    -0.199 OA
ENDROOT
BRANCH   1   4
HETATM    4  C5  UNL     1       1.164   0.611   1.193  1.00  0.00     0.151 A 
HETATM    5  C4  UNL     1       1.790   1.760   0.807  1.00  0.00     0.045 A 
HETATM    6  C3  UNL     1       2.903   1.716  -0.039  1.00  0.00     0.025 A 
HETATM    7  C2  UNL     1       3.397   0.520  -0.504  1.00  0.00     0.097 A 
HETATM    8  C9  UNL     1       2.722  -0.625  -0.081  1.00  0.00     0.261 A 
HETATM    9  N6  UNL     1       1.667  -0.562   0.722  1.00  0.00    -0.312 N 
HETATM   10  O5  UNL     1       3.152  -1.746  -0.492  1.00  0.00    -0.267 OA
ATOM     11  H6  UNL     1       1.213  -1.432   0.998  1.00  0.00     0.170 HD
BRANCH   7  12
HETATM   12  C1  UNL     1       4.535   0.403  -1.375  1.00  0.00     0.270 C 
HETATM   13  N1  UNL     1       4.998  -0.859  -1.822  1.00  0.00    -0.057 NA
HETATM   14  O1  UNL     1       5.144   1.426  -1.758  1.00  0.00    -0.271 OA
ENDBRANCH   7  12
ENDBRANCH   1   4
BRANCH   1  15
HETATM   15  N2  UNL     1      -1.700   0.604   1.367  1.00  0.00    -0.297 N 
ATOM     16  H2  UNL     1      -2.396   1.340   1.482  1.00  0.00     0.174 HD
BRANCH  15  17
HETATM   17  C6  UNL     1      -1.840  -0.517   0.455  1.00  0.00     0.269 C 
BRANCH  17  18
HETATM   18  N3  UNL     1      -3.067  -0.484  -0.275  1.00  0.00    -0.276 N 
HETATM   19  C7  UNL     1      -3.282   0.116  -1.480  1.00  0.00     0.206 A 
HETATM   20  N4  UNL     1      -4.570  -0.088  -1.813  1.00  0.00    -0.292 N 
HETATM   21  N5  UNL     1      -5.169  -0.790  -0.866  1.00  0.00    -0.250 N 
ATOM     22  H4  UNL     1      -5.016   0.248  -2.666  1.00  0.00     0.187 HD
HETATM   23  C8  UNL     1      -4.246  -1.034   0.080  1.00  0.00     0.343 A 
ATOM     24  H5  UNL     1      -6.144  -1.089  -0.855  1.00  0.00     0.192 HD
HETATM   25  O4  UNL     1      -4.431  -1.684   1.160  1.00  0.00    -0.245 OA
ENDBRANCH  17  18
ENDBRANCH  15  17
ENDBRANCH   1  15
TORSDOF 5
