REMARK  9 active torsions:
REMARK  status: ('A' for Active; 'I' for Inactive)
REMARK    1  A    between atoms: N1_1  and  C1_5 
REMARK    2  A    between atoms: C1_5  and  C2_6 
REMARK       I    between atoms: C2_6  and  N2_8 
REMARK    3  A    between atoms: N2_8  and  C3_10 
REMARK    4  A    between atoms: C3_10  and  C4_11 
REMARK    5  A    between atoms: C4_11  and  N5_17 
REMARK    6  A    between atoms: N3_12  and  N4_14 
REMARK    7  A    between atoms: N5_17  and  C5_19 
REMARK    8  A    between atoms: C8_22  and  S1_23 
REMARK    9  A    between atoms: S1_23  and  N6_24 
ROOT
HETATM    1  C4  UNL     1      -1.208  -0.551  -0.415  1.00  0.00     0.115 C 
HETATM    2  N3  UNL     1      -1.822  -0.349   0.693  1.00  0.00    -0.294 N 
ATOM      3  H3  UNL     1      -2.615   0.293   0.705  1.00  0.00     0.187 HD
ENDROOT
BRANCH   1   4
HETATM    4  C3  UNL     1      -1.673   0.154  -1.628  1.00  0.00     0.200 C 
BRANCH   4   5
HETATM    5  N2  UNL     1      -2.927   0.824  -1.388  1.00  0.00    -0.353 N 
HETATM    6  C2  UNL     1      -4.110   0.125  -1.042  1.00  0.00     0.243 C 
HETATM    7  O1  UNL     1      -4.135  -1.148  -0.928  1.00  0.00    -0.272 OA
ATOM      8  H2  UNL     1      -2.964   1.840  -1.470  1.00  0.00     0.162 HD
BRANCH   6   9
HETATM    9  C1  UNL     1      -5.363   0.905  -0.803  1.00  0.00     0.332 C 
BRANCH   9  10
HETATM   10  N1  UNL     1      -5.096   2.296  -0.985  1.00  0.00    -0.071 N 
ATOM     11  H13 UNL     1      -4.322   2.620  -0.404  1.00  0.00     0.274 HD
ATOM     12  H12 UNL     1      -4.685   2.494  -1.897  1.00  0.00     0.274 HD
ATOM     13  H11 UNL     1      -5.951   2.828  -0.822  1.00  0.00     0.274 HD
ENDBRANCH   9  10
ENDBRANCH   6   9
ENDBRANCH   4   5
ENDBRANCH   1   4
BRANCH   1  14
HETATM   14  N5  UNL     1      -0.096  -1.432  -0.402  1.00  0.00    -0.330 N 
ATOM     15  H5  UNL     1      -0.239  -2.387  -0.732  1.00  0.00     0.168 HD
BRANCH  14  16
HETATM   16  C5  UNL     1       1.074  -1.105  -0.003  1.00  0.00     0.106 A 
HETATM   17  C6  UNL     1       2.068  -2.057  -0.042  1.00  0.00     0.050 A 
HETATM   18  C7  UNL     1       3.343  -1.747   0.378  1.00  0.00     0.030 A 
HETATM   19  C8  UNL     1       3.614  -0.480   0.837  1.00  0.00     0.094 A 
HETATM   20  C9  UNL     1       2.604   0.467   0.870  1.00  0.00     0.115 A 
HETATM   21  N7  UNL     1       1.363   0.149   0.456  1.00  0.00    -0.351 N 
ATOM     22  H7  UNL     1       0.627   0.855   0.485  1.00  0.00     0.166 HD
BRANCH  19  23
HETATM   23  S1  UNL     1       5.206  -0.003   1.389  1.00  0.00     0.258 S 
HETATM   24  O2  UNL     1       5.046   1.105   2.394  1.00  0.00    -0.201 OA
HETATM   25  O3  UNL     1       5.895  -1.149   2.083  1.00  0.00    -0.201 OA
BRANCH  23  26
HETATM   26  N6  UNL     1       6.149   0.625   0.092  1.00  0.00    -0.324 N 
ATOM     27  H62 UNL     1       5.810   0.702  -0.867  1.00  0.00     0.169 HD
ATOM     28  H61 UNL     1       7.076   0.903   0.414  1.00  0.00     0.169 HD
ENDBRANCH  23  26
ENDBRANCH  19  23
ENDBRANCH  14  16
ENDBRANCH   1  14
BRANCH   2  29
HETATM   29  N4  UNL     1      -1.445  -0.975   1.883  1.00  0.00    -0.344 N 
ATOM     30  H42 UNL     1      -0.650  -1.613   1.853  1.00  0.00     0.176 HD
ATOM     31  H41 UNL     1      -1.933  -0.814   2.764  1.00  0.00     0.176 HD
ENDBRANCH   2  29
TORSDOF 9
