REMARK  5 active torsions:
REMARK  status: ('A' for Active; 'I' for Inactive)
REMARK    1  A    between atoms: N3_4  and  N4_6 
REMARK    2  A    between atoms: N4_6  and  S1_8 
REMARK    3  A    between atoms: S1_8  and  C2_11 
REMARK    4  A    between atoms: C6_15  and  S2_16 
REMARK    5  A    between atoms: S2_16  and  N5_17 
ROOT
HETATM    1  C2  UNL     1      -0.573   0.342   0.724  1.00  0.00     0.082 A 
HETATM    2  C3  UNL     1      -0.705   1.703   0.532  1.00  0.00     0.025 A 
HETATM    3  C4  UNL     1      -1.731   2.225  -0.228  1.00  0.00     0.003 A 
HETATM    4  C5  UNL     1      -2.620   1.358  -0.791  1.00  0.00     0.025 A 
HETATM    5  C6  UNL     1      -2.547  -0.009  -0.640  1.00  0.00     0.080 A 
HETATM    6  C7  UNL     1      -1.502  -0.515   0.133  1.00  0.00     0.050 A 
ENDROOT
BRANCH   1   7
HETATM    7  S1  UNL     1       0.727  -0.341   1.689  1.00  0.00     0.276 S 
HETATM    8  O1  UNL     1       1.078   0.628   2.777  1.00  0.00    -0.199 OA
HETATM    9  O2  UNL     1       0.180  -1.583   2.332  1.00  0.00    -0.199 OA
BRANCH   7  10
HETATM   10  N4  UNL     1       2.114  -0.688   0.761  1.00  0.00    -0.221 N 
ATOM     11  H4  UNL     1       2.220  -1.604   0.325  1.00  0.00     0.200 HD
BRANCH  10  12
HETATM   12  N3  UNL     1       3.102   0.279   0.598  1.00  0.00    -0.266 N 
HETATM   13  C1  UNL     1       4.212   0.077  -0.022  1.00  0.00     0.216 C 
HETATM   14  N1  UNL     1       5.131   1.153  -0.113  1.00  0.00    -0.065 NA
HETATM   15  N2  UNL     1       4.450  -1.206  -0.575  1.00  0.00    -0.065 NA
ATOM     16  H3  UNL     1       2.936   1.204   0.994  1.00  0.00     0.190 HD
ENDBRANCH  10  12
ENDBRANCH   7  10
ENDBRANCH   1   7
BRANCH   5  17
HETATM   17  S2  UNL     1      -3.695  -1.086  -1.370  1.00  0.00     0.256 S 
HETATM   18  O3  UNL     1      -4.281  -0.487  -2.626  1.00  0.00    -0.201 OA
HETATM   19  O4  UNL     1      -3.022  -2.367  -1.749  1.00  0.00    -0.201 OA
BRANCH  17  20
HETATM   20  N5  UNL     1      -5.004  -1.339  -0.277  1.00  0.00    -0.324 N 
ATOM     21  H52 UNL     1      -5.077  -0.916   0.648  1.00  0.00     0.169 HD
ATOM     22  H51 UNL     1      -5.679  -1.972  -0.706  1.00  0.00     0.169 HD
ENDBRANCH  17  20
ENDBRANCH   5  17
TORSDOF 5
