REMARK  4 active torsions:
REMARK  status: ('A' for Active; 'I' for Inactive)
REMARK    1  A    between atoms: S1_2  and  N1_5 
REMARK    2  A    between atoms: N1_5  and  C2_7 
REMARK    3  A    between atoms: C4_11  and  C5_12 
REMARK    4  A    between atoms: C5_12  and  C6_13 
ROOT
HETATM    1  C2  UNL     1       1.674  -0.764  -0.065  1.00  0.00     0.691 A 
HETATM    2  N2  UNL     1       0.827  -1.802  -0.261  1.00  0.00    -0.201 N 
ATOM      3  H2  UNL     1       1.164  -2.626  -0.758  1.00  0.00     0.183 HD
HETATM    4  C3  UNL     1      -0.437  -1.783   0.175  1.00  0.00     0.115 A 
HETATM    5  C4  UNL     1      -0.906  -0.688   0.841  1.00  0.00    -0.019 A 
HETATM    6  C8  UNL     1      -0.031   0.353   1.029  1.00  0.00     0.115 A 
HETATM    7  N6  UNL     1       1.244   0.321   0.584  1.00  0.00    -0.201 N 
ATOM      8  H6  UNL     1       1.868   1.112   0.741  1.00  0.00     0.183 HD
ENDROOT
BRANCH   5   9
HETATM    9  C5  UNL     1      -2.272  -0.632   1.328  1.00  0.00     0.119 C 
BRANCH   9  10
HETATM   10  C6  UNL     1      -3.232  -0.066   0.358  1.00  0.00     0.104 A 
HETATM   11  N3  UNL     1      -3.918  -0.772  -0.551  1.00  0.00    -0.295 N 
HETATM   12  C7  UNL     1      -4.702   0.067  -1.268  1.00  0.00     0.340 A 
ATOM     13  H3  UNL     1      -3.859  -1.782  -0.682  1.00  0.00     0.172 HD
HETATM   14  O3  UNL     1      -5.482  -0.248  -2.207  1.00  0.00    -0.245 OA
HETATM   15  N4  UNL     1      -4.470   1.294  -0.768  1.00  0.00    -0.250 N 
HETATM   16  N5  UNL     1      -3.586   1.218   0.211  1.00  0.00    -0.285 N 
ATOM     17  H4  UNL     1      -4.910   2.154  -1.095  1.00  0.00     0.192 HD
ATOM     18  H5  UNL     1      -3.234   2.002   0.760  1.00  0.00     0.188 HD
ENDBRANCH   9  10
ENDBRANCH   5   9
BRANCH   1  19
HETATM   19  N1  UNL     1       2.879  -0.864  -0.518  1.00  0.00    -0.117 N 
ATOM     20  H1  UNL     1       3.154  -1.716  -1.007  1.00  0.00     0.197 HD
BRANCH  19  21
HETATM   21  S1  UNL     1       4.028   0.386  -0.325  1.00  0.00     0.240 S 
HETATM   22  C1  UNL     1       5.597  -0.072  -1.044  1.00  0.00     0.186 C 
HETATM   23  O1  UNL     1       3.523   1.622  -1.016  1.00  0.00    -0.206 OA
HETATM   24  O2  UNL     1       4.250   0.619   1.149  1.00  0.00    -0.206 OA
ENDBRANCH  19  21
ENDBRANCH   1  19
TORSDOF 4
