REMARK  4 active torsions:
REMARK  status: ('A' for Active; 'I' for Inactive)
REMARK    1  A    between atoms: C2_2  and  C3_4 
REMARK    2  A    between atoms: C3_4  and  N2_8 
REMARK    3  A    between atoms: N2_8  and  N3_10 
REMARK       I    between atoms: N3_10  and  C4_12 
REMARK    4  A    between atoms: C4_12  and  C5_14 
ROOT
HETATM    1  N3  UNL     1       1.751  -0.255  -0.047  1.00  0.00    -0.268 N 
ATOM      2  H3  UNL     1       1.592  -0.026  -1.028  1.00  0.00     0.190 HD
HETATM    3  C4  UNL     1       0.675  -0.397   0.842  1.00  0.00     0.244 C 
HETATM    4  O1  UNL     1       0.970  -0.685   2.069  1.00  0.00    -0.271 OA
ENDROOT
BRANCH   3   5
HETATM    5  C5  UNL     1      -0.764  -0.250   0.517  1.00  0.00     0.043 C 
HETATM    6  C6  UNL     1      -1.524  -0.354   1.825  1.00  0.00     0.020 C 
HETATM    7  C7  UNL     1      -2.736   0.501   1.894  1.00  0.00     0.006 C 
HETATM    8  C8  UNL     1      -3.698   0.252   0.754  1.00  0.00    -0.014 C 
HETATM    9  C9  UNL     1      -3.505   1.365  -0.224  1.00  0.00     0.009 C 
HETATM   10  C13 UNL     1      -3.566  -1.127   0.181  1.00  0.00     0.009 C 
HETATM   11  C10 UNL     1      -2.265   1.078  -1.034  1.00  0.00    -0.013 C 
HETATM   12  C11 UNL     1      -2.565  -0.145  -1.849  1.00  0.00     0.009 C 
HETATM   13  C15 UNL     1      -1.008   1.013  -0.235  1.00  0.00     0.024 C 
HETATM   14  C12 UNL     1      -2.545  -1.314  -0.872  1.00  0.00    -0.013 C 
HETATM   15  C14 UNL     1      -1.123  -1.429  -0.388  1.00  0.00     0.024 C 
ENDBRANCH   3   5
BRANCH   1  16
HETATM   16  N2  UNL     1       3.040  -0.435   0.444  1.00  0.00    -0.285 N 
ATOM     17  H2  UNL     1       3.125  -0.827   1.382  1.00  0.00     0.188 HD
BRANCH  16  18
HETATM   18  C3  UNL     1       4.244  -0.128  -0.230  1.00  0.00     0.107 C 
HETATM   19  N1  UNL     1       4.217   0.148  -1.481  1.00  0.00    -0.387 N 
ATOM     20  H12 UNL     1       5.086   0.370  -1.967  1.00  0.00     0.157 HD
ATOM     21  H11 UNL     1       3.308   0.160  -1.944  1.00  0.00     0.157 HD
BRANCH  18  22
HETATM   22  C2  UNL     1       5.569  -0.145   0.445  1.00  0.00     0.146 C 
HETATM   23  C1  UNL     1       6.539   0.712  -0.339  1.00  0.00     0.034 C 
HETATM   24 CL1  UNL     1       5.512   0.501   2.099  1.00  0.00    -0.117 Cl
ENDBRANCH  18  22
ENDBRANCH  16  18
ENDBRANCH   1  16
TORSDOF 4
