REMARK  2 active torsions:
REMARK  status: ('A' for Active; 'I' for Inactive)
REMARK       I    between atoms: C1_2  and  N1_3 
REMARK    1  A    between atoms: C1_2  and  C4_13 
REMARK    2  A    between atoms: N1_3  and  C2_5 
ROOT
HETATM    1  O1  UNL     1       0.136  -2.820   0.804  1.00  0.00    -0.265 OA
HETATM    2  C1  UNL     1       0.092  -1.857   0.002  1.00  0.00     0.281 C 
HETATM    3  N1  UNL     1      -1.036  -1.661  -0.783  1.00  0.00    -0.300 N 
ATOM      4  H1  UNL     1      -1.203  -2.328  -1.536  1.00  0.00     0.171 HD
ENDROOT
BRANCH   3   5
HETATM    5  C2  UNL     1      -1.896  -0.700  -0.639  1.00  0.00     0.170 A 
HETATM    6  N2  UNL     1      -1.949   0.296   0.226  1.00  0.00    -0.311 N 
HETATM    7  C3  UNL     1      -2.955   1.143   0.140  1.00  0.00     0.187 A 
ATOM      8  H2  UNL     1      -1.231   0.407   0.942  1.00  0.00     0.170 HD
HETATM    9 CL1  UNL     1      -3.188   2.552   1.230  1.00  0.00    -0.044 Cl
HETATM   10  N3  UNL     1      -3.856   0.936  -0.819  1.00  0.00    -0.300 N 
HETATM   11  S1  UNL     1      -3.285  -0.442  -1.591  1.00  0.00     0.025 SA
ATOM     12  H3  UNL     1      -4.691   1.482  -1.033  1.00  0.00     0.177 HD
ENDBRANCH   3   5
BRANCH   2  13
HETATM   13  C4  UNL     1       1.225  -0.949  -0.100  1.00  0.00     0.146 A 
HETATM   14  C5  UNL     1       1.311   0.149  -0.938  1.00  0.00     0.066 A 
HETATM   15  C6  UNL     1       2.531   0.753  -0.747  1.00  0.00     0.059 A 
HETATM   16 BR1  UNL     1       3.216   2.321  -1.630  1.00  0.00    -0.047 Br
HETATM   17  C7  UNL     1       3.160  -0.005   0.215  1.00  0.00     0.163 A 
HETATM   18 CL2  UNL     1       4.769   0.357   0.818  1.00  0.00    -0.055 Cl
HETATM   19  O2  UNL     1       2.365  -0.981   0.560  1.00  0.00    -0.291 OA
ENDBRANCH   2  13
TORSDOF 2
