REMARK  11 active torsions:
REMARK  status: ('A' for Active; 'I' for Inactive)
REMARK    1  A    between atoms: C2_2  and  O1_3 
REMARK    2  A    between atoms: C2_2  and  C10_30 
REMARK    3  A    between atoms: O1_3  and  N1_4 
REMARK    4  A    between atoms: N1_4  and  C3_6 
REMARK    5  A    between atoms: C4_9  and  N3_10 
REMARK    6  A    between atoms: C8_16  and  O2_17 
REMARK    7  A    between atoms: C8_16  and  N4_19 
REMARK    8  A    between atoms: N4_19  and  N5_21 
REMARK    9  A    between atoms: C10_30  and  O3_31 
REMARK   10  A    between atoms: C10_30  and  C11_33 
REMARK   11  A    between atoms: C11_33  and  O4_34 
ROOT
HETATM    1  C3  UNL     1      -0.160   0.308   0.179  1.00  0.00     0.706 A 
HETATM    2  N2  UNL     1      -0.024   0.762   1.395  1.00  0.00    -0.173 N 
ATOM      3  H2  UNL     1       0.894   1.110   1.671  1.00  0.00     0.186 HD
HETATM    4  C4  UNL     1      -1.023   0.804   2.322  1.00  0.00     0.147 A 
HETATM    5  C5  UNL     1      -2.252   0.339   1.945  1.00  0.00     0.143 A 
HETATM    6  C6  UNL     1      -2.438  -0.161   0.626  1.00  0.00     0.117 A 
HETATM    7  C7  UNL     1      -3.725  -0.573   0.493  1.00  0.00     0.131 A 
HETATM    8  C8  UNL     1      -4.473  -1.048  -0.640  1.00  0.00     0.185 C 
HETATM    9  N6  UNL     1      -4.319  -0.336   1.716  1.00  0.00    -0.277 N 
ATOM     10  H6  UNL     1      -5.292  -0.541   1.945  1.00  0.00     0.189 HD
HETATM   11  N7  UNL     1      -3.445   0.193   2.541  1.00  0.00    -0.189 N 
HETATM   12 CL1  UNL     1      -3.761   0.661   4.208  1.00  0.00     0.036 Cl
HETATM   13  N8  UNL     1      -1.379  -0.164  -0.222  1.00  0.00    -0.181 N 
HETATM   14  C9  UNL     1      -1.528  -0.736  -1.539  1.00  0.00     0.176 C 
ENDROOT
BRANCH   1  15
HETATM   15  N1  UNL     1       0.782   0.264  -0.713  1.00  0.00    -0.096 N 
ATOM     16  H1  UNL     1       0.552  -0.113  -1.632  1.00  0.00     0.213 HD
BRANCH  15  17
HETATM   17  O1  UNL     1       2.049   0.686  -0.501  1.00  0.00    -0.259 OA
BRANCH  17  18
HETATM   18  C2  UNL     1       3.200   0.176  -1.097  1.00  0.00     0.179 C 
HETATM   19  C1  UNL     1       3.983   1.258  -1.785  1.00  0.00     0.045 C 
BRANCH  18  20
HETATM   20  C10 UNL     1       4.086  -0.436  -0.020  1.00  0.00     0.172 C 
BRANCH  20  21
HETATM   21  O3  UNL     1       3.428  -1.470   0.647  1.00  0.00    -0.391 OA
ATOM     22  H3  UNL     1       3.981  -1.852   1.319  1.00  0.00     0.210 HD
ENDBRANCH  20  21
BRANCH  20  23
HETATM   23  C11 UNL     1       4.506   0.630   0.971  1.00  0.00     0.198 C 
BRANCH  23  24
HETATM   24  O4  UNL     1       5.362   0.039   1.901  1.00  0.00    -0.398 OA
ATOM     25  H4  UNL     1       5.625   0.708   2.522  1.00  0.00     0.209 HD
ENDBRANCH  23  24
ENDBRANCH  20  23
ENDBRANCH  18  20
ENDBRANCH  17  18
ENDBRANCH  15  17
ENDBRANCH   1  15
BRANCH   4  26
HETATM   26  N3  UNL     1      -0.803   1.260   3.478  1.00  0.00    -0.383 N 
ATOM     27  H32 UNL     1       0.114   1.607   3.759  1.00  0.00     0.157 HD
ATOM     28  H31 UNL     1      -1.550   1.291   4.171  1.00  0.00     0.157 HD
ENDBRANCH   4  26
BRANCH   8  29
HETATM   29  O2  UNL     1      -5.067  -2.193  -0.478  1.00  0.00    -0.343 OA
ATOM     30  H2  UNL     1      -5.561  -2.507  -1.226  1.00  0.00     0.219 HD
ENDBRANCH   8  29
BRANCH   8  31
HETATM   31  N4  UNL     1      -4.676  -0.469  -1.890  1.00  0.00    -0.285 N 
ATOM     32  H4  UNL     1      -4.239   0.435  -2.070  1.00  0.00     0.188 HD
BRANCH  31  33
HETATM   33  N5  UNL     1      -5.437  -1.039  -2.917  1.00  0.00    -0.343 N 
ATOM     34  H52 UNL     1      -5.866  -1.943  -2.719  1.00  0.00     0.176 HD
ATOM     35  H51 UNL     1      -5.586  -0.615  -3.833  1.00  0.00     0.176 HD
ENDBRANCH  31  33
ENDBRANCH   8  31
TORSDOF 11
