REMARK  5 active torsions:
REMARK  status: ('A' for Active; 'I' for Inactive)
REMARK       I    between atoms: C1_2  and  N1_3 
REMARK       I    between atoms: C1_2  and  N2_7 
REMARK    1  A    between atoms: N1_3  and  O2_5 
REMARK    2  A    between atoms: N2_7  and  N3_8 
REMARK    3  A    between atoms: N3_8  and  N4_10 
REMARK    4  A    between atoms: N4_10  and  O3_11 
REMARK    5  A    between atoms: N4_10  and  N5_13 
ROOT
HETATM    1  N3  UNL     1      -0.894  -1.512  -1.110  1.00  0.00    -0.129 N 
ATOM      2  H3  UNL     1      -1.469  -2.136  -1.676  1.00  0.00     0.228 HD
ENDROOT
BRANCH   1   3
HETATM    3  N2  UNL     1       0.354  -1.722  -1.242  1.00  0.00    -0.244 NA
HETATM    4  C1  UNL     1       1.710  -1.951  -1.386  1.00  0.00     0.437 C 
HETATM    5  O1  UNL     1       2.566  -2.002  -0.437  1.00  0.00    -0.226 OA
HETATM    6  N1  UNL     1       2.303  -2.166  -2.672  1.00  0.00    -0.205 N 
ATOM      7  H1  UNL     1       1.726  -2.150  -3.513  1.00  0.00     0.200 HD
BRANCH   6   8
HETATM    8  O2  UNL     1       3.626  -2.389  -2.764  1.00  0.00    -0.285 OA
ATOM      9  H2  UNL     1       4.019  -2.532  -3.617  1.00  0.00     0.244 HD
ENDBRANCH   6   8
ENDBRANCH   1   3
BRANCH   1  10
HETATM   10  N4  UNL     1      -1.583  -0.679  -0.413  1.00  0.00    -0.071 N 
BRANCH  10  11
HETATM   11  O3  UNL     1      -2.941  -0.775  -0.553  1.00  0.00    -0.252 OA
ATOM     12  H3  UNL     1      -3.450  -0.160  -0.038  1.00  0.00     0.248 HD
ENDBRANCH  10  11
BRANCH  10  13
HETATM   13  N5  UNL     1      -1.028   0.252   0.438  1.00  0.00    -0.285 N 
HETATM   14  C2  UNL     1      -0.060   1.325   0.169  1.00  0.00     0.147 C 
HETATM   15  C3  UNL     1      -0.732   2.499   0.878  1.00  0.00     0.023 C 
HETATM   16  C4  UNL     1      -1.548   1.889   1.983  1.00  0.00     0.023 C 
HETATM   17  C5  UNL     1      -1.269   0.406   1.852  1.00  0.00     0.147 C 
ENDBRANCH  10  13
ENDBRANCH   1  10
TORSDOF 5
