REMARK  6 active torsions:
REMARK  status: ('A' for Active; 'I' for Inactive)
REMARK    1  A    between atoms: C2_2  and  N1_3 
REMARK    2  A    between atoms: C2_2  and  C8_10 
REMARK    3  A    between atoms: C3_5  and  C4_6 
REMARK    4  A    between atoms: C8_10  and  O2_12 
REMARK    5  A    between atoms: O2_12  and  N2_13 
REMARK    6  A    between atoms: N2_13  and  O3_14 
ROOT
HETATM    1  C1  UNL     1       1.427  -0.901  -2.274  1.00  0.00     0.043 C 
HETATM    2  C2  UNL     1       1.414  -0.868  -0.756  1.00  0.00     0.178 C 
ENDROOT
BRANCH   2   3
HETATM    3  N1  UNL     1       0.284  -0.131  -0.266  1.00  0.00    -0.388 N 
HETATM    4  C3  UNL     1      -0.889  -0.640  -0.237  1.00  0.00     0.065 C 
ATOM      5  H1  UNL     1       0.420   0.823   0.068  1.00  0.00     0.159 HD
BRANCH   4   6
HETATM    6  C4  UNL     1      -2.069   0.108   0.267  1.00  0.00    -0.020 C 
HETATM    7  C5  UNL     1      -2.258  -0.100   1.754  1.00  0.00     0.020 C 
HETATM    8  C6  UNL     1      -3.348  -0.293  -0.441  1.00  0.00     0.020 C 
HETATM    9  C7  UNL     1      -1.846   1.587  -0.043  1.00  0.00     0.020 C 
ENDBRANCH   4   6
ENDBRANCH   2   3
BRANCH   2  10
HETATM   10  C8  UNL     1       2.693  -0.338  -0.223  1.00  0.00     0.301 C 
HETATM   11  O1  UNL     1       3.752  -0.909  -0.588  1.00  0.00    -0.261 OA
BRANCH  10  12
HETATM   12  O2  UNL     1       2.797   0.728   0.636  1.00  0.00    -0.178 OA
BRANCH  12  13
HETATM   13  N2  UNL     1       4.036   1.173   1.098  1.00  0.00     0.072 NA
BRANCH  13  14
HETATM   14  O3  UNL     1       4.672   0.045   1.539  1.00  0.00    -0.271 OA
ATOM     15  H3  UNL     1       5.516   0.348   1.854  1.00  0.00     0.241 HD
ENDBRANCH  13  14
ENDBRANCH  12  13
ENDBRANCH  10  12
ENDBRANCH   2  10
TORSDOF 6
