REMARK  5 active torsions:
REMARK  status: ('A' for Active; 'I' for Inactive)
REMARK    1  A    between atoms: C1_2  and  N1_3 
REMARK    2  A    between atoms: C1_2  and  N2_8 
REMARK    3  A    between atoms: N1_3  and  C2_5 
REMARK    4  A    between atoms: C2_5  and  C3_6 
REMARK    5  A    between atoms: N2_8  and  N3_10 
ROOT
HETATM    1  N2  UNL     1      -0.839   0.875  -0.553  1.00  0.00    -0.277 N 
ATOM      2  H2  UNL     1      -0.959   1.702   0.032  1.00  0.00     0.189 HD
ENDROOT
BRANCH   1   3
HETATM    3  C1  UNL     1      -1.871  -0.095  -0.615  1.00  0.00     0.186 C 
HETATM    4  S1  UNL     1      -1.663  -1.408  -1.555  1.00  0.00    -0.040 SA
BRANCH   3   5
HETATM    5  N1  UNL     1      -3.073   0.065   0.126  1.00  0.00    -0.365 N 
ATOM      6  H1  UNL     1      -3.202   0.888   0.714  1.00  0.00     0.161 HD
BRANCH   5   7
HETATM    7  C2  UNL     1      -4.116  -0.938   0.048  1.00  0.00     0.137 C 
BRANCH   7   8
HETATM    8  C3  UNL     1      -5.267  -0.505   0.934  1.00  0.00     0.134 C 
HETATM    9 CL1  UNL     1      -5.851   1.060   0.334  1.00  0.00    -0.129 Cl
ENDBRANCH   7   8
ENDBRANCH   5   7
ENDBRANCH   3   5
ENDBRANCH   1   3
BRANCH   1  10
HETATM   10  N3  UNL     1       0.337   0.711  -1.282  1.00  0.00    -0.307 N 
HETATM   11  C4  UNL     1       1.405   0.212  -0.761  1.00  0.00     0.004 C 
HETATM   12  C5  UNL     1       1.417  -0.208   0.642  1.00  0.00     0.054 C 
HETATM   13  C9  UNL     1       2.623   0.068  -1.600  1.00  0.00     0.054 C 
HETATM   14  C6  UNL     1       2.695   0.158   1.358  1.00  0.00     0.006 C 
HETATM   15  C7  UNL     1       3.903   0.056   0.476  1.00  0.00     0.001 C 
HETATM   16  C8  UNL     1       3.750   0.767  -0.836  1.00  0.00     0.006 C 
ATOM     17  H3  UNL     1       0.353   0.996  -2.261  1.00  0.00     0.186 HD
ENDBRANCH   1  10
TORSDOF 5
