REMARK  3 active torsions:
REMARK  status: ('A' for Active; 'I' for Inactive)
REMARK    1  A    between atoms: C3_4  and  C4_5 
REMARK    2  A    between atoms: C4_5  and  N2_6 
REMARK    3  A    between atoms: N2_6  and  C5_8 
ROOT
HETATM    1  C1  UNL     1      -2.774  -2.196  -0.495  1.00  0.00     0.314 C 
HETATM    2  N1  UNL     1      -2.048  -0.998  -0.830  1.00  0.00     0.127 N 
HETATM    3  C2  UNL     1      -0.710  -1.105  -0.352  1.00  0.00     0.309 C 
HETATM    4  C3  UNL     1      -0.297   0.051   0.494  1.00  0.00     0.167 C 
HETATM    5  O1  UNL     1      -0.546   1.227  -0.199  1.00  0.00    -0.378 OA
HETATM    6  C9  UNL     1      -1.900   1.396  -0.314  1.00  0.00     0.243 C 
HETATM    7  C10 UNL     1      -2.719   0.151  -0.342  1.00  0.00     0.314 C 
HETATM    8  C11 UNL     1      -3.977   0.484  -1.162  1.00  0.00     0.106 C 
HETATM    9  C12 UNL     1      -4.680   1.356  -0.110  1.00  0.00     0.215 C 
HETATM   10  O2  UNL     1      -4.073   1.015   1.096  1.00  0.00    -0.238 OA
HETATM   11  O3  UNL     1      -3.359  -0.068   0.902  1.00  0.00    -0.194 OA
ENDROOT
BRANCH   4  12
HETATM   12  C4  UNL     1       1.158  -0.010   0.889  1.00  0.00     0.148 C 
BRANCH  12  13
HETATM   13  N2  UNL     1       1.993   0.034  -0.269  1.00  0.00    -0.411 N 
ATOM     14  H2  UNL     1       1.615   0.075  -1.215  1.00  0.00     0.154 HD
BRANCH  13  15
HETATM   15  C5  UNL     1       3.398   0.017  -0.005  1.00  0.00     0.014 C 
HETATM   16  C6  UNL     1       3.875   1.219   0.782  1.00  0.00     0.037 C 
HETATM   17  C7  UNL     1       3.868  -1.226   0.714  1.00  0.00     0.037 C 
HETATM   18  C8  UNL     1       4.174   0.065  -1.326  1.00  0.00     0.037 C 
ENDBRANCH  13  15
ENDBRANCH  12  13
ENDBRANCH   4  12
TORSDOF 3
