REMARK  4 active torsions:
REMARK  status: ('A' for Active; 'I' for Inactive)
REMARK    1  A    between atoms: O1_2  and  C2_3 
REMARK    2  A    between atoms: C7_8  and  O2_9 
REMARK    3  A    between atoms: O2_9  and  C8_10 
REMARK    4  A    between atoms: C12_18  and  C13_19 
ROOT
HETATM    1  C2  UNL     1       2.309   0.226   0.019  1.00  0.00     0.103 A 
HETATM    2  C3  UNL     1       1.281  -0.716   0.171  1.00  0.00     0.052 A 
HETATM    3  C4  UNL     1      -0.031  -0.327   0.128  1.00  0.00     0.017 A 
HETATM    4  C5  UNL     1      -0.392   1.014  -0.067  1.00  0.00     0.084 A 
HETATM    5  C6  UNL     1       0.614   1.920  -0.214  1.00  0.00     0.077 A 
HETATM    6  C7  UNL     1       1.941   1.529  -0.170  1.00  0.00     0.118 A 
HETATM    7  O5  UNL     1      -1.750   1.283  -0.093  1.00  0.00    -0.314 OA
HETATM    8  C9  UNL     1      -2.652   0.302  -0.627  1.00  0.00     0.164 C 
HETATM    9  C10 UNL     1      -3.158   0.733  -1.988  1.00  0.00     0.079 C 
HETATM   10  C11 UNL     1      -3.824   0.245   0.308  1.00  0.00     0.079 C 
HETATM   11  O6  UNL     1      -2.033  -0.934  -0.800  1.00  0.00    -0.335 OA
HETATM   12  C12 UNL     1      -1.197  -1.244   0.278  1.00  0.00     0.261 C 
ENDROOT
BRANCH   6  13
HETATM   13  O2  UNL     1       2.963   2.463  -0.321  1.00  0.00    -0.250 OA
BRANCH  13  14
HETATM   14  C8  UNL     1       3.468   3.091   0.815  1.00  0.00     0.338 C 
HETATM   15  O3  UNL     1       3.026   2.839   1.980  1.00  0.00    -0.623 OA
HETATM   16  O4  UNL     1       4.490   4.028   0.689  1.00  0.00    -0.623 OA
ENDBRANCH  13  14
ENDBRANCH   6  13
BRANCH   1  17
HETATM   17  O1  UNL     1       3.592  -0.232   0.073  1.00  0.00    -0.353 OA
HETATM   18  C1  UNL     1       4.016  -1.536   0.262  1.00  0.00     0.210 C 
ENDBRANCH   1  17
BRANCH  12  19
HETATM   19  C13 UNL     1      -0.868  -2.670   0.194  1.00  0.00     0.208 C 
HETATM   20  O7  UNL     1      -1.264  -3.377  -0.759  1.00  0.00    -0.646 OA
HETATM   21  O8  UNL     1      -0.104  -3.265   1.183  1.00  0.00    -0.646 OA
ENDBRANCH  12  19
TORSDOF 4
