REMARK  11 active torsions:
REMARK  status: ('A' for Active; 'I' for Inactive)
REMARK    1  A    between atoms: C6_6  and  C7_7 
REMARK    2  A    between atoms: C7_7  and  C10_10 
REMARK    3  A    between atoms: C10_10  and  O1_11 
REMARK    4  A    between atoms: O1_11  and  C11_12 
REMARK    5  A    between atoms: C13_17  and  C14_18 
REMARK    6  A    between atoms: C14_18  and  C15_19 
REMARK    7  A    between atoms: C15_19  and  O3_21 
REMARK    8  A    between atoms: O3_21  and  C16_22 
REMARK    9  A    between atoms: C16_22  and  C17_23 
REMARK   10  A    between atoms: C17_23  and  C18_24 
REMARK   11  A    between atoms: C18_24  and  O4_25 
ROOT
HETATM    1  C11 UNL     1      -0.248  -1.588  -0.412  1.00  0.00     0.156 A 
HETATM    2  N1  UNL     1       0.013  -2.661  -1.094  1.00  0.00    -0.340 N 
ATOM      3  H1  UNL     1       0.950  -2.815  -1.466  1.00  0.00     0.167 HD
HETATM    4  C12 UNL     1      -0.942  -3.558  -1.306  1.00  0.00     0.140 A 
HETATM    5  S1  UNL     1      -2.280  -2.864  -0.508  1.00  0.00    -0.085 SA
HETATM    6  C13 UNL     1      -1.519  -1.425   0.067  1.00  0.00     0.044 A 
ENDROOT
BRANCH   1   7
HETATM    7  O1  UNL     1       0.746  -0.601  -0.160  1.00  0.00    -0.334 OA
BRANCH   7   8
HETATM    8  C10 UNL     1       2.062  -0.731  -0.633  1.00  0.00     0.186 C 
BRANCH   8   9
HETATM    9  C7  UNL     1       2.887   0.489  -0.190  1.00  0.00    -0.022 C 
HETATM   10  C8  UNL     1       2.177   1.665  -0.836  1.00  0.00     0.017 C 
HETATM   11  C9  UNL     1       2.761   0.573   1.290  1.00  0.00     0.017 C 
BRANCH   9  12
HETATM   12  C6  UNL     1       4.269   0.296  -0.715  1.00  0.00    -0.005 C 
HETATM   13  C5  UNL     1       5.102   1.534  -0.491  1.00  0.00     0.006 C 
HETATM   14  C4  UNL     1       6.558   1.290  -0.819  1.00  0.00     0.009 C 
HETATM   15  C2  UNL     1       7.136   0.153  -0.019  1.00  0.00    -0.048 C 
HETATM   16  C1  UNL     1       8.177   0.689   0.974  1.00  0.00     0.015 C 
HETATM   17  C3  UNL     1       7.898  -0.768  -0.951  1.00  0.00     0.015 C 
HETATM   18  C24 UNL     1       6.115  -0.595   0.768  1.00  0.00     0.009 C 
HETATM   19  C23 UNL     1       4.870  -0.915  -0.037  1.00  0.00     0.006 C 
ENDBRANCH   9  12
ENDBRANCH   8   9
ENDBRANCH   7   8
ENDBRANCH   1   7
BRANCH   6  20
HETATM   20  C14 UNL     1      -2.115  -0.297   0.853  1.00  0.00     0.161 C 
BRANCH  20  21
HETATM   21  C15 UNL     1      -3.428  -0.733   1.400  1.00  0.00     0.263 C 
HETATM   22  O2  UNL     1      -3.422  -1.603   2.294  1.00  0.00    -0.265 OA
BRANCH  21  23
HETATM   23  O3  UNL     1      -4.624  -0.224   0.966  1.00  0.00    -0.320 OA
BRANCH  23  24
HETATM   24  C16 UNL     1      -5.866  -0.654   1.512  1.00  0.00     0.190 C 
BRANCH  24  25
HETATM   25  C17 UNL     1      -6.997   0.040   0.784  1.00  0.00     0.003 C 
HETATM   26  C19 UNL     1      -6.894  -0.342  -0.689  1.00  0.00     0.014 C 
HETATM   27  C20 UNL     1      -7.486   0.808  -1.434  1.00  0.00     0.001 C 
HETATM   28  C21 UNL     1      -7.350   2.017  -0.552  1.00  0.00     0.001 C 
HETATM   29  C22 UNL     1      -6.874   1.545   0.803  1.00  0.00     0.014 C 
BRANCH  25  30
HETATM   30  C18 UNL     1      -8.354  -0.343   1.308  1.00  0.00     0.175 C 
BRANCH  30  31
HETATM   31  O4  UNL     1      -9.375   0.313   0.615  1.00  0.00    -0.400 OA
ATOM     32  H4  UNL     1     -10.232   0.071   0.946  1.00  0.00     0.209 HD
ENDBRANCH  30  31
ENDBRANCH  25  30
ENDBRANCH  24  25
ENDBRANCH  23  24
ENDBRANCH  21  23
ENDBRANCH  20  21
ENDBRANCH   6  20
TORSDOF 11
