REMARK  10 active torsions:
REMARK  status: ('A' for Active; 'I' for Inactive)
REMARK    1  A    between atoms: C4_5  and  O2_6 
REMARK    2  A    between atoms: C4_5  and  C5_8 
REMARK    3  A    between atoms: C5_8  and  C6_9 
REMARK    4  A    between atoms: C8_11  and  C9_12 
REMARK    5  A    between atoms: C13_16  and  C14_17 
REMARK    6  A    between atoms: C14_17  and  O3_18 
REMARK    7  A    between atoms: O3_18  and  N1_19 
REMARK    8  A    between atoms: C17_26  and  C18_27 
REMARK    9  A    between atoms: C20_29  and  C21_30 
REMARK   10  A    between atoms: C21_30  and  C22_31 
ROOT
HETATM    1  C5  UNL     1       0.300  -1.415   0.504  1.00  0.00     0.103 C 
ENDROOT
BRANCH   1   2
HETATM    2  C4  UNL     1       1.090  -1.200  -0.753  1.00  0.00     0.176 C 
HETATM    3  O1  UNL     1       0.399  -1.737  -1.860  1.00  0.00    -0.350 OA
HETATM    4  C3  UNL     1       1.308  -2.075  -2.822  1.00  0.00     0.206 C 
HETATM    5  C2  UNL     1       2.660  -1.882  -2.239  1.00  0.00    -0.052 C 
HETATM    6  C1  UNL     1       3.778  -1.709  -2.882  1.00  0.00     0.017 C 
HETATM    7  C17 UNL     1       2.402  -1.931  -0.780  1.00  0.00     0.106 C 
BRANCH   7   8
HETATM    8  C18 UNL     1       3.483  -1.372   0.043  1.00  0.00    -0.074 C 
HETATM    9  C19 UNL     1       4.748  -2.216   0.063  1.00  0.00     0.044 C 
HETATM   10  C20 UNL     1       3.494  -0.294   0.772  1.00  0.00    -0.020 C 
BRANCH  10  11
HETATM   11  C21 UNL     1       4.699   0.106   1.540  1.00  0.00     0.054 C 
BRANCH  11  12
HETATM   12  C22 UNL     1       5.174   1.461   1.162  1.00  0.00    -0.021 C 
HETATM   13  C23 UNL     1       6.358   1.779   0.710  1.00  0.00    -0.091 C 
HETATM   14  C24 UNL     1       6.664   3.190   0.380  1.00  0.00     0.042 C 
HETATM   15  C25 UNL     1       7.418   0.764   0.526  1.00  0.00     0.042 C 
ENDBRANCH  11  12
ENDBRANCH  10  11
ENDBRANCH   7   8
BRANCH   2  16
HETATM   16  O2  UNL     1       1.285   0.128  -1.064  1.00  0.00    -0.364 OA
ATOM     17  H2  UNL     1       1.750   0.490  -0.319  1.00  0.00     0.213 HD
ENDBRANCH   2  16
ENDBRANCH   1   2
BRANCH   1  18
HETATM   18  C6  UNL     1      -1.039  -0.769   0.474  1.00  0.00    -0.076 C 
HETATM   19  C7  UNL     1      -1.073   0.708   0.382  1.00  0.00     0.043 C 
HETATM   20  C8  UNL     1      -2.158  -1.446   0.545  1.00  0.00     0.032 C 
BRANCH  20  21
HETATM   21  C9  UNL     1      -3.439  -0.760   0.508  1.00  0.00     0.033 A 
HETATM   22  C10 UNL     1      -4.464  -1.186   1.345  1.00  0.00     0.037 A 
HETATM   23  C11 UNL     1      -5.689  -0.571   1.327  1.00  0.00    -0.049 A 
HETATM   24  C12 UNL     1      -6.799  -0.983   2.188  1.00  0.00     0.049 C 
HETATM   25  C13 UNL     1      -5.888   0.497   0.447  1.00  0.00    -0.004 A 
HETATM   26  C15 UNL     1      -4.881   0.922  -0.383  1.00  0.00     0.014 A 
HETATM   27  C16 UNL     1      -5.009   2.044  -1.345  1.00  0.00     0.069 C 
HETATM   28  N2  UNL     1      -3.688   0.264  -0.311  1.00  0.00    -0.359 N 
ATOM     29  H2  UNL     1      -2.935   0.576  -0.925  1.00  0.00     0.166 HD
BRANCH  25  30
HETATM   30  C14 UNL     1      -7.198   1.122   0.457  1.00  0.00     0.249 C 
BRANCH  30  31
HETATM   31  O3  UNL     1      -7.332   2.181  -0.445  1.00  0.00    -0.217 OA
BRANCH  31  32
HETATM   32  N1  UNL     1      -8.473   2.903  -0.597  1.00  0.00     0.005 N 
HETATM   33  O4  UNL     1      -8.643   3.894   0.149  1.00  0.00    -0.511 OA
HETATM   34  O5  UNL     1      -9.386   2.535  -1.541  1.00  0.00    -0.511 OA
ENDBRANCH  31  32
ENDBRANCH  30  31
ENDBRANCH  25  30
ENDBRANCH  20  21
ENDBRANCH   1  18
TORSDOF 10
