REMARK  10 active torsions:
REMARK  status: ('A' for Active; 'I' for Inactive)
REMARK    1  A    between atoms: C3_8  and  C4_9 
REMARK    2  A    between atoms: C4_9  and  O1_10 
REMARK    3  A    between atoms: C4_9  and  N3_12 
REMARK    4  A    between atoms: N3_12  and  C5_13 
REMARK    5  A    between atoms: C5_13  and  O2_14 
REMARK    6  A    between atoms: O2_14  and  N4_15 
REMARK    7  A    between atoms: N5_18  and  O3_19 
REMARK    8  A    between atoms: O3_19  and  C6_20 
REMARK    9  A    between atoms: C6_20  and  C7_21 
REMARK       I    between atoms: C7_21  and  N6_23 
REMARK   10  A    between atoms: N6_23  and  N7_24 
ROOT
HETATM    1  N1  UNL     1       0.286  -2.276   3.317  1.00  0.00    -0.232 N 
ATOM      2  H11 UNL     1       1.279  -2.263   3.086  1.00  0.00     0.174 HD
ATOM      3  H12 UNL     1       0.165  -2.613   4.272  1.00  0.00     0.174 HD
HETATM    4  C1  UNL     1      -0.553  -1.784   2.468  1.00  0.00     0.703 A 
HETATM    5  N2  UNL     1      -1.893  -1.802   2.780  1.00  0.00    -0.198 N 
ATOM      6  H2  UNL     1      -2.295  -2.091   3.672  1.00  0.00     0.183 HD
HETATM    7  C2  UNL     1      -2.577  -1.376   1.715  1.00  0.00     0.144 A 
HETATM    8  C3  UNL     1      -1.670  -1.096   0.756  1.00  0.00     0.162 A 
HETATM    9  N5  UNL     1      -0.395  -1.345   1.223  1.00  0.00    -0.043 N 
ENDROOT
BRANCH   8  10
HETATM   10  C4  UNL     1      -1.937  -0.558  -0.607  1.00  0.00     0.242 C 
BRANCH  10  11
HETATM   11  O1  UNL     1      -1.725  -1.505  -1.481  1.00  0.00    -0.334 OA
ATOM     12  H1  UNL     1      -1.895  -1.162  -2.350  1.00  0.00     0.220 HD
ENDBRANCH  10  11
BRANCH  10  13
HETATM   13  N3  UNL     1      -2.333   0.724  -0.819  1.00  0.00    -0.394 NA
BRANCH  13  14
HETATM   14  C5  UNL     1      -2.728   2.001  -1.030  1.00  0.00     0.421 C 
BRANCH  14  15
HETATM   15  O2  UNL     1      -1.715   2.680  -1.803  1.00  0.00    -0.255 OA
BRANCH  15  16
HETATM   16  N4  UNL     1      -0.552   2.598  -1.079  1.00  0.00    -0.308 N 
ATOM     17  H42 UNL     1      -0.441   2.143  -0.173  1.00  0.00     0.184 HD
ATOM     18  H41 UNL     1       0.164   3.078  -1.625  1.00  0.00     0.184 HD
ENDBRANCH  15  16
ENDBRANCH  14  15
ENDBRANCH  13  14
ENDBRANCH  10  13
ENDBRANCH   8  10
BRANCH   9  19
HETATM   19  O3  UNL     1       0.739  -1.037   0.617  1.00  0.00    -0.249 OA
BRANCH  19  20
HETATM   20  C6  UNL     1       1.479  -0.905  -0.464  1.00  0.00     0.323 C 
BRANCH  20  21
HETATM   21  C7  UNL     1       2.796  -0.234   0.014  1.00  0.00     0.337 C 
HETATM   22  O4  UNL     1       2.942  -0.277   1.258  1.00  0.00    -0.253 OA
HETATM   23  N6  UNL     1       3.589   0.308  -0.894  1.00  0.00    -0.292 NA
BRANCH  23  24
HETATM   24  N7  UNL     1       4.387   0.853  -1.807  1.00  0.00    -0.277 N 
ATOM     25  H72 UNL     1       3.791   0.429  -1.096  1.00  0.00     0.191 HD
ATOM     26  H71 UNL     1       4.999   1.271  -2.508  1.00  0.00     0.191 HD
ENDBRANCH  23  24
ENDBRANCH  20  21
ENDBRANCH  19  20
ENDBRANCH   9  19
TORSDOF 10
