REMARK  6 active torsions:
REMARK  status: ('A' for Active; 'I' for Inactive)
REMARK    1  A    between atoms: C1_4  and  N2_5 
REMARK    2  A    between atoms: C1_4  and  C2_14 
REMARK    3  A    between atoms: N2_5  and  N3_7 
REMARK    4  A    between atoms: N3_7  and  N4_9 
REMARK    5  A    between atoms: N4_9  and  N5_11 
REMARK       I    between atoms: C2_14  and  N6_16 
REMARK    6  A    between atoms: N6_16  and  N7_18 
REMARK       I    between atoms: N7_18  and  C3_20 
ROOT
HETATM    1  N1  UNL     1       1.410   1.839  -1.727  1.00  0.00    -0.380 N 
ATOM      2  H11 UNL     1       0.855   2.577  -2.160  1.00  0.00     0.158 HD
ATOM      3  H12 UNL     1       2.417   1.856  -1.891  1.00  0.00     0.158 HD
HETATM    4  C1  UNL     1       0.940   0.896  -1.019  1.00  0.00     0.185 C 
ENDROOT
BRANCH   4   5
HETATM    5  N2  UNL     1       1.715  -0.134  -0.414  1.00  0.00    -0.266 N 
ATOM      6  H2  UNL     1       1.411  -1.107  -0.455  1.00  0.00     0.190 HD
BRANCH   5   7
HETATM    7  N3  UNL     1       2.810   0.189   0.187  1.00  0.00    -0.227 N 
ATOM      8  H3  UNL     1       3.101   1.166   0.218  1.00  0.00     0.210 HD
BRANCH   7   9
HETATM    9  N4  UNL     1       3.602  -0.793   0.797  1.00  0.00    -0.235 N 
ATOM     10  H4  UNL     1       3.126  -1.598   1.203  1.00  0.00     0.209 HD
BRANCH   9  11
HETATM   11  N5  UNL     1       4.969  -0.752   0.889  1.00  0.00    -0.330 N 
ATOM     12  H52 UNL     1       5.428   0.061   0.478  1.00  0.00     0.178 HD
ATOM     13  H51 UNL     1       5.545  -1.467   1.333  1.00  0.00     0.178 HD
ENDBRANCH   9  11
ENDBRANCH   7   9
ENDBRANCH   5   7
ENDBRANCH   4   5
BRANCH   4  14
HETATM   14  C2  UNL     1      -0.537   0.871  -0.779  1.00  0.00     0.304 C 
HETATM   15  O1  UNL     1      -1.215   1.793  -1.281  1.00  0.00    -0.263 OA
HETATM   16  N6  UNL     1      -1.065  -0.176  -0.014  1.00  0.00    -0.260 N 
ATOM     17  H6  UNL     1      -0.359  -0.836   0.312  1.00  0.00     0.190 HD
BRANCH  16  18
HETATM   18  N7  UNL     1      -2.326  -0.492   0.383  1.00  0.00    -0.251 N 
HETATM   19  C3  UNL     1      -3.541  -0.049  -0.127  1.00  0.00     0.347 C 
HETATM   20  N8  UNL     1      -4.751  -0.539   0.479  1.00  0.00    -0.038 NA
HETATM   21  O2  UNL     1      -3.657   0.768  -1.111  1.00  0.00    -0.249 OA
ATOM     22  H7  UNL     1      -2.390  -1.145   1.164  1.00  0.00     0.191 HD
ENDBRANCH  16  18
ENDBRANCH   4  14
TORSDOF 6
