REMARK  6 active torsions:
REMARK  status: ('A' for Active; 'I' for Inactive)
REMARK    1  A    between atoms: C2_2  and  C4_4 
REMARK    2  A    between atoms: C4_4  and  N1_5 
REMARK       I    between atoms: N1_5  and  C5_7 
REMARK    3  A    between atoms: C5_7  and  C6_9 
REMARK    4  A    between atoms: C6_9  and  N2_10 
REMARK       I    between atoms: N2_10  and  C7_12 
REMARK    5  A    between atoms: C7_12  and  C8_14 
REMARK    6  A    between atoms: C9_15  and  C10_16 
REMARK       I    between atoms: N3_21  and  C13_22 
ROOT
HETATM    1  N2  UNL     1      -0.683   0.246  -0.378  1.00  0.00    -0.341 N 
ATOM      2  H2  UNL     1      -0.988   0.067  -1.335  1.00  0.00     0.163 HD
HETATM    3  C7  UNL     1      -1.520  -0.241   0.642  1.00  0.00     0.242 C 
HETATM    4  O2  UNL     1      -1.145  -0.019   1.819  1.00  0.00    -0.271 OA
ENDROOT
BRANCH   1   5
HETATM    5  C6  UNL     1       0.531   0.954  -0.231  1.00  0.00     0.114 C 
HETATM    6  C14 UNL     1       1.146   1.367  -1.554  1.00  0.00     0.041 C 
HETATM    7  C15 UNL     1       0.913   2.837  -1.732  1.00  0.00     0.003 C 
HETATM    8  C16 UNL     1      -0.226   3.102  -0.775  1.00  0.00     0.003 C 
HETATM    9  C17 UNL     1       0.259   2.284   0.431  1.00  0.00     0.041 C 
BRANCH   5  10
HETATM   10  C5  UNL     1       1.613   0.194   0.491  1.00  0.00     0.246 C 
HETATM   11  N1  UNL     1       2.867   0.782   0.741  1.00  0.00    -0.359 N 
ATOM     12  H1  UNL     1       2.984   1.744   0.422  1.00  0.00     0.162 HD
HETATM   13  O1  UNL     1       1.351  -0.959   0.851  1.00  0.00    -0.271 OA
BRANCH  11  14
HETATM   14  C4  UNL     1       3.987   0.198   1.383  1.00  0.00     0.126 C 
BRANCH  14  15
HETATM   15  C2  UNL     1       4.718  -0.919   0.776  1.00  0.00    -0.005 C 
HETATM   16  C1  UNL     1       5.887  -1.264   1.752  1.00  0.00     0.011 C 
HETATM   17  C3  UNL     1       4.062  -2.205   0.474  1.00  0.00     0.011 C 
ENDBRANCH  14  15
ENDBRANCH  11  14
ENDBRANCH   5  10
ENDBRANCH   1   5
BRANCH   3  18
HETATM   18  C8  UNL     1      -2.765  -0.969   0.462  1.00  0.00     0.193 C 
HETATM   19  C9  UNL     1      -3.970  -0.416   1.136  1.00  0.00     0.120 C 
HETATM   20  C11 UNL     1      -5.004  -0.269   0.011  1.00  0.00     0.038 C 
HETATM   21  C12 UNL     1      -4.218  -0.306  -1.265  1.00  0.00     0.127 C 
HETATM   22  N3  UNL     1      -3.123  -1.183  -0.927  1.00  0.00    -0.342 N 
HETATM   23  C13 UNL     1      -2.531  -2.093  -1.857  1.00  0.00     0.184 C 
HETATM   24  N4  UNL     1      -2.587  -1.868  -3.139  1.00  0.00    -0.374 N 
HETATM   25  N5  UNL     1      -1.895  -3.229  -1.314  1.00  0.00    -0.064 NA
ATOM     26  H42 UNL     1      -3.047  -1.047  -3.532  1.00  0.00     0.158 HD
ATOM     27  H41 UNL     1      -2.165  -2.517  -3.803  1.00  0.00     0.158 HD
BRANCH  19  28
HETATM   28  C10 UNL     1      -3.824   0.864   1.784  1.00  0.00     0.179 C 
HETATM   29  O3  UNL     1      -4.021   1.008   3.009  1.00  0.00    -0.648 OA
HETATM   30  O4  UNL     1      -3.459   1.978   1.053  1.00  0.00    -0.648 OA
ENDBRANCH  19  28
ENDBRANCH   3  18
TORSDOF 6
