REMARK  8 active torsions:
REMARK  status: ('A' for Active; 'I' for Inactive)
REMARK    1  A    between atoms: S1_2  and  C2_3 
REMARK    2  A    between atoms: C2_3  and  N2_7 
REMARK       I    between atoms: C3_9  and  N3_10 
REMARK       I    between atoms: C3_9  and  N4_18 
REMARK    3  A    between atoms: N3_10  and  C4_12 
REMARK    4  A    between atoms: N4_18  and  C10_20 
REMARK    5  A    between atoms: C10_20  and  C11_21 
REMARK    6  A    between atoms: C10_20  and  C12_23 
REMARK       I    between atoms: C12_23  and  N5_25 
REMARK    7  A    between atoms: N5_25  and  C13_27 
REMARK    8  A    between atoms: C13_27  and  C15_29 
ROOT
HETATM    1  N2  UNL     1      -1.591   1.817   0.019  1.00  0.00    -0.171 N 
ATOM      2  H2  UNL     1      -2.461   1.353   0.281  1.00  0.00     0.186 HD
HETATM    3  C3  UNL     1      -0.941   0.877  -0.322  1.00  0.00     0.677 C 
HETATM    4  N3  UNL     1      -1.545  -0.414  -0.262  1.00  0.00    -0.222 N 
ATOM      5  H3  UNL     1      -1.197  -0.954   0.530  1.00  0.00     0.178 HD
HETATM    6  N4  UNL     1       0.460   0.907  -0.779  1.00  0.00    -0.207 N 
ATOM      7  H4  UNL     1       0.662   1.253  -1.717  1.00  0.00     0.179 HD
ENDROOT
BRANCH   1   8
HETATM    8  C2  UNL     1      -1.907   3.080   0.276  1.00  0.00     0.152 C 
HETATM    9  N1  UNL     1      -2.527   3.173   1.477  1.00  0.00    -0.379 N 
ATOM     10  H12 UNL     1      -2.770   4.144   1.675  1.00  0.00     0.158 HD
ATOM     11  H11 UNL     1      -2.698   2.285   1.949  1.00  0.00     0.158 HD
BRANCH   8  12
HETATM   12  S1  UNL     1      -1.611   4.619  -0.542  1.00  0.00    -0.098 SA
HETATM   13  C1  UNL     1      -2.376   6.006   0.374  1.00  0.00     0.099 C 
ENDBRANCH   8  12
ENDBRANCH   1   8
BRANCH   4  14
HETATM   14  C4  UNL     1      -2.493  -1.140  -1.006  1.00  0.00     0.099 C 
HETATM   15  C5  UNL     1      -2.248  -2.652  -0.756  1.00  0.00     0.026 C 
HETATM   16  C6  UNL     1      -2.725  -3.075   0.592  1.00  0.00     0.002 C 
HETATM   17  C7  UNL     1      -4.242  -3.114   0.649  1.00  0.00     0.000 C 
HETATM   18  C8  UNL     1      -4.695  -2.126  -0.433  1.00  0.00     0.002 C 
HETATM   19  C9  UNL     1      -3.859  -0.897  -0.331  1.00  0.00     0.026 C 
ENDBRANCH   4  14
BRANCH   6  20
HETATM   20  C10 UNL     1       1.497   0.491   0.002  1.00  0.00     0.252 C 
BRANCH  20  21
HETATM   21  C11 UNL     1       1.269  -0.802   0.734  1.00  0.00     0.266 C 
HETATM   22  O1  UNL     1       1.050  -0.726   1.944  1.00  0.00    -0.304 OA
ENDBRANCH  20  21
BRANCH  20  23
HETATM   23  C12 UNL     1       2.823   0.188  -0.623  1.00  0.00     0.248 C 
HETATM   24  O2  UNL     1       2.816  -0.415  -1.725  1.00  0.00    -0.271 OA
HETATM   25  N5  UNL     1       3.985   0.589   0.080  1.00  0.00    -0.346 N 
ATOM     26  H5  UNL     1       3.821   1.154   0.913  1.00  0.00     0.163 HD
BRANCH  25  27
HETATM   27  C13 UNL     1       5.358   0.311  -0.217  1.00  0.00     0.169 C 
HETATM   28  C14 UNL     1       5.763   0.462  -1.622  1.00  0.00     0.042 C 
BRANCH  27  29
HETATM   29  C15 UNL     1       5.460  -1.195   0.187  1.00  0.00     0.253 C 
HETATM   30  N6  UNL     1       5.238  -1.397   1.564  1.00  0.00    -0.060 NA
HETATM   31  O3  UNL     1       5.695  -2.064  -0.649  1.00  0.00    -0.275 OA
ENDBRANCH  27  29
ENDBRANCH  25  27
ENDBRANCH  20  23
ENDBRANCH   6  20
TORSDOF 8
