REMARK  7 active torsions:
REMARK  status: ('A' for Active; 'I' for Inactive)
REMARK    1  A    between atoms: C2_2  and  C3_3 
REMARK    2  A    between atoms: C5_5  and  O1_6 
REMARK    3  A    between atoms: C6_8  and  O2_9 
REMARK    4  A    between atoms: C8_12  and  C9_13 
REMARK    5  A    between atoms: C9_13  and  O3_15 
REMARK    6  A    between atoms: C11_17  and  C12_18 
REMARK    7  A    between atoms: C13_21  and  O6_22 
ROOT
HETATM    1  C3  UNL     1      -0.940  -0.857   0.086  1.00  0.00     0.019 C 
HETATM    2  C4  UNL     1      -1.446  -0.106  -1.063  1.00  0.00     0.051 C 
HETATM    3  C5  UNL     1      -1.880   1.311  -0.841  1.00  0.00     0.148 C 
HETATM    4  C6  UNL     1      -1.036   2.077   0.131  1.00  0.00     0.154 C 
HETATM    5  C7  UNL     1      -0.169   1.144   0.954  1.00  0.00     0.054 C 
HETATM    6  C8  UNL     1       0.865   0.566  -0.035  1.00  0.00     0.038 C 
HETATM    7  C11 UNL     1       0.607  -0.909   0.079  1.00  0.00     0.108 C 
HETATM    8  C13 UNL     1      -1.066   0.007   1.368  1.00  0.00     0.138 C 
ENDROOT
BRANCH   6   9
HETATM    9  C9  UNL     1       2.222   1.045   0.343  1.00  0.00     0.119 C 
HETATM   10  C10 UNL     1       3.352   0.621  -0.539  1.00  0.00     0.040 C 
BRANCH   9  11
HETATM   11  O3  UNL     1       2.508   0.813   1.702  1.00  0.00    -0.396 OA
ATOM     12  H3  UNL     1       3.374   1.119   1.943  1.00  0.00     0.210 HD
ENDBRANCH   9  11
ENDBRANCH   6   9
BRANCH   7  13
HETATM   13  C12 UNL     1       1.116  -1.795  -0.930  1.00  0.00     0.178 C 
HETATM   14  O4  UNL     1       0.451  -2.137  -1.935  1.00  0.00    -0.648 OA
HETATM   15  O5  UNL     1       2.397  -2.338  -0.853  1.00  0.00    -0.648 OA
ENDBRANCH   7  13
BRANCH   4  16
HETATM   16  O2  UNL     1      -0.237   3.042  -0.501  1.00  0.00    -0.393 OA
ATOM     17  H2  UNL     1       0.298   3.528   0.115  1.00  0.00     0.210 HD
ENDBRANCH   4  16
BRANCH   8  18
HETATM   18  O6  UNL     1      -0.577  -0.695   2.462  1.00  0.00    -0.394 OA
ATOM     19  H6  UNL     1      -0.654  -0.166   3.247  1.00  0.00     0.210 HD
ENDBRANCH   8  18
BRANCH   1  20
HETATM   20  C2  UNL     1      -1.504  -2.190   0.328  1.00  0.00    -0.024 C 
HETATM   21  C1  UNL     1      -2.165  -2.938  -0.532  1.00  0.00     0.008 C 
ENDBRANCH   1  20
BRANCH   3  22
HETATM   22  O1  UNL     1      -3.214   1.341  -0.449  1.00  0.00    -0.393 OA
ATOM     23  H1  UNL     1      -3.489   2.239  -0.308  1.00  0.00     0.210 HD
ENDBRANCH   3  22
TORSDOF 7
