REMARK  8 active torsions:
REMARK  status: ('A' for Active; 'I' for Inactive)
REMARK    1  A    between atoms: C2_2  and  C3_3 
REMARK    2  A    between atoms: C4_4  and  C5_5 
REMARK    3  A    between atoms: C13_16  and  O1_17 
REMARK    4  A    between atoms: O1_17  and  C14_18 
REMARK    5  A    between atoms: C14_18  and  C15_19 
REMARK    6  A    between atoms: C15_19  and  C16_20 
REMARK    7  A    between atoms: C17_22  and  N1_23 
REMARK    8  A    between atoms: C18_28  and  O2_29 
ROOT
HETATM    1  C3  UNL     1      -2.715  -0.115  -0.837  1.00  0.00     0.016 C 
HETATM    2  C4  UNL     1      -3.419   1.193  -0.763  1.00  0.00     0.033 C 
HETATM    3  C6  UNL     1      -4.208   1.225   0.309  1.00  0.00    -0.003 C 
HETATM    4  C7  UNL     1      -4.094  -0.061   1.038  1.00  0.00    -0.004 C 
HETATM    5  C8  UNL     1      -5.388  -0.466   1.700  1.00  0.00     0.021 C 
HETATM    6  C9  UNL     1      -2.990   0.089   2.028  1.00  0.00     0.049 C 
HETATM    7  C10 UNL     1      -1.635  -0.008   1.376  1.00  0.00    -0.073 C 
HETATM    8  C11 UNL     1      -0.686   0.112   2.289  1.00  0.00     0.006 C 
HETATM    9  C12 UNL     1       0.753   0.077   2.085  1.00  0.00     0.032 C 
HETATM   10  C13 UNL     1       1.500  -0.062   0.999  1.00  0.00     0.046 C 
HETATM   11  C19 UNL     1       1.025  -0.227  -0.373  1.00  0.00     0.065 C 
HETATM   12  C20 UNL     1      -0.282   0.557  -0.607  1.00  0.00     0.016 C 
HETATM   13  C21 UNL     1      -1.447  -0.211  -0.076  1.00  0.00     0.029 C 
HETATM   14  C22 UNL     1      -3.724  -1.009  -0.090  1.00  0.00     0.108 C 
HETATM   15 CL1  UNL     1      -2.925  -2.433   0.610  1.00  0.00    -0.123 Cl
ENDROOT
BRANCH  10  16
HETATM   16  O1  UNL     1       2.848  -0.045   1.217  1.00  0.00    -0.355 OA
BRANCH  16  17
HETATM   17  C14 UNL     1       3.559   1.110   1.598  1.00  0.00     0.180 C 
BRANCH  17  18
HETATM   18  C15 UNL     1       5.012   0.852   1.767  1.00  0.00     0.077 C 
BRANCH  18  19
HETATM   19  C16 UNL     1       5.611   0.362   0.475  1.00  0.00     0.039 A 
HETATM   20  S1  UNL     1       6.521   1.236  -0.688  1.00  0.00    -0.055 SA
HETATM   21  C17 UNL     1       6.779  -0.025  -1.799  1.00  0.00     0.144 A 
HETATM   22  N2  UNL     1       6.160  -1.059  -1.235  1.00  0.00    -0.317 N 
HETATM   23  C18 UNL     1       5.564  -0.887  -0.088  1.00  0.00     0.155 A 
ATOM     24  H2  UNL     1       6.152  -1.971  -1.692  1.00  0.00     0.170 HD
BRANCH  21  25
HETATM   25  N1  UNL     1       7.423  -0.032  -2.946  1.00  0.00    -0.380 N 
ATOM     26  H12 UNL     1       7.898   0.761  -3.378  1.00  0.00     0.158 HD
ATOM     27  H11 UNL     1       7.578  -0.788  -3.612  1.00  0.00     0.158 HD
ENDBRANCH  21  25
BRANCH  23  28
HETATM   28  O2  UNL     1       4.873  -1.935   0.599  1.00  0.00    -0.345 OA
ATOM     29  H2  UNL     1       4.840  -2.801   0.209  1.00  0.00     0.219 HD
ENDBRANCH  23  28
ENDBRANCH  18  19
ENDBRANCH  17  18
ENDBRANCH  16  17
ENDBRANCH  10  16
BRANCH   1  30
HETATM   30  C2  UNL     1      -2.665  -0.639  -2.243  1.00  0.00     0.012 C 
HETATM   31  C1  UNL     1      -1.971  -1.965  -2.388  1.00  0.00     0.006 C 
ENDBRANCH   1  30
BRANCH   2  32
HETATM   32  C5  UNL     1      -3.346   2.352  -1.697  1.00  0.00     0.414 C 
HETATM   33  F1  UNL     1      -3.708   1.998  -2.982  1.00  0.00    -0.166 F 
HETATM   34  F2  UNL     1      -2.133   2.960  -1.637  1.00  0.00    -0.166 F 
HETATM   35  F3  UNL     1      -4.282   3.332  -1.333  1.00  0.00    -0.166 F 
ENDBRANCH   2  32
TORSDOF 8
