REMARK  1 active torsions:
REMARK  status: ('A' for Active; 'I' for Inactive)
REMARK    1  A    between atoms: C2_2  and  C3_3 
ROOT
HETATM    1  C3  UNL     1       0.540  -0.278  -0.084  1.00  0.00     0.130 C 
HETATM    2  C4  UNL     1       1.561  -1.418  -0.227  1.00  0.00     0.070 C 
HETATM    3  N1  UNL     1       0.361  -0.029   1.286  1.00  0.00    -0.369 N 
ATOM      4  H1  UNL     1       1.161   0.138   1.897  1.00  0.00     0.157 HD
HETATM    5  C5  UNL     1      -0.956  -0.016   1.795  1.00  0.00     0.355 C 
HETATM    6  N2  UNL     1      -1.925   0.370   0.800  1.00  0.00    -0.034 N 
ATOM      7  H21 UNL     1      -1.861   1.354   0.540  1.00  0.00     0.282 HD
ATOM      8  H22 UNL     1      -2.880   0.391   1.158  1.00  0.00     0.282 HD
HETATM    9  C6  UNL     1      -1.761  -0.522  -0.321  1.00  0.00     0.321 C 
HETATM   10  C7  UNL     1      -2.740  -0.112  -1.404  1.00  0.00     0.071 C 
HETATM   11  O1  UNL     1      -0.522  -0.574  -0.850  1.00  0.00    -0.329 OA
ENDROOT
BRANCH   1  12
HETATM   12  C2  UNL     1       1.238   0.944  -0.699  1.00  0.00     0.056 C 
HETATM   13  C1  UNL     1       2.509   1.278   0.012  1.00  0.00     0.010 C 
ENDBRANCH   1  12
TORSDOF 1
