REMARK  14 active torsions:
REMARK  status: ('A' for Active; 'I' for Inactive)
REMARK    1  A    between atoms: C2_2  and  C3_3 
REMARK    2  A    between atoms: C3_3  and  C4_4 
REMARK    3  A    between atoms: C4_4  and  C5_5 
REMARK    4  A    between atoms: C5_5  and  O1_6 
REMARK    5  A    between atoms: O1_6  and  C6_7 
REMARK       I    between atoms: C6_7  and  N1_9 
REMARK       I    between atoms: N2_12  and  C9_13 
REMARK    6  A    between atoms: C9_13  and  C10_15 
REMARK    7  A    between atoms: C12_20  and  C13_21 
REMARK    8  A    between atoms: C13_21  and  N4_22 
REMARK    9  A    between atoms: N4_22  and  C14_23 
REMARK   10  A    between atoms: N4_22  and  C20_31 
REMARK   11  A    between atoms: C14_23  and  C15_24 
REMARK   12  A    between atoms: C15_24  and  N5_25 
REMARK   13  A    between atoms: C20_31  and  C21_32 
REMARK   14  A    between atoms: C25_38  and  C26_39 
ROOT
HETATM    1  C10 UNL     1       0.980  -0.888  -0.859  1.00  0.00     0.474 C 
HETATM    2  N3  UNL     1       0.289  -2.067  -1.390  1.00  0.00    -0.035 N 
ATOM      3  H31 UNL     1      -0.235  -2.612  -0.705  1.00  0.00     0.280 HD
ATOM      4  H32 UNL     1       0.894  -2.837  -1.675  1.00  0.00     0.280 HD
HETATM    5  C11 UNL     1      -0.506  -1.472  -2.454  1.00  0.00     0.273 C 
HETATM    6  C12 UNL     1      -1.016  -0.211  -1.738  1.00  0.00     0.253 C 
HETATM    7  N6  UNL     1      -0.141  -0.016  -0.621  1.00  0.00    -0.027 N 
ATOM      8  H61 UNL     1       0.121   0.958  -0.469  1.00  0.00     0.281 HD
ATOM      9  H62 UNL     1      -0.590  -0.161   0.283  1.00  0.00     0.281 HD
ENDROOT
BRANCH   6  10
HETATM   10  C13 UNL     1      -2.442  -0.479  -1.412  1.00  0.00     0.098 C 
BRANCH  10  11
HETATM   11  N4  UNL     1      -3.201   0.508  -0.757  1.00  0.00    -0.366 N 
BRANCH  11  12
HETATM   12  C14 UNL     1      -2.944   0.836   0.566  1.00  0.00     0.093 C 
BRANCH  12  13
HETATM   13  C15 UNL     1      -3.813   1.939   1.121  1.00  0.00     0.317 C 
BRANCH  13  14
HETATM   14  N5  UNL     1      -3.653   3.165   0.397  1.00  0.00     0.097 N 
HETATM   15  C16 UNL     1      -4.475   4.219   0.925  1.00  0.00     0.299 C 
HETATM   16  C17 UNL     1      -3.688   5.462   1.283  1.00  0.00     0.198 C 
HETATM   17  O4  UNL     1      -2.919   5.875   0.223  1.00  0.00    -0.388 OA
HETATM   18  C18 UNL     1      -2.113   4.894  -0.297  1.00  0.00     0.198 C 
HETATM   19  C19 UNL     1      -2.260   3.550   0.407  1.00  0.00     0.299 C 
ENDBRANCH  13  14
ENDBRANCH  12  13
ENDBRANCH  11  12
BRANCH  11  20
HETATM   20  C20 UNL     1      -4.455   0.783  -1.356  1.00  0.00     0.165 C 
BRANCH  20  21
HETATM   21  C21 UNL     1      -5.313  -0.436  -1.503  1.00  0.00    -0.038 A 
HETATM   22  C22 UNL     1      -5.904  -0.710  -2.714  1.00  0.00     0.034 A 
HETATM   23  C23 UNL     1      -6.692  -1.812  -2.910  1.00  0.00     0.057 A 
HETATM   24 CL1  UNL     1      -7.444  -2.159  -4.454  1.00  0.00    -0.083 Cl
HETATM   25  C24 UNL     1      -6.922  -2.698  -1.882  1.00  0.00     0.062 A 
HETATM   26 CL2  UNL     1      -7.932  -4.124  -2.103  1.00  0.00    -0.082 Cl
HETATM   27  C25 UNL     1      -6.342  -2.447  -0.654  1.00  0.00    -0.027 A 
HETATM   28  C30 UNL     1      -5.552  -1.329  -0.484  1.00  0.00     0.018 A 
BRANCH  27  29
HETATM   29  C26 UNL     1      -6.575  -3.389   0.461  1.00  0.00    -0.022 C 
HETATM   30  C27 UNL     1      -6.083  -4.784   0.127  1.00  0.00     0.019 C 
HETATM   31  C28 UNL     1      -8.039  -3.428   0.795  1.00  0.00     0.019 C 
HETATM   32  C29 UNL     1      -5.774  -2.915   1.655  1.00  0.00     0.019 C 
ENDBRANCH  27  29
ENDBRANCH  20  21
ENDBRANCH  11  20
ENDBRANCH  10  11
ENDBRANCH   6  10
BRANCH   1  33
HETATM   33  C9  UNL     1       1.688  -1.209   0.394  1.00  0.00     0.278 C 
HETATM   34  N2  UNL     1       2.473  -0.258   1.058  1.00  0.00    -0.346 N 
HETATM   35  C8  UNL     1       2.640   1.070   0.502  1.00  0.00     0.146 C 
HETATM   36  C31 UNL     1       3.119  -0.543   2.289  1.00  0.00     0.146 C 
HETATM   37  C7  UNL     1       4.054   1.568   0.815  1.00  0.00     0.148 C 
HETATM   38  N1  UNL     1       4.923   0.451   1.075  1.00  0.00    -0.325 N 
HETATM   39  C6  UNL     1       6.091   0.236   0.304  1.00  0.00     0.362 C 
HETATM   40  C32 UNL     1       4.610  -0.470   2.132  1.00  0.00     0.148 C 
HETATM   41  O2  UNL     1       6.354   1.048  -0.613  1.00  0.00    -0.238 OA
HETATM   42  O3  UNL     1       1.563  -2.381   0.855  1.00  0.00    -0.269 OA
BRANCH  39  43
HETATM   43  O1  UNL     1       6.956  -0.812   0.501  1.00  0.00    -0.304 OA
BRANCH  43  44
HETATM   44  C5  UNL     1       8.117  -1.106  -0.199  1.00  0.00     0.180 C 
BRANCH  44  45
HETATM   45  C4  UNL     1       9.175  -0.028  -0.144  1.00  0.00     0.027 C 
BRANCH  45  46
HETATM   46  C3  UNL     1      10.388  -0.483  -0.942  1.00  0.00     0.002 C 
BRANCH  46  47
HETATM   47  C2  UNL     1      11.444   0.596  -0.886  1.00  0.00    -0.004 C 
HETATM   48  C1  UNL     1      11.816   0.815   0.562  1.00  0.00     0.005 C 
ENDBRANCH  46  47
ENDBRANCH  45  46
ENDBRANCH  44  45
ENDBRANCH  43  44
ENDBRANCH  39  43
ENDBRANCH   1  33
TORSDOF 14
