REMARK  3 active torsions:
REMARK  status: ('A' for Active; 'I' for Inactive)
REMARK       I    between atoms: C1_2  and  N2_4 
REMARK    1  A    between atoms: C8_12  and  O2_13 
REMARK    2  A    between atoms: C12_18  and  C13_19 
REMARK    3  A    between atoms: C13_19  and  C14_20 
ROOT
HETATM    1  N1  UNL     1       4.133   2.709  -0.549  1.00  0.00    -0.040 NA
HETATM    2  C1  UNL     1       3.577   1.454  -0.942  1.00  0.00     0.332 C 
HETATM    3  O1  UNL     1       3.642   1.169  -2.166  1.00  0.00    -0.251 OA
HETATM    4  N2  UNL     1       2.981   0.555  -0.050  1.00  0.00    -0.318 N 
ATOM      5  H2  UNL     1       3.547   0.164   0.703  1.00  0.00     0.169 HD
HETATM    6  C2  UNL     1       1.776   0.211  -0.140  1.00  0.00    -0.004 C 
HETATM    7  C3  UNL     1       0.824   0.716  -1.210  1.00  0.00     0.058 C 
HETATM    8  C4  UNL     1      -0.367   0.863  -0.319  1.00  0.00    -0.000 C 
HETATM    9  C5  UNL     1      -1.663   1.217  -0.902  1.00  0.00    -0.007 C 
HETATM   10  C6  UNL     1      -2.448   0.040  -1.445  1.00  0.00     0.008 C 
HETATM   11  C7  UNL     1      -3.207  -0.579  -0.308  1.00  0.00     0.038 C 
HETATM   12  C8  UNL     1      -2.722   0.182   0.907  1.00  0.00     0.059 C 
HETATM   13  C9  UNL     1      -2.537   1.553   0.328  1.00  0.00     0.043 C 
HETATM   14  C10 UNL     1      -1.447  -0.488   1.365  1.00  0.00     0.043 C 
HETATM   15  C11 UNL     1      -0.447  -0.537   0.253  1.00  0.00     0.003 C 
HETATM   16  C12 UNL     1       1.004  -0.698   0.720  1.00  0.00     0.046 C 
ENDROOT
BRANCH  16  17
HETATM   17  C13 UNL     1       1.324  -2.143   0.616  1.00  0.00     0.124 C 
BRANCH  17  18
HETATM   18  C14 UNL     1       2.651  -2.600   0.952  1.00  0.00     0.173 C 
HETATM   19  O3  UNL     1       3.536  -1.864   1.408  1.00  0.00    -0.648 OA
HETATM   20  O4  UNL     1       2.967  -3.941   0.759  1.00  0.00    -0.648 OA
ENDBRANCH  17  18
ENDBRANCH  16  17
BRANCH  12  21
HETATM   21  O2  UNL     1      -3.632   0.210   1.939  1.00  0.00    -0.390 OA
ATOM     22  H2  UNL     1      -3.328   0.688   2.702  1.00  0.00     0.210 HD
ENDBRANCH  12  21
TORSDOF 3
