REMARK  3 active torsions:
REMARK  status: ('A' for Active; 'I' for Inactive)
REMARK    1  A    between atoms: C1_2  and  C2_4 
REMARK    2  A    between atoms: C2_4  and  N2_5 
REMARK    3  A    between atoms: N2_5  and  C3_6 
ROOT
HETATM    1  N2  UNL     1       0.205  -0.543   0.015  1.00  0.00    -0.035 N 
HETATM    2  C7  UNL     1       0.661  -1.889  -0.324  1.00  0.00     0.272 A 
HETATM    3  C8  UNL     1       0.059  -1.537   1.009  1.00  0.00     0.272 A 
ENDROOT
BRANCH   1   4
HETATM    4  C2  UNL     1       1.235   0.454   0.007  1.00  0.00     0.273 C 
BRANCH   4   5
HETATM    5  C1  UNL     1       2.475   0.213   0.687  1.00  0.00     0.278 C 
HETATM    6  N1  UNL     1       3.474   1.233   0.652  1.00  0.00    -0.057 NA
HETATM    7  O1  UNL     1       2.763  -0.810   1.310  1.00  0.00    -0.270 OA
ENDBRANCH   4   5
ENDBRANCH   1   4
BRANCH   1   8
HETATM    8  C3  UNL     1      -0.950  -0.068  -0.736  1.00  0.00     0.196 C 
HETATM    9  C4  UNL     1      -1.314   1.325  -0.241  1.00  0.00     0.034 C 
HETATM   10  C5  UNL     1      -2.766   0.932  -0.502  1.00  0.00     0.004 C 
HETATM   11  C6  UNL     1      -2.293  -0.526  -0.367  1.00  0.00     0.034 C 
ENDBRANCH   1   8
TORSDOF 3
