REMARK  2 active torsions:
REMARK  status: ('A' for Active; 'I' for Inactive)
REMARK    1  A    between atoms: C2_2  and  C3_3 
REMARK    2  A    between atoms: C3_3  and  C4_4 
ROOT
HETATM    1  C4  UNL     1      -0.950   0.099  -0.859  1.00  0.00     0.041 C 
HETATM    2  C5  UNL     1       0.109   1.154  -0.623  1.00  0.00     0.244 C 
HETATM    3  N1  UNL     1       0.894   0.148   0.062  1.00  0.00    -0.066 N 
HETATM    4  C6  UNL     1       1.802  -0.503  -0.832  1.00  0.00     0.237 C 
HETATM    5  C7  UNL     1       2.891  -0.998   0.097  1.00  0.00     0.029 C 
HETATM    6  C8  UNL     1       3.092   0.256   0.958  1.00  0.00     0.029 C 
HETATM    7  C9  UNL     1       1.626   0.652   1.181  1.00  0.00     0.237 C 
HETATM    8  C10 UNL     1      -0.326  -0.552   0.356  1.00  0.00     0.244 C 
ENDROOT
BRANCH   1   9
HETATM    9  C3  UNL     1      -2.331   0.667  -0.617  1.00  0.00     0.034 C 
BRANCH   9  10
HETATM   10  C2  UNL     1      -3.393  -0.339  -0.839  1.00  0.00    -0.036 C 
HETATM   11  C1  UNL     1      -4.201  -0.660   0.155  1.00  0.00     0.007 C 
ENDBRANCH   9  10
ENDBRANCH   1   9
TORSDOF 2
