REMARK  9 active torsions:
REMARK  status: ('A' for Active; 'I' for Inactive)
REMARK    1  A    between atoms: C2_2  and  C3_3 
REMARK    2  A    between atoms: C8_8  and  C9_9 
REMARK    3  A    between atoms: C9_9  and  O1_10 
REMARK    4  A    between atoms: N1_12  and  O2_14 
REMARK    5  A    between atoms: C11_17  and  O3_18 
REMARK    6  A    between atoms: O3_18  and  C12_19 
REMARK    7  A    between atoms: C12_19  and  O5_21 
REMARK    8  A    between atoms: O5_21  and  C13_22 
REMARK    9  A    between atoms: C13_22  and  C14_23 
ROOT
HETATM    1  C3  UNL     1       1.522   1.172   0.311  1.00  0.00     0.052 C 
HETATM    2  C4  UNL     1       1.595   2.707   0.227  1.00  0.00     0.021 C 
HETATM    3  C5  UNL     1       3.024   3.097   0.375  1.00  0.00     0.018 C 
HETATM    4  C6  UNL     1       3.328   4.119   1.438  1.00  0.00     0.010 C 
HETATM    5  C7  UNL     1       4.476   3.537   2.285  1.00  0.00     0.018 C 
HETATM    6  C8  UNL     1       4.770   2.161   1.632  1.00  0.00     0.094 C 
HETATM    7  C10 UNL     1       3.484   1.851   1.155  1.00  0.00    -0.034 C 
HETATM    8  C11 UNL     1       2.930   0.689   0.483  1.00  0.00     0.067 C 
ENDROOT
BRANCH   1   9
HETATM    9  C2  UNL     1       0.672   0.607  -0.779  1.00  0.00    -0.034 C 
HETATM   10  C1  UNL     1       1.293   1.048  -2.113  1.00  0.00     0.016 C 
HETATM   11  C15 UNL     1       0.609  -0.871  -0.841  1.00  0.00     0.010 C 
HETATM   12  C16 UNL     1      -0.806  -1.402  -1.065  1.00  0.00     0.006 C 
HETATM   13  C17 UNL     1      -1.555  -0.913   0.131  1.00  0.00    -0.002 C 
HETATM   14  C18 UNL     1      -1.796   0.550  -0.116  1.00  0.00    -0.009 C 
HETATM   15  C26 UNL     1      -2.871  -1.631   0.312  1.00  0.00    -0.036 C 
HETATM   16  C19 UNL     1      -2.274   1.096   1.230  1.00  0.00     0.005 C 
HETATM   17  C30 UNL     1      -0.667   1.299  -0.706  1.00  0.00     0.015 C 
HETATM   18  C20 UNL     1      -3.652   0.490   1.443  1.00  0.00     0.006 C 
HETATM   19  C21 UNL     1      -3.676  -0.998   1.390  1.00  0.00    -0.001 C 
HETATM   20  C22 UNL     1      -5.117  -1.443   1.425  1.00  0.00     0.074 C 
HETATM   21  C23 UNL     1      -5.731  -1.596   0.058  1.00  0.00     0.164 C 
HETATM   22  C24 UNL     1      -4.869  -2.584  -0.728  1.00  0.00     0.069 C 
HETATM   23  O6  UNL     1      -5.772  -0.436  -0.673  1.00  0.00    -0.353 OA
HETATM   24  O7  UNL     1      -6.996  -2.111   0.187  1.00  0.00    -0.353 OA
HETATM   25  C25 UNL     1      -3.569  -1.815  -0.999  1.00  0.00     0.015 C 
HETATM   26  C28 UNL     1      -7.075   0.054  -0.615  1.00  0.00     0.197 C 
HETATM   27  C29 UNL     1      -7.870  -1.212  -0.418  1.00  0.00     0.197 C 
HETATM   28  C27 UNL     1      -2.500  -3.041   0.799  1.00  0.00     0.016 C 
ENDBRANCH   1   9
BRANCH   8  29
HETATM   29  O3  UNL     1       3.537  -0.015  -0.468  1.00  0.00    -0.259 OA
BRANCH  29  30
HETATM   30  C12 UNL     1       4.029  -1.278  -0.568  1.00  0.00     0.411 C 
HETATM   31  O4  UNL     1       3.833  -1.835   0.510  1.00  0.00    -0.229 OA
BRANCH  30  32
HETATM   32  O5  UNL     1       4.607  -1.803  -1.626  1.00  0.00    -0.297 OA
BRANCH  32  33
HETATM   33  C13 UNL     1       5.114  -3.044  -1.849  1.00  0.00     0.192 C 
BRANCH  33  34
HETATM   34  C14 UNL     1       4.106  -4.137  -1.976  1.00  0.00     0.112 C 
HETATM   35 BR1  UNL     1       3.014  -4.489  -0.459  1.00  0.00    -0.094 Br
ENDBRANCH  33  34
ENDBRANCH  32  33
ENDBRANCH  30  32
ENDBRANCH  29  30
ENDBRANCH   8  29
BRANCH   6  36
HETATM   36  C9  UNL     1       5.929   2.353   0.817  1.00  0.00     0.143 C 
HETATM   37  N1  UNL     1       6.536   3.479   0.694  1.00  0.00    -0.251 N 
ATOM     38  H1  UNL     1       6.158   4.271   1.213  1.00  0.00     0.196 HD
BRANCH  36  39
HETATM   39  O1  UNL     1       6.501   1.299   0.076  1.00  0.00    -0.348 OA
ATOM     40  H1  UNL     1       7.271   1.427  -0.466  1.00  0.00     0.219 HD
ENDBRANCH  36  39
BRANCH  37  41
HETATM   41  O2  UNL     1       7.634   3.705  -0.065  1.00  0.00    -0.288 OA
ATOM     42  H2  UNL     1       8.083   4.537  -0.156  1.00  0.00     0.244 HD
ENDBRANCH  37  41
ENDBRANCH   6  36
TORSDOF 9
