REMARK  7 active torsions:
REMARK  status: ('A' for Active; 'I' for Inactive)
REMARK    1  A    between atoms: C3_3  and  C4_4 
REMARK    2  A    between atoms: C4_4  and  C5_5 
REMARK    3  A    between atoms: C5_5  and  C6_6 
REMARK    4  A    between atoms: C6_6  and  C7_7 
REMARK    5  A    between atoms: C7_7  and  C8_8 
REMARK    6  A    between atoms: C8_8  and  C9_9 
REMARK       I    between atoms: C9_9  and  N1_11 
REMARK    7  A    between atoms: N1_11  and  C10_13 
ROOT
HETATM    1  C1  UNL     1      -7.822   1.471   0.134  1.00  0.00     0.113 C 
HETATM    2  C2  UNL     1      -6.475   0.923   0.291  1.00  0.00    -0.097 C 
HETATM    3  C3  UNL     1      -5.361   0.449   0.411  1.00  0.00    -0.015 C 
ENDROOT
BRANCH   3   4
HETATM    4  C4  UNL     1      -4.073  -0.125   0.547  1.00  0.00    -0.015 C 
BRANCH   4   5
HETATM    5  C5  UNL     1      -2.983  -0.629   0.652  1.00  0.00    -0.092 C 
BRANCH   5   6
HETATM    6  C6  UNL     1      -1.646  -1.269   0.766  1.00  0.00     0.095 C 
BRANCH   6   7
HETATM    7  C7  UNL     1      -1.003  -1.139  -0.569  1.00  0.00     0.021 C 
BRANCH   7   8
HETATM    8  C8  UNL     1       0.358  -1.722  -0.690  1.00  0.00     0.104 C 
BRANCH   8   9
HETATM    9  C9  UNL     1       1.359  -1.108   0.206  1.00  0.00     0.223 C 
HETATM   10  O1  UNL     1       1.060  -0.086   0.877  1.00  0.00    -0.273 OA
HETATM   11  N1  UNL     1       2.689  -1.673   0.318  1.00  0.00    -0.306 N 
ATOM     12  H1  UNL     1       2.864  -2.663   0.488  1.00  0.00     0.171 HD
BRANCH  11  13
HETATM   13  C10 UNL     1       3.648  -0.784   0.179  1.00  0.00     0.167 A 
HETATM   14  N2  UNL     1       4.962  -1.001   0.232  1.00  0.00    -0.279 N 
HETATM   15  N3  UNL     1       5.754  -0.020   0.076  1.00  0.00    -0.296 N 
ATOM     16  H2  UNL     1       5.326  -1.940   0.395  1.00  0.00     0.189 HD
HETATM   17  C11 UNL     1       5.274   1.197  -0.135  1.00  0.00     0.066 A 
ATOM     18  H3  UNL     1       6.762  -0.170   0.113  1.00  0.00     0.187 HD
HETATM   19  C12 UNL     1       6.020   2.487  -0.344  1.00  0.00     0.078 C 
HETATM   20  S1  UNL     1       3.586   0.902  -0.106  1.00  0.00    -0.038 SA
ENDBRANCH  11  13
ENDBRANCH   8   9
ENDBRANCH   7   8
ENDBRANCH   6   7
ENDBRANCH   5   6
ENDBRANCH   4   5
ENDBRANCH   3   4
TORSDOF 7
