REMARK  3 active torsions:
REMARK  status: ('A' for Active; 'I' for Inactive)
REMARK       I    between atoms: C1_2  and  N1_3 
REMARK    1  A    between atoms: C1_2  and  C8_12 
REMARK    2  A    between atoms: N1_3  and  C2_5 
REMARK    3  A    between atoms: C2_5  and  C3_6 
ROOT
HETATM    1  O1  UNL     1       0.511  -0.457  -2.040  1.00  0.00    -0.273 OA
HETATM    2  C1  UNL     1       0.411  -0.879  -0.861  1.00  0.00     0.224 C 
HETATM    3  N1  UNL     1      -0.824  -0.834  -0.187  1.00  0.00    -0.360 N 
ATOM      4  H1  UNL     1      -0.899  -1.178   0.770  1.00  0.00     0.162 HD
ENDROOT
BRANCH   2   5
HETATM    5  C8  UNL     1       1.634  -1.420  -0.216  1.00  0.00     0.115 A 
HETATM    6  C9  UNL     1       2.519  -2.201  -1.145  1.00  0.00     0.056 A 
HETATM    7  C10 UNL     1       2.979  -0.893  -0.621  1.00  0.00     0.074 A 
HETATM    8  C11 UNL     1       4.019  -0.904   0.445  1.00  0.00     0.039 C 
HETATM    9  O3  UNL     1       2.963   0.245  -1.399  1.00  0.00    -0.379 OA
HETATM   10  C12 UNL     1       5.136   0.088   0.214  1.00  0.00     0.005 C 
HETATM   11  C13 UNL     1       4.607   1.432  -0.240  1.00  0.00     0.026 C 
HETATM   12  C14 UNL     1       3.122   1.347  -0.561  1.00  0.00     0.168 C 
ENDBRANCH   2   5
BRANCH   3  13
HETATM   13  C2  UNL     1      -1.979  -0.301  -0.856  1.00  0.00     0.127 C 
BRANCH  13  14
HETATM   14  C3  UNL     1      -3.215  -0.339   0.035  1.00  0.00     0.007 C 
HETATM   15  C4  UNL     1      -4.345   0.234  -0.754  1.00  0.00     0.032 C 
HETATM   16  C5  UNL     1      -5.502   0.697   0.081  1.00  0.00     0.168 C 
HETATM   17  O2  UNL     1      -5.150   1.189   1.308  1.00  0.00    -0.391 OA
HETATM   18  C6  UNL     1      -3.828   1.578   1.418  1.00  0.00     0.168 C 
HETATM   19  C7  UNL     1      -2.983   0.310   1.353  1.00  0.00     0.032 C 
ENDBRANCH  13  14
ENDBRANCH   3  13
TORSDOF 3
