REMARK  3 active torsions:
REMARK  status: ('A' for Active; 'I' for Inactive)
REMARK    1  A    between atoms: O1_2  and  C2_3 
REMARK    2  A    between atoms: C2_3  and  C3_5 
REMARK    3  A    between atoms: C3_5  and  N3_11 
ROOT
HETATM    1  C3  UNL     1       0.217   0.277   0.084  1.00  0.00     0.138 C 
HETATM    2  C4  UNL     1       0.441   1.496   0.558  1.00  0.00     0.157 C 
HETATM    3  C5  UNL     1      -0.719   2.341   0.852  1.00  0.00     0.113 C 
HETATM    4  N1  UNL     1      -1.621   3.020   1.093  1.00  0.00    -0.191 NA
HETATM    5  C6  UNL     1       1.710   2.064   0.810  1.00  0.00     0.113 C 
HETATM    6  N2  UNL     1       2.749   2.559   1.027  1.00  0.00    -0.191 NA
ENDROOT
BRANCH   1   7
HETATM    7  C2  UNL     1       1.368  -0.572  -0.211  1.00  0.00     0.311 C 
HETATM    8  O2  UNL     1       1.208  -1.751  -0.669  1.00  0.00    -0.258 OA
BRANCH   7   9
HETATM    9  O1  UNL     1       2.662  -0.181  -0.027  1.00  0.00    -0.321 OA
HETATM   10  C1  UNL     1       3.798  -0.987  -0.307  1.00  0.00     0.213 C 
ENDBRANCH   7   9
ENDBRANCH   1   7
BRANCH   1  11
HETATM   11  N3  UNL     1      -1.109  -0.191  -0.131  1.00  0.00    -0.374 N 
HETATM   12  C7  UNL     1      -1.955  -1.206   0.427  1.00  0.00     0.125 C 
HETATM   13  C8  UNL     1      -3.132  -0.316   0.081  1.00  0.00     0.040 C 
HETATM   14  C9  UNL     1      -2.190   0.152  -1.009  1.00  0.00     0.125 C 
ENDBRANCH   1  11
TORSDOF 3
