REMARK  9 active torsions:
REMARK  status: ('A' for Active; 'I' for Inactive)
REMARK    1  A    between atoms: S1_2  and  C2_4 
REMARK    2  A    between atoms: C2_4  and  C3_5 
REMARK    3  A    between atoms: C3_5  and  C4_6 
REMARK    4  A    between atoms: C4_6  and  N1_7 
REMARK       I    between atoms: N1_7  and  C5_9 
REMARK    5  A    between atoms: C5_9  and  C6_11 
REMARK    6  A    between atoms: C6_11  and  C7_12 
REMARK    7  A    between atoms: C7_12  and  C8_13 
REMARK    8  A    between atoms: C8_13  and  C9_15 
REMARK    9  A    between atoms: C18_25  and  O5_26 
ROOT
HETATM    1  C9  UNL     1      -0.120  -0.788  -0.688  1.00  0.00     0.064 C 
HETATM    2  C10 UNL     1      -0.494   0.142   0.401  1.00  0.00     0.018 C 
HETATM    3  C11 UNL     1      -1.853   0.697   0.239  1.00  0.00     0.003 C 
HETATM    4  C12 UNL     1      -2.159   1.173  -1.119  1.00  0.00     0.066 C 
HETATM    5  C13 UNL     1      -3.672   1.144  -1.138  1.00  0.00     0.145 C 
HETATM    6  O4  UNL     1      -4.364   1.897  -1.791  1.00  0.00    -0.296 OA
HETATM    7  C14 UNL     1      -4.082   0.056  -0.233  1.00  0.00     0.049 C 
HETATM    8  C15 UNL     1      -4.391  -1.196  -1.059  1.00  0.00     0.029 C 
HETATM    9  C16 UNL     1      -5.355   0.461   0.412  1.00  0.00    -0.033 A 
HETATM   10  C17 UNL     1      -6.525   0.227  -0.262  1.00  0.00     0.045 A 
HETATM   11  C18 UNL     1      -7.758   0.570   0.261  1.00  0.00     0.066 A 
HETATM   12  C19 UNL     1      -7.847   1.165   1.490  1.00  0.00     0.037 A 
HETATM   13  C20 UNL     1      -6.650   1.396   2.162  1.00  0.00     0.010 A 
HETATM   14  C21 UNL     1      -5.420   1.055   1.644  1.00  0.00    -0.051 A 
HETATM   15  C22 UNL     1      -4.147   1.297   2.350  1.00  0.00     0.039 C 
HETATM   16  C23 UNL     1      -3.285   0.070   2.157  1.00  0.00     0.011 C 
HETATM   17  C24 UNL     1      -2.959  -0.204   0.711  1.00  0.00     0.011 C 
HETATM   18  C25 UNL     1      -1.631   0.446  -2.276  1.00  0.00     0.006 C 
HETATM   19  C26 UNL     1      -0.827   1.318  -3.254  1.00  0.00     0.007 C 
HETATM   20  C27 UNL     1       0.407   0.744  -2.577  1.00  0.00     0.011 C 
HETATM   21  C28 UNL     1      -0.437  -0.407  -2.064  1.00  0.00    -0.029 C 
HETATM   22  C29 UNL     1      -0.332  -1.571  -3.035  1.00  0.00     0.016 C 
ENDROOT
BRANCH   1  23
HETATM   23  C8  UNL     1       1.319  -1.257  -0.616  1.00  0.00     0.132 C 
HETATM   24  O3  UNL     1       2.010  -0.963  -1.570  1.00  0.00    -0.298 OA
BRANCH  23  25
HETATM   25  C7  UNL     1       1.819  -2.016   0.541  1.00  0.00     0.088 C 
BRANCH  25  26
HETATM   26  C6  UNL     1       2.733  -1.384   1.482  1.00  0.00     0.110 C 
BRANCH  26  27
HETATM   27  C5  UNL     1       4.057  -0.944   1.033  1.00  0.00     0.217 C 
HETATM   28  N1  UNL     1       4.974  -0.324   1.906  1.00  0.00    -0.361 N 
ATOM     29  H1  UNL     1       4.681  -0.177   2.872  1.00  0.00     0.162 HD
HETATM   30  O2  UNL     1       4.381  -1.129  -0.160  1.00  0.00    -0.274 OA
BRANCH  28  31
HETATM   31  C4  UNL     1       6.288   0.116   1.538  1.00  0.00     0.123 C 
BRANCH  31  32
HETATM   32  C3  UNL     1       7.113  -1.039   1.092  1.00  0.00     0.032 C 
BRANCH  32  33
HETATM   33  C2  UNL     1       8.540  -0.773   0.764  1.00  0.00     0.110 C 
BRANCH  33  34
HETATM   34  S1  UNL     1       8.918   0.365  -0.476  1.00  0.00     0.010 S 
HETATM   35  C1  UNL     1       8.366   1.994  -0.193  1.00  0.00     0.127 C 
HETATM   36  O1  UNL     1       8.592  -0.180  -2.018  1.00  0.00    -0.258 OA
ENDBRANCH  33  34
ENDBRANCH  32  33
ENDBRANCH  31  32
ENDBRANCH  28  31
ENDBRANCH  26  27
ENDBRANCH  25  26
ENDBRANCH  23  25
ENDBRANCH   1  23
BRANCH  11  37
HETATM   37  O5  UNL     1      -8.945   0.326  -0.440  1.00  0.00    -0.361 OA
ATOM     38  H5  UNL     1      -9.792   0.562  -0.081  1.00  0.00     0.217 HD
ENDBRANCH  11  37
TORSDOF 9
