REMARK  8 active torsions:
REMARK  status: ('A' for Active; 'I' for Inactive)
REMARK    1  A    between atoms: C1_2  and  C2_3 
REMARK       I    between atoms: C1_2  and  N2_25 
REMARK    2  A    between atoms: C2_3  and  C3_4 
REMARK    3  A    between atoms: C3_4  and  O2_5 
REMARK    4  A    between atoms: N1_15  and  C12_16 
REMARK    5  A    between atoms: C12_16  and  C13_17 
REMARK    6  A    between atoms: N2_25  and  C19_27 
REMARK    7  A    between atoms: C19_27  and  C20_28 
REMARK    8  A    between atoms: C20_28  and  C21_29 
ROOT
HETATM    1  C3  UNL     1      -1.900  -0.609   1.883  1.00  0.00     0.146 C 
HETATM    2  C4  UNL     1      -1.938  -2.102   1.731  1.00  0.00     0.049 C 
HETATM    3  C5  UNL     1      -3.343  -2.638   1.949  1.00  0.00     0.014 C 
HETATM    4  C6  UNL     1      -4.139  -2.607   0.662  1.00  0.00    -0.024 C 
HETATM    5  C7  UNL     1      -5.241  -3.633   0.753  1.00  0.00     0.011 C 
HETATM    6  C8  UNL     1      -5.685  -3.739  -0.694  1.00  0.00     0.001 C 
HETATM    7  C9  UNL     1      -4.438  -3.545  -1.501  1.00  0.00     0.001 C 
HETATM    8  C10 UNL     1      -3.365  -3.046  -0.533  1.00  0.00     0.011 C 
HETATM    9  C11 UNL     1      -4.766  -1.257   0.539  1.00  0.00     0.135 C 
HETATM   10  N1  UNL     1      -3.841  -0.202   0.167  1.00  0.00    -0.348 N 
HETATM   11  C18 UNL     1      -2.517  -0.021   0.636  1.00  0.00     0.255 C 
HETATM   12  O4  UNL     1      -1.751   0.713  -0.055  1.00  0.00    -0.270 OA
ENDROOT
BRANCH   1  13
HETATM   13  C2  UNL     1      -0.561  -0.034   2.164  1.00  0.00     0.150 C 
BRANCH  13  14
HETATM   14  C1  UNL     1       0.507  -0.313   1.217  1.00  0.00     0.221 C 
HETATM   15  O1  UNL     1       0.392  -1.065   0.236  1.00  0.00    -0.273 OA
HETATM   16  N2  UNL     1       1.779   0.302   1.400  1.00  0.00    -0.361 N 
ATOM     17  H2  UNL     1       1.915   0.927   2.194  1.00  0.00     0.162 HD
BRANCH  16  18
HETATM   18  C19 UNL     1       2.887   0.069   0.495  1.00  0.00     0.123 C 
BRANCH  18  19
HETATM   19  C20 UNL     1       4.087   0.857   0.954  1.00  0.00     0.029 C 
BRANCH  19  20
HETATM   20  C21 UNL     1       5.279   0.671   0.070  1.00  0.00    -0.038 C 
HETATM   21  C22 UNL     1       5.682  -0.771   0.034  1.00  0.00     0.014 C 
HETATM   22  C23 UNL     1       6.924  -0.967  -0.815  1.00  0.00    -0.013 C 
HETATM   23  C24 UNL     1       8.058  -0.215  -0.174  1.00  0.00     0.009 C 
HETATM   24  C28 UNL     1       6.605  -0.486  -2.198  1.00  0.00     0.009 C 
HETATM   25  C25 UNL     1       7.659   1.246  -0.112  1.00  0.00    -0.013 C 
HETATM   26  C26 UNL     1       7.479   1.730  -1.528  1.00  0.00     0.009 C 
HETATM   27  C30 UNL     1       6.434   1.439   0.720  1.00  0.00     0.014 C 
HETATM   28  C27 UNL     1       6.301   0.987  -2.140  1.00  0.00    -0.013 C 
HETATM   29  C29 UNL     1       5.083   1.256  -1.307  1.00  0.00     0.014 C 
ENDBRANCH  19  20
ENDBRANCH  18  19
ENDBRANCH  16  18
ENDBRANCH  13  14
ENDBRANCH   1  13
BRANCH   1  30
HETATM   30  O2  UNL     1      -2.743  -0.220   2.954  1.00  0.00    -0.380 OA
ATOM     31  H2  UNL     1      -3.600  -0.588   2.774  1.00  0.00     0.211 HD
ENDBRANCH   1  30
BRANCH  10  32
HETATM   32  C12 UNL     1      -4.366   0.751  -0.776  1.00  0.00     0.130 C 
BRANCH  32  33
HETATM   33  C13 UNL     1      -5.125   1.887  -0.186  1.00  0.00     0.008 C 
HETATM   34  C14 UNL     1      -5.660   2.837  -1.232  1.00  0.00     0.032 C 
HETATM   35  C15 UNL     1      -4.749   3.992  -1.536  1.00  0.00     0.168 C 
HETATM   36  O3  UNL     1      -4.389   4.665  -0.361  1.00  0.00    -0.391 OA
HETATM   37  C16 UNL     1      -3.563   3.781   0.328  1.00  0.00     0.168 C 
HETATM   38  C17 UNL     1      -4.429   2.673   0.878  1.00  0.00     0.032 C 
ENDBRANCH  32  33
ENDBRANCH  10  32
TORSDOF 8
