REMARK  3 active torsions:
REMARK  status: ('A' for Active; 'I' for Inactive)
REMARK    1  A    between atoms: C2_2  and  N1_5 
REMARK    2  A    between atoms: C8_9  and  N2_10 
REMARK    3  A    between atoms: N2_10  and  C9_12 
ROOT
HETATM    1  N1  UNL     1      -1.447   0.265   0.224  1.00  0.00    -0.061 N 
HETATM    2  C5  UNL     1      -1.543   1.433   1.104  1.00  0.00     0.273 C 
HETATM    3  C6  UNL     1      -0.794  -0.806   0.908  1.00  0.00     0.240 C 
HETATM    4  C7  UNL     1       0.693  -0.690   0.622  1.00  0.00     0.055 C 
HETATM    5  C8  UNL     1       0.815   0.574  -0.185  1.00  0.00     0.112 C 
HETATM    6  C12 UNL     1      -0.550   0.660  -0.840  1.00  0.00     0.263 C 
ENDROOT
BRANCH   5   7
HETATM    7  N2  UNL     1       1.865   0.472  -1.170  1.00  0.00    -0.356 N 
ATOM      8  H2  UNL     1       1.658   0.570  -2.164  1.00  0.00     0.163 HD
BRANCH   7   9
HETATM    9  C9  UNL     1       3.188   0.233  -0.726  1.00  0.00     0.171 C 
HETATM   10  N3  UNL     1       4.031   1.114  -0.276  1.00  0.00    -0.361 N 
HETATM   11  C10 UNL     1       5.286   0.492   0.082  1.00  0.00     0.142 C 
ATOM     12  H3  UNL     1       3.834   2.111  -0.187  1.00  0.00     0.162 HD
HETATM   13  C11 UNL     1       5.221  -0.823  -0.667  1.00  0.00     0.142 C 
HETATM   14  N4  UNL     1       3.791  -1.054  -0.715  1.00  0.00    -0.361 N 
ATOM     15  H4  UNL     1       3.315  -1.956  -0.736  1.00  0.00     0.162 HD
ENDBRANCH   7   9
ENDBRANCH   5   7
BRANCH   1  16
HETATM   16  C2  UNL     1      -2.758  -0.075  -0.222  1.00  0.00     0.118 C 
HETATM   17  C1  UNL     1      -3.509  -0.710   0.932  1.00  0.00     0.046 C 
HETATM   18  C3  UNL     1      -2.810  -1.058  -1.338  1.00  0.00     0.046 C 
HETATM   19  C4  UNL     1      -3.531   1.161  -0.644  1.00  0.00     0.046 C 
ENDBRANCH   1  16
TORSDOF 3
