REMARK  8 active torsions:
REMARK  status: ('A' for Active; 'I' for Inactive)
REMARK    1  A    between atoms: C2_2  and  C3_3 
REMARK    2  A    between atoms: C3_3  and  C4_4 
REMARK    3  A    between atoms: C4_4  and  C5_5 
REMARK    4  A    between atoms: C9_12  and  N2_13 
REMARK    5  A    between atoms: C10_17  and  C11_18 
REMARK    6  A    between atoms: C15_25  and  C16_26 
REMARK    7  A    between atoms: C20_33  and  C21_34 
REMARK    8  A    between atoms: C21_34  and  C22_35 
ROOT
HETATM    1  C5  UNL     1      -1.790   1.592   0.283  1.00  0.00     0.176 C 
HETATM    2  N1  UNL     1      -0.830   2.676   0.478  1.00  0.00    -0.348 N 
ATOM      3  H1  UNL     1      -1.194   3.580   0.780  1.00  0.00     0.163 HD
HETATM    4  C6  UNL     1       0.552   2.568   0.282  1.00  0.00     0.218 C 
HETATM    5  O1  UNL     1       1.318   3.162   1.085  1.00  0.00    -0.274 OA
HETATM    6  C7  UNL     1       1.194   1.799  -0.812  1.00  0.00     0.105 C 
HETATM    7  C8  UNL     1       2.693   1.935  -0.781  1.00  0.00     0.044 C 
HETATM    8  C9  UNL     1       3.381   1.044  -1.760  1.00  0.00     0.207 C 
HETATM    9  C10 UNL     1       4.160  -0.029  -0.995  1.00  0.00     0.118 C 
HETATM   10  N3  UNL     1       3.857  -1.323  -1.561  1.00  0.00    -0.352 N 
ATOM     11  H3  UNL     1       4.229  -1.523  -2.490  1.00  0.00     0.163 HD
HETATM   12  C14 UNL     1       3.094  -2.333  -0.944  1.00  0.00     0.240 C 
HETATM   13  O2  UNL     1       2.968  -3.444  -1.520  1.00  0.00    -0.271 OA
HETATM   14  C15 UNL     1       2.410  -2.182   0.366  1.00  0.00     0.176 C 
HETATM   15  N4  UNL     1       1.236  -3.028   0.353  1.00  0.00    -0.348 N 
ATOM     16  H4  UNL     1       1.242  -3.836  -0.270  1.00  0.00     0.163 HD
HETATM   17  C18 UNL     1       0.087  -2.818   1.137  1.00  0.00     0.220 C 
HETATM   18  O3  UNL     1      -0.466  -3.839   1.674  1.00  0.00    -0.274 OA
HETATM   19  C19 UNL     1      -0.557  -1.519   1.408  1.00  0.00     0.128 C 
HETATM   20  C20 UNL     1      -2.066  -1.567   1.203  1.00  0.00     0.095 C 
HETATM   21  N5  UNL     1      -2.625  -0.364   1.768  1.00  0.00    -0.349 N 
HETATM   22  C25 UNL     1      -3.755  -0.622   2.687  1.00  0.00     0.153 C 
HETATM   23  C26 UNL     1      -2.205   0.968   1.532  1.00  0.00     0.242 C 
HETATM   24  O4  UNL     1      -2.188   1.730   2.563  1.00  0.00    -0.271 OA
ENDROOT
BRANCH   1  25
HETATM   25  C4  UNL     1      -2.944   2.158  -0.522  1.00  0.00     0.035 C 
BRANCH  25  26
HETATM   26  C3  UNL     1      -3.669   3.285   0.097  1.00  0.00     0.002 C 
BRANCH  26  27
HETATM   27  C2  UNL     1      -4.781   3.674  -0.895  1.00  0.00    -0.004 C 
HETATM   28  C1  UNL     1      -5.575   4.848  -0.308  1.00  0.00     0.005 C 
ENDBRANCH  26  27
ENDBRANCH  25  26
ENDBRANCH   1  25
BRANCH  20  29
HETATM   29  C21 UNL     1      -2.440  -1.883  -0.199  1.00  0.00     0.029 C 
BRANCH  29  30
HETATM   30  C22 UNL     1      -3.915  -1.950  -0.459  1.00  0.00    -0.021 C 
HETATM   31  C23 UNL     1      -4.638  -2.978   0.328  1.00  0.00     0.009 C 
HETATM   32  C24 UNL     1      -4.227  -2.076  -1.944  1.00  0.00     0.009 C 
ENDBRANCH  29  30
ENDBRANCH  20  29
BRANCH   8  33
HETATM   33  N2  UNL     1       2.401   0.428  -2.640  1.00  0.00    -0.073 N 
ATOM     34  H23 UNL     1       1.674  -0.063  -2.120  1.00  0.00     0.274 HD
ATOM     35  H22 UNL     1       1.811   1.121  -3.101  1.00  0.00     0.274 HD
ATOM     36  H21 UNL     1       2.871  -0.181  -3.309  1.00  0.00     0.274 HD
ENDBRANCH   8  33
BRANCH   9  37
HETATM   37  C11 UNL     1       5.627   0.324  -1.154  1.00  0.00     0.002 C 
HETATM   38  C12 UNL     1       6.536  -0.640  -0.458  1.00  0.00     0.011 C 
HETATM   39  C13 UNL     1       5.874   1.699  -0.612  1.00  0.00     0.011 C 
ENDBRANCH   9  37
BRANCH  14  40
HETATM   40  C16 UNL     1       3.407  -2.657   1.419  1.00  0.00     0.030 C 
HETATM   41  C17 UNL     1       2.836  -2.557   2.807  1.00  0.00     0.007 C 
ENDBRANCH  14  40
TORSDOF 8
