REMARK  9 active torsions:
REMARK  status: ('A' for Active; 'I' for Inactive)
REMARK    1  A    between atoms: C2_2  and  C3_3 
REMARK    2  A    between atoms: C2_2  and  C18_23 
REMARK    3  A    between atoms: C3_3  and  C4_4 
REMARK    4  A    between atoms: C4_4  and  O1_5 
REMARK    5  A    between atoms: C6_8  and  C7_9 
REMARK    6  A    between atoms: C8_10  and  C9_11 
REMARK    7  A    between atoms: C13_16  and  C14_17 
REMARK    8  A    between atoms: C14_17  and  O2_20 
REMARK    9  A    between atoms: C18_23  and  C19_25 
ROOT
HETATM    1  C9  UNL     1      -5.594   3.798   0.173  1.00  0.00     0.011 C 
HETATM    2  C10 UNL     1      -6.083   5.033  -0.028  1.00  0.00     0.093 C 
HETATM    3  C11 UNL     1      -5.723   5.795  -1.194  1.00  0.00     0.087 C 
HETATM    4  N1  UNL     1      -5.434   6.423  -2.117  1.00  0.00    -0.192 NA
ENDROOT
BRANCH   1   5
HETATM    5  C8  UNL     1      -4.690   3.201  -0.782  1.00  0.00    -0.003 C 
HETATM    6  C7  UNL     1      -4.182   2.008  -0.644  1.00  0.00    -0.022 C 
BRANCH   6   7
HETATM    7  C6  UNL     1      -4.417   1.070   0.462  1.00  0.00     0.011 C 
HETATM    8  C5  UNL     1      -3.181   0.829   1.292  1.00  0.00     0.046 C 
HETATM    9  C4  UNL     1      -2.081   0.104   0.534  1.00  0.00     0.059 C 
HETATM   10  C17 UNL     1      -2.677  -0.992  -0.342  1.00  0.00     0.045 C 
HETATM   11  C13 UNL     1      -4.062  -1.342   0.169  1.00  0.00     0.023 C 
HETATM   12  C12 UNL     1      -5.021  -0.203  -0.081  1.00  0.00     0.016 C 
BRANCH   9  13
HETATM   13  C3  UNL     1      -1.160  -0.459   1.569  1.00  0.00     0.049 C 
BRANCH  13  14
HETATM   14  C2  UNL     1       0.045  -1.180   1.111  1.00  0.00     0.054 C 
HETATM   15  C1  UNL     1       0.773  -1.719   2.352  1.00  0.00     0.018 C 
BRANCH  14  16
HETATM   16  C18 UNL     1       1.047  -0.418   0.348  1.00  0.00     0.135 C 
HETATM   17  O3  UNL     1       1.091   0.817   0.481  1.00  0.00    -0.297 OA
BRANCH  16  18
HETATM   18  C19 UNL     1       2.027  -1.016  -0.576  1.00  0.00     0.058 C 
HETATM   19  C20 UNL     1       3.014  -1.963  -0.025  1.00  0.00     0.013 C 
HETATM   20  C21 UNL     1       4.229  -1.256   0.597  1.00  0.00     0.013 C 
HETATM   21  C22 UNL     1       4.908  -0.540  -0.523  1.00  0.00    -0.012 C 
HETATM   22  C23 UNL     1       5.042  -1.560  -1.666  1.00  0.00     0.018 C 
HETATM   23  C24 UNL     1       3.972   0.522  -1.035  1.00  0.00     0.134 C 
HETATM   24  C29 UNL     1       6.246   0.013  -0.206  1.00  0.00     0.024 A 
HETATM   25  C25 UNL     1       2.643   0.040  -1.477  1.00  0.00     0.045 C 
HETATM   26  O4  UNL     1       3.813   1.527  -0.119  1.00  0.00    -0.354 OA
HETATM   27  C26 UNL     1       4.957   2.094   0.363  1.00  0.00     0.279 C 
HETATM   28  O5  UNL     1       5.010   2.093   1.785  1.00  0.00    -0.288 OA
HETATM   29  C30 UNL     1       6.223   1.474  -0.108  1.00  0.00     0.025 A 
HETATM   30  C27 UNL     1       5.780   0.998   2.150  1.00  0.00     0.266 C 
HETATM   31  O6  UNL     1       5.689   0.452   3.283  1.00  0.00    -0.265 OA
HETATM   32  C28 UNL     1       6.653   0.631   1.042  1.00  0.00     0.105 A 
HETATM   33  C31 UNL     1       7.212   2.297  -0.889  1.00  0.00     0.022 C 
ENDBRANCH  16  18
ENDBRANCH  14  16
ENDBRANCH  13  14
ENDBRANCH   9  13
BRANCH   9  34
HETATM   34  O1  UNL     1      -1.460   1.022  -0.269  1.00  0.00    -0.390 OA
ATOM     35  H1  UNL     1      -2.045   1.380  -0.926  1.00  0.00     0.210 HD
ENDBRANCH   9  34
BRANCH  11  36
HETATM   36  C14 UNL     1      -4.516  -2.625  -0.465  1.00  0.00     0.054 C 
HETATM   37  C15 UNL     1      -5.862  -3.055   0.072  1.00  0.00     0.045 C 
HETATM   38  C16 UNL     1      -4.579  -2.569  -1.953  1.00  0.00     0.045 C 
BRANCH  36  39
HETATM   39  O2  UNL     1      -3.586  -3.613  -0.097  1.00  0.00    -0.390 OA
ATOM     40  H2  UNL     1      -3.873  -4.425  -0.498  1.00  0.00     0.210 HD
ENDBRANCH  36  39
ENDBRANCH  11  36
ENDBRANCH   6   7
ENDBRANCH   1   5
TORSDOF 9
