REMARK  7 active torsions:
REMARK  status: ('A' for Active; 'I' for Inactive)
REMARK    1  A    between atoms: N1_2  and  C3_4 
REMARK    2  A    between atoms: C3_4  and  C4_5 
REMARK    3  A    between atoms: C4_5  and  C5_6 
REMARK    4  A    between atoms: C5_6  and  C6_7 
REMARK    5  A    between atoms: C6_7  and  N2_8 
REMARK       I    between atoms: N2_8  and  C7_10 
REMARK       I    between atoms: C7_10  and  N3_12 
REMARK    6  A    between atoms: N3_12  and  C8_14 
REMARK    7  A    between atoms: N4_16  and  N5_18 
ROOT
HETATM    1  C8  UNL     1       2.481  -0.378   0.346  1.00  0.00     0.161 C 
HETATM    2  C9  UNL     1       3.782   0.066   0.907  1.00  0.00     0.115 C 
HETATM    3  N4  UNL     1       4.059   1.075   1.642  1.00  0.00    -0.294 N 
ATOM      4  H4  UNL     1       3.322   1.720   1.927  1.00  0.00     0.187 HD
HETATM    5  N6  UNL     1       4.717  -0.914   0.434  1.00  0.00    -0.372 N 
ATOM      6  H6  UNL     1       5.544  -1.255   0.923  1.00  0.00     0.161 HD
HETATM    7  C10 UNL     1       4.261  -1.317  -0.856  1.00  0.00     0.089 C 
HETATM    8  C11 UNL     1       4.791  -0.434  -1.963  1.00  0.00     0.026 C 
HETATM    9  C12 UNL     1       3.495   0.349  -1.874  1.00  0.00     0.011 C 
HETATM   10  C13 UNL     1       2.881  -0.747  -1.064  1.00  0.00     0.039 C 
ENDROOT
BRANCH   1  11
HETATM   11  N3  UNL     1       1.472   0.626   0.399  1.00  0.00    -0.331 N 
HETATM   12  C7  UNL     1       0.252   0.382   1.053  1.00  0.00     0.316 C 
HETATM   13  N2  UNL     1      -0.744   1.380   1.102  1.00  0.00    -0.343 N 
HETATM   14  O1  UNL     1       0.054  -0.727   1.593  1.00  0.00    -0.247 OA
ATOM     15  H2  UNL     1      -0.524   2.269   0.653  1.00  0.00     0.164 HD
ATOM     16  H3  UNL     1       1.636   1.531  -0.042  1.00  0.00     0.165 HD
BRANCH  13  17
HETATM   17  C6  UNL     1      -2.032   1.273   1.718  1.00  0.00     0.124 C 
BRANCH  17  18
HETATM   18  C5  UNL     1      -2.798   0.137   1.011  1.00  0.00     0.021 C 
BRANCH  18  19
HETATM   19  C4  UNL     1      -2.911   0.486  -0.439  1.00  0.00     0.032 C 
BRANCH  19  20
HETATM   20  C3  UNL     1      -3.593  -0.543  -1.248  1.00  0.00     0.271 C 
BRANCH  20  21
HETATM   21  N1  UNL     1      -4.926  -0.875  -0.941  1.00  0.00     0.080 N 
HETATM   22  C1  UNL     1      -5.174  -1.604   0.238  1.00  0.00     0.309 C 
HETATM   23  C2  UNL     1      -5.806   0.268  -1.069  1.00  0.00     0.309 C 
ENDBRANCH  20  21
ENDBRANCH  19  20
ENDBRANCH  18  19
ENDBRANCH  17  18
ENDBRANCH  13  17
ENDBRANCH   1  11
BRANCH   3  24
HETATM   24  N5  UNL     1       5.386   1.291   2.055  1.00  0.00    -0.344 N 
ATOM     25  H52 UNL     1       6.112   0.637   1.761  1.00  0.00     0.176 HD
ATOM     26  H51 UNL     1       5.607   2.096   2.641  1.00  0.00     0.176 HD
ENDBRANCH   3  24
TORSDOF 7
