REMARK  4 active torsions:
REMARK  status: ('A' for Active; 'I' for Inactive)
REMARK    1  A    between atoms: C2_2  and  C4_4 
REMARK    2  A    between atoms: C4_4  and  C5_5 
REMARK    3  A    between atoms: C5_5  and  C7_7 
REMARK    4  A    between atoms: C16_16  and  O1_17 
ROOT
HETATM    1  C7  UNL     1       2.105  -0.398   1.086  1.00  0.00    -0.002 C 
HETATM    2  C8  UNL     1       1.592   1.039   1.232  1.00  0.00     0.006 C 
HETATM    3  C9  UNL     1       0.111   0.983   1.319  1.00  0.00     0.006 C 
HETATM    4  C10 UNL     1      -0.170  -0.493   1.440  1.00  0.00    -0.002 C 
HETATM    5  C11 UNL     1      -1.553  -0.895   1.116  1.00  0.00    -0.005 C 
HETATM    6  C12 UNL     1      -2.448   0.139   1.827  1.00  0.00     0.006 C 
HETATM    7  C13 UNL     1      -3.850  -0.417   1.733  1.00  0.00     0.005 C 
HETATM    8  C14 UNL     1      -4.245  -0.344   0.282  1.00  0.00    -0.008 C 
HETATM    9  C15 UNL     1      -5.223   0.816   0.045  1.00  0.00     0.036 C 
HETATM   10  C16 UNL     1      -5.701   0.800  -1.369  1.00  0.00     0.118 C 
HETATM   11  C17 UNL     1      -4.578   0.715  -2.374  1.00  0.00     0.032 C 
HETATM   12  C18 UNL     1      -3.632  -0.432  -2.032  1.00  0.00     0.008 C 
HETATM   13  C19 UNL     1      -3.085  -0.103  -0.637  1.00  0.00    -0.006 C 
HETATM   14  C20 UNL     1      -1.897  -1.026  -0.319  1.00  0.00    -0.006 C 
HETATM   15  C21 UNL     1      -0.844  -0.795  -1.310  1.00  0.00     0.006 C 
HETATM   16  C22 UNL     1       0.547  -0.585  -0.855  1.00  0.00     0.010 C 
HETATM   17  C23 UNL     1       0.886  -1.069   0.511  1.00  0.00    -0.036 C 
HETATM   18  C24 UNL     1       0.866  -2.549   0.683  1.00  0.00     0.016 C 
ENDROOT
BRANCH   1  19
HETATM   19  C5  UNL     1       3.296  -0.371   0.202  1.00  0.00    -0.013 C 
HETATM   20  C6  UNL     1       3.834  -1.744  -0.133  1.00  0.00     0.010 C 
BRANCH  19  21
HETATM   21  C4  UNL     1       4.366   0.508   0.810  1.00  0.00     0.008 C 
BRANCH  21  22
HETATM   22  C2  UNL     1       5.546   0.734  -0.076  1.00  0.00    -0.022 C 
HETATM   23  C1  UNL     1       5.186   1.401  -1.384  1.00  0.00     0.009 C 
HETATM   24  C3  UNL     1       6.460   1.705   0.665  1.00  0.00     0.009 C 
ENDBRANCH  21  22
ENDBRANCH  19  21
ENDBRANCH   1  19
BRANCH  10  25
HETATM   25  O1  UNL     1      -6.375   2.007  -1.612  1.00  0.00    -0.396 OA
ATOM     26  H1  UNL     1      -6.679   1.997  -2.512  1.00  0.00     0.210 HD
ENDBRANCH  10  25
TORSDOF 4
