REMARK  5 active torsions:
REMARK  status: ('A' for Active; 'I' for Inactive)
REMARK    1  A    between atoms: C2_2  and  N1_3 
REMARK       I    between atoms: N1_3  and  C3_5 
REMARK    2  A    between atoms: C3_5  and  C4_7 
REMARK    3  A    between atoms: C7_11  and  C8_12 
REMARK    4  A    between atoms: C17_21  and  N2_22 
REMARK       I    between atoms: N2_22  and  C18_24 
REMARK       I    between atoms: C18_24  and  N3_26 
REMARK    5  A    between atoms: N3_26  and  C19_28 
ROOT
HETATM    1  C8  UNL     1      -2.203  -1.352  -0.496  1.00  0.00     0.005 A 
HETATM    2  C9  UNL     1      -3.025  -2.169   0.281  1.00  0.00     0.021 A 
HETATM    3  C10 UNL     1      -2.553  -2.944   1.314  1.00  0.00    -0.060 A 
HETATM    4  C11 UNL     1      -3.462  -3.799   2.114  1.00  0.00     0.048 C 
HETATM    5  C12 UNL     1      -1.210  -2.941   1.626  1.00  0.00     0.021 A 
HETATM    6  C13 UNL     1      -0.383  -2.148   0.878  1.00  0.00    -0.002 A 
HETATM    7  C14 UNL     1       0.962  -2.171   1.232  1.00  0.00    -0.046 A 
HETATM    8  C15 UNL     1       1.493  -2.991   2.332  1.00  0.00     0.049 C 
HETATM    9  C16 UNL     1       1.816  -1.373   0.497  1.00  0.00     0.056 A 
HETATM   10  C17 UNL     1       1.376  -0.584  -0.544  1.00  0.00     0.110 A 
HETATM   11  N4  UNL     1       0.039  -0.599  -0.850  1.00  0.00    -0.341 N 
ATOM     12  H4  UNL     1      -0.294  -0.016  -1.618  1.00  0.00     0.167 HD
HETATM   13  C23 UNL     1      -0.846  -1.349  -0.180  1.00  0.00     0.056 A 
ENDROOT
BRANCH   1  14
HETATM   14  C7  UNL     1      -2.706  -0.591  -1.626  1.00  0.00     0.018 A 
HETATM   15  C4  UNL     1      -3.684   0.375  -1.690  1.00  0.00     0.153 A 
HETATM   16  O2  UNL     1      -3.827   0.699  -2.964  1.00  0.00    -0.316 OA
HETATM   17  C5  UNL     1      -3.033   0.035  -3.741  1.00  0.00     0.143 A 
HETATM   18  C6  UNL     1      -2.291  -0.804  -2.949  1.00  0.00     0.040 A 
BRANCH  15  19
HETATM   19  C3  UNL     1      -4.438   0.955  -0.563  1.00  0.00     0.276 C 
HETATM   20  N1  UNL     1      -5.458   1.899  -0.875  1.00  0.00    -0.356 N 
ATOM     21  H1  UNL     1      -5.629   2.140  -1.851  1.00  0.00     0.162 HD
HETATM   22  O1  UNL     1      -4.164   0.608   0.587  1.00  0.00    -0.265 OA
BRANCH  20  23
HETATM   23  C2  UNL     1      -6.259   2.526   0.156  1.00  0.00     0.118 C 
HETATM   24  C1  UNL     1      -5.425   3.307   1.141  1.00  0.00     0.026 C 
ENDBRANCH  20  23
ENDBRANCH  15  19
ENDBRANCH   1  14
BRANCH  10  25
HETATM   25  N2  UNL     1       2.141   0.165  -1.256  1.00  0.00    -0.295 N 
HETATM   26  C18 UNL     1       3.526   0.285  -1.077  1.00  0.00     0.322 C 
HETATM   27  O3  UNL     1       4.266  -0.727  -1.079  1.00  0.00    -0.247 OA
HETATM   28  N3  UNL     1       4.127   1.562  -0.889  1.00  0.00    -0.335 N 
ATOM     29  H3  UNL     1       3.524   2.385  -0.889  1.00  0.00     0.165 HD
ATOM     30  H2  UNL     1       1.710   0.710  -2.003  1.00  0.00     0.172 HD
BRANCH  28  31
HETATM   31  C19 UNL     1       5.544   1.752  -0.699  1.00  0.00     0.023 C 
HETATM   32  C20 UNL     1       5.826   3.234  -0.540  1.00  0.00     0.037 C 
HETATM   33  C21 UNL     1       6.045   1.018   0.527  1.00  0.00     0.037 C 
HETATM   34  C22 UNL     1       6.312   1.275  -1.900  1.00  0.00     0.037 C 
ENDBRANCH  28  31
ENDBRANCH  10  25
TORSDOF 5
