REMARK  4 active torsions:
REMARK  status: ('A' for Active; 'I' for Inactive)
REMARK    1  A    between atoms: N2_5  and  C4_6 
REMARK    2  A    between atoms: N7_24  and  C15_25 
REMARK    3  A    between atoms: C15_25  and  C16_26 
REMARK    4  A    between atoms: C16_26  and  O1_27 
ROOT
HETATM    1  C4  UNL     1       0.673  -1.205   0.716  1.00  0.00     0.135 A 
HETATM    2  N3  UNL     1       0.830  -2.305   1.510  1.00  0.00    -0.337 N 
ATOM      3  H3  UNL     1       0.055  -2.594   2.107  1.00  0.00     0.168 HD
HETATM    4  C5  UNL     1       1.959  -3.015   1.533  1.00  0.00     0.183 A 
HETATM    5  N4  UNL     1       3.002  -2.667   0.762  1.00  0.00    -0.336 N 
ATOM      6  H4  UNL     1       3.858  -3.220   0.791  1.00  0.00     0.168 HD
HETATM    7  C6  UNL     1       2.930  -1.611  -0.037  1.00  0.00     0.141 A 
HETATM    8  C7  UNL     1       1.754  -0.864  -0.068  1.00  0.00     0.122 A 
HETATM    9  N5  UNL     1       1.973   0.113  -0.944  1.00  0.00    -0.340 N 
ATOM     10  H5  UNL     1       1.298   0.836  -1.193  1.00  0.00     0.167 HD
HETATM   11  C8  UNL     1       3.230   0.008  -1.461  1.00  0.00     0.085 A 
HETATM   12  N6  UNL     1       3.810  -1.051  -0.899  1.00  0.00    -0.321 N 
HETATM   13  C9  UNL     1       5.163  -1.507  -1.183  1.00  0.00     0.132 C 
HETATM   14  C10 UNL     1       5.780  -0.776  -2.325  1.00  0.00     0.021 C 
HETATM   15  C11 UNL     1       5.397   0.690  -2.375  1.00  0.00     0.009 C 
HETATM   16  C12 UNL     1       3.908   0.878  -2.472  1.00  0.00     0.077 C 
ENDROOT
BRANCH   1  17
HETATM   17  N2  UNL     1      -0.539  -0.465   0.711  1.00  0.00    -0.359 N 
HETATM   18  C3  UNL     1      -0.488   0.909   1.125  1.00  0.00     0.170 C 
HETATM   19  C2  UNL     1      -1.703   1.696   0.788  1.00  0.00     0.097 C 
HETATM   20  N1  UNL     1      -2.937   1.177   1.212  1.00  0.00    -0.328 N 
HETATM   21  C1  UNL     1      -3.243   1.210   2.584  1.00  0.00     0.170 C 
HETATM   22  N7  UNL     1      -3.535   0.228   0.444  1.00  0.00    -0.227 NA
HETATM   23  C14 UNL     1      -2.687  -0.437  -0.499  1.00  0.00     0.133 C 
HETATM   24  C13 UNL     1      -1.679  -1.260   0.267  1.00  0.00     0.141 C 
BRANCH  22  25
HETATM   25  C15 UNL     1      -4.711   0.689  -0.265  1.00  0.00     0.139 C 
BRANCH  25  26
HETATM   26  C16 UNL     1      -5.676   1.410   0.652  1.00  0.00     0.180 C 
BRANCH  26  27
HETATM   27  O1  UNL     1      -6.766   1.803  -0.147  1.00  0.00    -0.400 OA
ATOM     28  H1  UNL     1      -7.372   2.255   0.428  1.00  0.00     0.209 HD
ENDBRANCH  26  27
ENDBRANCH  25  26
ENDBRANCH  22  25
ENDBRANCH   1  17
TORSDOF 4
