REMARK  3 active torsions:
REMARK  status: ('A' for Active; 'I' for Inactive)
REMARK    1  A    between atoms: C3_4  and  N2_5 
REMARK    2  A    between atoms: C8_13  and  N4_14 
REMARK    3  A    between atoms: C13_24  and  N7_25 
ROOT
HETATM    1  N1  UNL     1      -4.041  -1.385   0.095  1.00  0.00    -0.191 NA
HETATM    2  C1  UNL     1      -2.905  -1.151   0.063  1.00  0.00     0.107 C 
HETATM    3  C2  UNL     1      -1.494  -0.838   0.039  1.00  0.00     0.133 A 
HETATM    4  C3  UNL     1      -1.058   0.475   0.194  1.00  0.00     0.144 A 
HETATM    5  N3  UNL     1       0.274   0.663   0.159  1.00  0.00    -0.175 N 
ATOM      6  H3  UNL     1       0.607   1.621   0.272  1.00  0.00     0.186 HD
HETATM    7  C8  UNL     1       1.195  -0.273  -0.008  1.00  0.00     0.683 A 
HETATM    8  N6  UNL     1       0.754  -1.555  -0.159  1.00  0.00    -0.175 N 
ATOM      9  H6  UNL     1       1.428  -2.309  -0.291  1.00  0.00     0.186 HD
HETATM   10  C13 UNL     1      -0.559  -1.833  -0.135  1.00  0.00     0.150 A 
ENDROOT
BRANCH   4  11
HETATM   11  N2  UNL     1      -1.966   1.553   0.375  1.00  0.00    -0.361 N 
HETATM   12  C4  UNL     1      -2.981   1.944  -0.580  1.00  0.00     0.150 C 
HETATM   13  C5  UNL     1      -2.989   3.431  -0.829  1.00  0.00     0.187 C 
HETATM   14  O1  UNL     1      -2.683   4.168   0.308  1.00  0.00    -0.388 OA
HETATM   15  C6  UNL     1      -2.882   3.453   1.479  1.00  0.00     0.187 C 
HETATM   16  C7  UNL     1      -1.894   2.338   1.591  1.00  0.00     0.150 C 
ENDBRANCH   4  11
BRANCH  10  17
HETATM   17  N7  UNL     1      -0.987  -3.161  -0.287  1.00  0.00    -0.302 N 
HETATM   18  C14 UNL     1      -1.684  -4.194   0.461  1.00  0.00     0.143 C 
HETATM   19  C15 UNL     1      -2.147  -4.701  -0.888  1.00  0.00     0.123 C 
HETATM   20  C16 UNL     1      -0.883  -4.098  -1.343  1.00  0.00     0.227 C 
HETATM   21  O2  UNL     1      -0.056  -4.291  -2.248  1.00  0.00    -0.273 OA
ENDBRANCH  10  17
BRANCH   7  22
HETATM   22  N4  UNL     1       2.582   0.041  -0.021  1.00  0.00    -0.214 N 
HETATM   23  C9  UNL     1       2.977   1.392   0.334  1.00  0.00     0.168 C 
HETATM   24  C10 UNL     1       4.399   1.714   0.026  1.00  0.00     0.252 C 
HETATM   25  N5  UNL     1       5.243   0.585   0.257  1.00  0.00    -0.072 N 
HETATM   26  C11 UNL     1       4.891  -0.479  -0.652  1.00  0.00     0.252 C 
ATOM     27  H52 UNL     1       6.232   0.827   0.201  1.00  0.00     0.277 HD
ATOM     28  H51 UNL     1       5.221   0.282   1.231  1.00  0.00     0.277 HD
HETATM   29  C12 UNL     1       3.496  -1.007  -0.391  1.00  0.00     0.168 C 
ENDBRANCH   7  22
TORSDOF 3
