REMARK  6 active torsions:
REMARK  status: ('A' for Active; 'I' for Inactive)
REMARK    1  A    between atoms: N1_2  and  C3_4 
REMARK    2  A    between atoms: C10_16  and  N4_17 
REMARK    3  A    between atoms: N4_17  and  C11_19 
REMARK    4  A    between atoms: N5_29  and  C18_30 
REMARK    5  A    between atoms: C18_30  and  C19_31 
REMARK       I    between atoms: C19_31  and  N6_33 
REMARK    6  A    between atoms: N6_33  and  C20_35 
ROOT
HETATM    1  C11 UNL     1      -0.741   1.420   1.473  1.00  0.00     0.058 A 
HETATM    2  C12 UNL     1       0.373   0.646   1.567  1.00  0.00     0.062 A 
HETATM    3  C13 UNL     1       1.420   0.959   2.474  1.00  0.00     0.056 A 
HETATM    4  C14 UNL     1       1.213   2.081   3.227  1.00  0.00     0.036 A 
HETATM    5  C15 UNL     1       0.053   2.870   3.116  1.00  0.00     0.047 A 
HETATM    6  C16 UNL     1      -0.950   2.550   2.231  1.00  0.00     0.062 A 
HETATM    7 CL1  UNL     1      -2.348   3.559   2.146  1.00  0.00    -0.082 Cl
HETATM    8  S2  UNL     1       2.623   2.148   4.187  1.00  0.00    -0.058 SA
HETATM    9  C17 UNL     1       3.396   0.758   3.587  1.00  0.00     0.146 A 
HETATM   10  S3  UNL     1       4.859   0.115   4.032  1.00  0.00    -0.052 SA
HETATM   11  N5  UNL     1       2.547   0.294   2.674  1.00  0.00    -0.322 N 
ENDROOT
BRANCH   1  12
HETATM   12  N4  UNL     1      -1.765   1.072   0.564  1.00  0.00    -0.340 N 
ATOM     13  H4  UNL     1      -2.709   0.982   0.940  1.00  0.00     0.167 HD
BRANCH  12  14
HETATM   14  C10 UNL     1      -1.613   0.858  -0.695  1.00  0.00     0.120 A 
HETATM   15  N3  UNL     1      -0.384   0.966  -1.231  1.00  0.00    -0.338 N 
HETATM   16  C9  UNL     1      -0.077   0.801  -2.505  1.00  0.00     0.182 A 
ATOM     17  H3  UNL     1       0.380   1.196  -0.596  1.00  0.00     0.168 HD
HETATM   18  N2  UNL     1      -1.101   0.500  -3.324  1.00  0.00    -0.346 N 
HETATM   19  C8  UNL     1      -2.385   0.373  -2.846  1.00  0.00     0.090 A 
ATOM     20  H2  UNL     1      -0.922   0.363  -4.319  1.00  0.00     0.167 HD
HETATM   21  S1  UNL     1      -3.876   0.025  -3.590  1.00  0.00    -0.075 SA
HETATM   22  C26 UNL     1      -2.716   0.540  -1.525  1.00  0.00     0.049 A 
HETATM   23  C7  UNL     1      -4.895   0.093  -2.233  1.00  0.00    -0.006 A 
HETATM   24  C6  UNL     1      -4.040   0.389  -1.208  1.00  0.00    -0.028 A 
HETATM   25  C27 UNL     1      -6.376  -0.088  -2.107  1.00  0.00     0.071 C 
HETATM   26  C5  UNL     1      -4.654   0.494   0.189  1.00  0.00     0.043 C 
HETATM   27  C4  UNL     1      -5.822  -0.474   0.205  1.00  0.00     0.030 C 
HETATM   28  C3  UNL     1      -6.851   0.158  -0.725  1.00  0.00     0.083 C 
BRANCH  28  29
HETATM   29  N1  UNL     1      -8.136  -0.367  -0.422  1.00  0.00    -0.416 N 
HETATM   30  C1  UNL     1      -8.311  -1.766  -0.608  1.00  0.00     0.143 C 
HETATM   31  C2  UNL     1      -8.789   0.181   0.723  1.00  0.00     0.143 C 
ENDBRANCH  28  29
ENDBRANCH  12  14
ENDBRANCH   1  12
BRANCH  11  32
HETATM   32  C18 UNL     1       2.903  -0.945   1.919  1.00  0.00     0.233 C 
BRANCH  32  33
HETATM   33  C19 UNL     1       3.676  -0.619   0.700  1.00  0.00     0.236 C 
HETATM   34  O1  UNL     1       3.154  -0.034  -0.293  1.00  0.00    -0.272 OA
HETATM   35  N6  UNL     1       5.050  -0.947   0.575  1.00  0.00    -0.355 N 
ATOM     36  H6  UNL     1       5.510  -1.425   1.350  1.00  0.00     0.162 HD
BRANCH  35  37
HETATM   37  C20 UNL     1       5.841  -0.629  -0.622  1.00  0.00     0.084 C 
HETATM   38  C21 UNL     1       6.465  -1.877  -1.206  1.00  0.00     0.025 C 
HETATM   39  C22 UNL     1       7.815  -1.648  -1.815  1.00  0.00     0.002 C 
HETATM   40  C23 UNL     1       8.800  -1.052  -0.830  1.00  0.00     0.000 C 
HETATM   41  C24 UNL     1       8.054  -0.562   0.398  1.00  0.00     0.002 C 
HETATM   42  C25 UNL     1       6.931   0.321  -0.124  1.00  0.00     0.025 C 
ENDBRANCH  35  37
ENDBRANCH  32  33
ENDBRANCH  11  32
TORSDOF 6
