REMARK  6 active torsions:
REMARK  status: ('A' for Active; 'I' for Inactive)
REMARK    1  A    between atoms: C6_7  and  N1_8 
REMARK    2  A    between atoms: N1_8  and  C7_10 
REMARK    3  A    between atoms: C14_21  and  C15_22 
REMARK    4  A    between atoms: C15_22  and  N4_23 
REMARK    5  A    between atoms: N5_26  and  C18_27 
REMARK    6  A    between atoms: C18_27  and  N6_28 
ROOT
HETATM    1 CL1  UNL     1      -8.889  -4.974   2.448  1.00  0.00    -0.076 Cl
HETATM    2  C1  UNL     1      -7.245  -4.537   1.985  1.00  0.00     0.076 A 
HETATM    3  C2  UNL     1      -6.751  -3.306   1.665  1.00  0.00     0.044 A 
HETATM    4  C3  UNL     1      -5.441  -3.238   1.342  1.00  0.00    -0.016 A 
HETATM    5  C4  UNL     1      -4.715  -2.090   0.982  1.00  0.00     0.029 A 
HETATM    6  C5  UNL     1      -3.375  -2.157   0.673  1.00  0.00     0.019 A 
HETATM    7  C6  UNL     1      -2.713  -0.954   0.318  1.00  0.00     0.058 A 
HETATM    8  C14 UNL     1      -1.372  -1.077   0.019  1.00  0.00     0.022 A 
HETATM    9  C27 UNL     1      -0.736  -2.308   0.070  1.00  0.00     0.103 A 
HETATM   10  N9  UNL     1      -1.404  -3.424   0.412  1.00  0.00    -0.364 N 
ATOM     11  H9  UNL     1      -0.923  -4.323   0.445  1.00  0.00     0.165 HD
HETATM   12  C28 UNL     1      -2.685  -3.344   0.703  1.00  0.00     0.045 A 
HETATM   13  C29 UNL     1      -3.373  -4.489   1.055  1.00  0.00     0.050 A 
HETATM   14  C30 UNL     1      -4.727  -4.398   1.362  1.00  0.00     0.019 A 
HETATM   15  S1  UNL     1      -5.888  -5.557   1.829  1.00  0.00    -0.077 SA
ENDROOT
BRANCH   8  16
HETATM   16  C15 UNL     1      -0.588   0.128  -0.321  1.00  0.00     0.100 C 
BRANCH  16  17
HETATM   17  N4  UNL     1       0.739   0.000  -0.688  1.00  0.00    -0.386 N 
HETATM   18  C16 UNL     1       1.167  -0.564  -1.889  1.00  0.00     0.152 C 
HETATM   19  C17 UNL     1       2.544  -0.043  -2.319  1.00  0.00     0.294 C 
HETATM   20  N5  UNL     1       3.535  -0.182  -1.287  1.00  0.00     0.109 N 
HETATM   21  C25 UNL     1       2.972  -0.791  -0.136  1.00  0.00     0.294 C 
HETATM   22  C26 UNL     1       1.693  -0.124   0.365  1.00  0.00     0.152 C 
BRANCH  20  23
HETATM   23  C18 UNL     1       4.193   1.067  -1.094  1.00  0.00     0.403 C 
BRANCH  23  24
HETATM   24  N6  UNL     1       5.212   1.056  -0.087  1.00  0.00    -0.314 N 
HETATM   25  C19 UNL     1       5.015   1.328   1.208  1.00  0.00     0.185 A 
HETATM   26  N7  UNL     1       6.194   1.218   1.830  1.00  0.00    -0.349 N 
HETATM   27  C20 UNL     1       7.110   0.882   0.936  1.00  0.00     0.075 A 
ATOM     28  H7  UNL     1       6.359   1.368   2.825  1.00  0.00     0.166 HD
HETATM   29  C21 UNL     1       8.481   0.634   1.004  1.00  0.00     0.119 A 
HETATM   30  C24 UNL     1       6.504   0.773  -0.295  1.00  0.00     0.066 A 
HETATM   31  N8  UNL     1       9.191   0.302  -0.089  1.00  0.00    -0.373 N 
HETATM   32  C22 UNL     1       8.633   0.186  -1.307  1.00  0.00     0.090 A 
ATOM     33  H8  UNL     1      10.192   0.132   0.010  1.00  0.00     0.164 HD
HETATM   34  C23 UNL     1       7.277   0.428  -1.389  1.00  0.00     0.049 A 
ENDBRANCH  23  24
ENDBRANCH  20  23
ENDBRANCH  16  17
ENDBRANCH   8  16
BRANCH   7  35
HETATM   35  N1  UNL     1      -3.383   0.064   0.307  1.00  0.00    -0.355 N 
ATOM     36  H1  UNL     1      -4.318  -0.242   0.577  1.00  0.00     0.166 HD
BRANCH  35  37
HETATM   37  C7  UNL     1      -3.503   1.378   0.118  1.00  0.00     0.034 A 
HETATM   38  C8  UNL     1      -3.237   2.262   1.176  1.00  0.00     0.032 A 
HETATM   39  C9  UNL     1      -3.344   3.609   1.097  1.00  0.00     0.034 A 
HETATM   40  C10 UNL     1      -3.743   4.192  -0.107  1.00  0.00     0.060 A 
HETATM   41  N2  UNL     1      -3.930   5.473  -0.471  1.00  0.00    -0.351 N 
HETATM   42  C12 UNL     1      -4.016   3.378  -1.180  1.00  0.00     0.062 A 
HETATM   43  C11 UNL     1      -4.317   5.474  -1.755  1.00  0.00     0.181 A 
ATOM     44  H2  UNL     1      -3.801   6.294   0.121  1.00  0.00     0.166 HD
HETATM   45  N3  UNL     1      -4.373   4.208  -2.195  1.00  0.00    -0.350 N 
ATOM     46  H3  UNL     1      -4.639   3.917  -3.136  1.00  0.00     0.166 HD
HETATM   47  C13 UNL     1      -3.900   2.013  -1.070  1.00  0.00     0.061 A 
ENDBRANCH  35  37
ENDBRANCH   7  35
TORSDOF 6
