REMARK  1 active torsions:
REMARK  status: ('A' for Active; 'I' for Inactive)
REMARK    1  A    between atoms: C7_7  and  N1_8 
ROOT
HETATM    1  C1  UNL     1      -4.475   0.970   0.263  1.00  0.00     0.040 C 
HETATM    2  C2  UNL     1      -3.304   0.689  -0.661  1.00  0.00     0.121 C 
HETATM    3  C3  UNL     1      -2.989  -0.775  -0.670  1.00  0.00     0.036 C 
HETATM    4  C4  UNL     1      -2.241  -1.224   0.558  1.00  0.00    -0.007 C 
HETATM    5  C5  UNL     1      -1.163  -2.164   0.135  1.00  0.00     0.009 C 
HETATM    6  C6  UNL     1       0.209  -1.779   0.629  1.00  0.00     0.054 C 
HETATM    7  C7  UNL     1       0.625  -0.399   0.202  1.00  0.00     0.231 C 
HETATM    8  O1  UNL     1      -0.343   0.298  -0.475  1.00  0.00    -0.331 OA
HETATM    9  C15 UNL     1      -1.233   0.978   0.336  1.00  0.00     0.163 C 
HETATM   10  C16 UNL     1      -0.595   2.078   1.140  1.00  0.00     0.079 C 
HETATM   11  C17 UNL     1      -1.761  -0.047   1.349  1.00  0.00     0.072 C 
HETATM   12  O2  UNL     1      -2.234   1.508  -0.430  1.00  0.00    -0.350 OA
ENDROOT
BRANCH   7  13
HETATM   13  N1  UNL     1       1.832  -0.522  -0.602  1.00  0.00    -0.324 N 
HETATM   14  C8  UNL     1       2.009  -1.333  -1.675  1.00  0.00     0.138 A 
HETATM   15  C9  UNL     1       3.280  -1.172  -2.172  1.00  0.00     0.160 A 
HETATM   16  F1  UNL     1       3.849  -1.791  -3.226  1.00  0.00    -0.202 F 
HETATM   17  C10 UNL     1       3.926  -0.233  -1.390  1.00  0.00     0.099 A 
HETATM   18  N2  UNL     1       5.182   0.290  -1.442  1.00  0.00    -0.362 N 
HETATM   19  C14 UNL     1       2.997   0.135  -0.441  1.00  0.00     0.066 A 
HETATM   20  C11 UNL     1       5.528   1.201  -0.530  1.00  0.00     0.088 A 
ATOM     21  H2  UNL     1       5.842  -0.007  -2.160  1.00  0.00     0.165 HD
HETATM   22  C12 UNL     1       4.640   1.601   0.434  1.00  0.00     0.019 A 
HETATM   23  C13 UNL     1       3.368   1.084   0.501  1.00  0.00     0.033 A 
ENDBRANCH   7  13
TORSDOF 1
