REMARK  8 active torsions:
REMARK  status: ('A' for Active; 'I' for Inactive)
REMARK    1  A    between atoms: C2_2  and  C3_3 
REMARK    2  A    between atoms: C3_3  and  C4_4 
REMARK    3  A    between atoms: C4_4  and  S1_5 
REMARK    4  A    between atoms: S1_5  and  C5_8 
REMARK    5  A    between atoms: C5_8  and  C6_9 
REMARK    6  A    between atoms: C6_9  and  C7_10 
REMARK    7  A    between atoms: C7_10  and  O3_11 
REMARK    8  A    between atoms: O3_11  and  C8_12 
ROOT
HETATM    1  C8  UNL     1       2.225  -0.746   0.614  1.00  0.00     0.110 A 
HETATM    2  C9  UNL     1       2.054  -0.816   2.000  1.00  0.00     0.090 A 
HETATM    3 CL1  UNL     1       0.494  -1.140   2.722  1.00  0.00    -0.080 Cl
HETATM    4  C10 UNL     1       3.193  -0.614   2.752  1.00  0.00     0.059 A 
HETATM    5 CL2  UNL     1       2.996  -0.698   4.491  1.00  0.00    -0.082 Cl
HETATM    6  C11 UNL     1       4.411  -0.361   2.208  1.00  0.00     0.042 A 
HETATM    7  C12 UNL     1       4.592  -0.289   0.817  1.00  0.00     0.037 A 
HETATM    8  C13 UNL     1       3.465  -0.489   0.075  1.00  0.00     0.055 A 
HETATM    9  S2  UNL     1       3.944  -0.350  -1.638  1.00  0.00    -0.080 SA
HETATM   10  C14 UNL     1       5.676  -0.019  -1.342  1.00  0.00     0.090 A 
HETATM   11  C15 UNL     1       6.627   0.191  -2.252  1.00  0.00     0.124 C 
HETATM   12 CL3  UNL     1       8.280   0.502  -1.806  1.00  0.00    -0.069 Cl
HETATM   13 CL4  UNL     1       6.230   0.158  -3.958  1.00  0.00    -0.069 Cl
HETATM   14  C16 UNL     1       5.797  -0.034   0.107  1.00  0.00     0.203 A 
HETATM   15  O4  UNL     1       6.952   0.177   0.644  1.00  0.00    -0.286 OA
ENDROOT
BRANCH   1  16
HETATM   16  O3  UNL     1       1.120  -0.941  -0.183  1.00  0.00    -0.348 OA
BRANCH  16  17
HETATM   17  C7  UNL     1       0.356   0.238  -0.522  1.00  0.00     0.176 C 
BRANCH  17  18
HETATM   18  C6  UNL     1      -0.799  -0.143  -1.383  1.00  0.00     0.041 C 
BRANCH  18  19
HETATM   19  C5  UNL     1      -1.653   0.993  -1.821  1.00  0.00     0.142 C 
BRANCH  19  20
HETATM   20  S1  UNL     1      -2.416   1.920  -0.553  1.00  0.00     0.144 S 
HETATM   21  O1  UNL     1      -1.401   2.638   0.272  1.00  0.00    -0.228 OA
HETATM   22  O2  UNL     1      -3.303   2.955  -1.233  1.00  0.00    -0.228 OA
BRANCH  20  23
HETATM   23  C4  UNL     1      -3.470   0.934   0.480  1.00  0.00     0.140 C 
BRANCH  23  24
HETATM   24  C3  UNL     1      -4.580   0.294  -0.324  1.00  0.00     0.014 C 
BRANCH  24  25
HETATM   25  C2  UNL     1      -5.468  -0.541   0.567  1.00  0.00    -0.004 C 
HETATM   26  C1  UNL     1      -4.660  -1.647   1.240  1.00  0.00     0.005 C 
ENDBRANCH  24  25
ENDBRANCH  23  24
ENDBRANCH  20  23
ENDBRANCH  19  20
ENDBRANCH  18  19
ENDBRANCH  17  18
ENDBRANCH  16  17
ENDBRANCH   1  16
TORSDOF 8
