REMARK  18 active torsions:
REMARK  status: ('A' for Active; 'I' for Inactive)
REMARK    1  A    between atoms: N1_1  and  C1_4 
REMARK    2  A    between atoms: C2_7  and  C3_8 
REMARK    3  A    between atoms: C3_8  and  O1_9 
REMARK    4  A    between atoms: C3_8  and  C4_11 
REMARK    5  A    between atoms: C4_11  and  O2_12 
REMARK    6  A    between atoms: C4_11  and  C5_14 
REMARK    7  A    between atoms: C5_14  and  O3_15 
REMARK    8  A    between atoms: C5_14  and  C6_17 
REMARK    9  A    between atoms: C6_17  and  O4_18 
REMARK   10  A    between atoms: C7_20  and  O5_21 
REMARK   11  A    between atoms: C8_23  and  C9_24 
REMARK   12  A    between atoms: N5_30  and  C11_31 
REMARK   13  A    between atoms: C11_31  and  C12_32 
REMARK   14  A    between atoms: C11_31  and  C15_41 
REMARK   15  A    between atoms: C13_35  and  N7_36 
REMARK   16  A    between atoms: N7_36  and  O6_38 
REMARK   17  A    between atoms: C16_44  and  O7_45 
REMARK   18  A    between atoms: C17_49  and  O8_50 
ROOT
HETATM    1  C9  UNL     1      -0.078   1.241   0.896  1.00  0.00     0.168 A 
HETATM    2  N3  UNL     1      -0.974   2.020   1.559  1.00  0.00    -0.168 N 
ATOM      3  H3  UNL     1      -0.736   2.708   2.273  1.00  0.00     0.186 HD
HETATM    4  C10 UNL     1      -2.214   1.749   1.135  1.00  0.00     0.738 A 
HETATM    5  N4  UNL     1      -3.544   1.679   0.898  1.00  0.00    -0.109 N 
ATOM      6  H4  UNL     1      -4.355   2.165   1.280  1.00  0.00     0.207 HD
HETATM    7  N5  UNL     1      -3.392   0.745  -0.013  1.00  0.00    -0.167 N 
HETATM    8  N10 UNL     1      -2.086   0.805   0.212  1.00  0.00     0.002 N 
HETATM    9  N11 UNL     1      -0.810   0.506   0.075  1.00  0.00    -0.245 N 
ATOM     10  H11 UNL     1      -0.440  -0.191  -0.571  1.00  0.00     0.191 HD
ENDROOT
BRANCH   1  11
HETATM   11  C8  UNL     1       1.371   1.257   1.066  1.00  0.00     0.130 A 
HETATM   12  C7  UNL     1       2.210   0.433   0.359  1.00  0.00     0.122 A 
HETATM   13  C2  UNL     1       3.607   0.513   0.580  1.00  0.00     0.093 A 
HETATM   14  N2  UNL     1       4.029   1.402   1.479  1.00  0.00    -0.190 N 
HETATM   15  C1  UNL     1       3.205   2.213   2.175  1.00  0.00     0.676 A 
ATOM     16  H2  UNL     1       5.032   1.473   1.651  1.00  0.00     0.184 HD
HETATM   17  N12 UNL     1       1.881   2.135   1.965  1.00  0.00    -0.185 N 
ATOM     18  H12 UNL     1       1.251   2.744   2.488  1.00  0.00     0.184 HD
BRANCH  12  19
HETATM   19  O5  UNL     1       1.819  -0.480  -0.561  1.00  0.00    -0.356 OA
ATOM     20  H5  UNL     1       0.882  -0.534  -0.709  1.00  0.00     0.218 HD
ENDBRANCH  12  19
BRANCH  13  21
HETATM   21  C3  UNL     1       4.525  -0.383  -0.173  1.00  0.00     0.202 C 
BRANCH  21  22
HETATM   22  O1  UNL     1       4.284  -0.259  -1.521  1.00  0.00    -0.387 OA
ATOM     23  H1  UNL     1       4.870  -0.831  -2.002  1.00  0.00     0.210 HD
ENDBRANCH  21  22
BRANCH  21  24
HETATM   24  C4  UNL     1       5.942   0.034   0.116  1.00  0.00     0.183 C 
BRANCH  24  25
HETATM   25  O2  UNL     1       6.082   1.352  -0.289  1.00  0.00    -0.390 OA
ATOM     26  H2  UNL     1       6.976   1.615  -0.107  1.00  0.00     0.210 HD
ENDBRANCH  24  25
BRANCH  24  27
HETATM   27  C5  UNL     1       6.947  -0.796  -0.644  1.00  0.00     0.173 C 
BRANCH  27  28
HETATM   28  O3  UNL     1       8.213  -0.294  -0.325  1.00  0.00    -0.391 OA
ATOM     29  H3  UNL     1       8.846  -0.817  -0.804  1.00  0.00     0.210 HD
ENDBRANCH  27  28
BRANCH  27  30
HETATM   30  C6  UNL     1       6.888  -2.254  -0.218  1.00  0.00     0.198 C 
BRANCH  30  31
HETATM   31  O4  UNL     1       7.855  -2.998  -0.877  1.00  0.00    -0.398 OA
ATOM     32  H4  UNL     1       7.818  -3.909  -0.611  1.00  0.00     0.209 HD
ENDBRANCH  30  31
ENDBRANCH  27  30
ENDBRANCH  24  27
ENDBRANCH  21  24
ENDBRANCH  13  21
BRANCH  15  33
HETATM   33  N1  UNL     1       3.701   3.047   3.024  1.00  0.00    -0.234 N 
ATOM     34  H12 UNL     1       4.707   3.106   3.184  1.00  0.00     0.174 HD
ATOM     35  H11 UNL     1       3.078   3.660   3.550  1.00  0.00     0.174 HD
ENDBRANCH  15  33
ENDBRANCH   1  11
BRANCH   7  36
HETATM   36  C11 UNL     1      -4.237  -0.012  -0.889  1.00  0.00     0.229 C 
BRANCH  36  37
HETATM   37  C12 UNL     1      -4.475  -1.346  -0.260  1.00  0.00     0.020 A 
HETATM   38  N6  UNL     1      -5.418  -2.089   0.092  1.00  0.00    -0.371 N 
HETATM   39  C13 UNL     1      -4.674  -3.159   0.596  1.00  0.00     0.208 A 
ATOM     40  H6  UNL     1      -6.427  -1.954   0.030  1.00  0.00     0.161 HD
HETATM   41  C14 UNL     1      -3.496  -2.350   0.216  1.00  0.00     0.103 A 
BRANCH  39  42
HETATM   42  N7  UNL     1      -4.869  -4.354  -0.174  1.00  0.00    -0.281 N 
ATOM     43  H7  UNL     1      -4.493  -5.240   0.163  1.00  0.00     0.189 HD
BRANCH  42  44
HETATM   44  O6  UNL     1      -5.470  -4.319  -1.210  1.00  0.00    -0.292 OA
ATOM     45  H6  UNL     1      -5.599  -5.110  -1.720  1.00  0.00     0.244 HD
ENDBRANCH  42  44
ENDBRANCH  39  42
ENDBRANCH  36  37
BRANCH  36  46
HETATM   46  C15 UNL     1      -5.499   0.657  -1.216  1.00  0.00     0.096 A 
HETATM   47  N8  UNL     1      -5.840   1.162  -2.414  1.00  0.00    -0.320 N 
HETATM   48  C16 UNL     1      -7.063   1.706  -2.376  1.00  0.00     0.223 A 
ATOM     49  H8  UNL     1      -5.246   1.134  -3.243  1.00  0.00     0.169 HD
HETATM   50  N9  UNL     1      -7.522   1.549  -1.128  1.00  0.00    -0.301 N 
HETATM   51  C17 UNL     1      -6.591   0.917  -0.407  1.00  0.00     0.169 A 
ATOM     52  H9  UNL     1      -8.431   1.860  -0.785  1.00  0.00     0.171 HD
BRANCH  48  53
HETATM   53  O7  UNL     1      -7.737   2.326  -3.454  1.00  0.00    -0.332 OA
ATOM     54  H7  UNL     1      -8.605   2.712  -3.427  1.00  0.00     0.221 HD
ENDBRANCH  48  53
BRANCH  51  55
HETATM   55  O8  UNL     1      -6.671   0.556   0.952  1.00  0.00    -0.344 OA
ATOM     56  H8  UNL     1      -7.421   0.735   1.507  1.00  0.00     0.219 HD
ENDBRANCH  51  55
ENDBRANCH  36  46
ENDBRANCH   7  36
TORSDOF 18
