REMARK  13 active torsions:
REMARK  status: ('A' for Active; 'I' for Inactive)
REMARK    1  A    between atoms: C2_2  and  O1_3 
REMARK    2  A    between atoms: O1_3  and  C3_4 
REMARK    3  A    between atoms: C3_4  and  C4_6 
REMARK    4  A    between atoms: C5_7  and  C6_8 
REMARK    5  A    between atoms: C7_12  and  C8_13 
REMARK    6  A    between atoms: C8_13  and  O6_14 
REMARK    7  A    between atoms: C8_13  and  O7_16 
REMARK    8  A    between atoms: N1_20  and  C11_22 
REMARK    9  A    between atoms: C11_22  and  O8_23 
REMARK   10  A    between atoms: C11_22  and  N2_25 
REMARK   11  A    between atoms: N2_25  and  C12_28 
REMARK   12  A    between atoms: N3_29  and  C13_30 
REMARK   13  A    between atoms: C19_43  and  N7_44 
ROOT
HETATM    1  N2  UNL     1       1.434  -0.447   0.007  1.00  0.00     0.011 N 
ATOM      2  H21 UNL     1       1.828  -1.368  -0.186  1.00  0.00     0.287 HD
ATOM      3  H22 UNL     1       1.553  -0.413   1.020  1.00  0.00     0.287 HD
ENDROOT
BRANCH   1   4
HETATM    4  C11 UNL     1       0.008  -0.421  -0.339  1.00  0.00     0.431 C 
BRANCH   4   5
HETATM    5  N1  UNL     1      -0.739  -1.346   0.384  1.00  0.00    -0.341 N 
HETATM    6  C10 UNL     1      -1.894  -1.582   0.769  1.00  0.00     0.053 A 
HETATM    7  C4  UNL     1      -3.024  -0.819   0.536  1.00  0.00     0.106 A 
HETATM    8  C9  UNL     1      -2.138  -2.762   1.524  1.00  0.00     0.068 A 
HETATM    9  C5  UNL     1      -4.275  -1.227   1.027  1.00  0.00     0.170 A 
HETATM   10  O5  UNL     1      -4.384  -2.351   1.722  1.00  0.00    -0.302 OA
HETATM   11  C7  UNL     1      -3.364  -3.112   1.976  1.00  0.00     0.110 A 
ATOM     12  H1  UNL     1      -0.121  -2.089   0.711  1.00  0.00     0.164 HD
BRANCH   7  13
HETATM   13  C3  UNL     1      -3.013   0.430  -0.211  1.00  0.00     0.298 C 
HETATM   14  O2  UNL     1      -3.183   0.375  -1.455  1.00  0.00    -0.259 OA
BRANCH  13  15
HETATM   15  O1  UNL     1      -2.834   1.667   0.346  1.00  0.00    -0.318 OA
BRANCH  15  16
HETATM   16  C2  UNL     1      -2.818   2.905  -0.292  1.00  0.00     0.174 C 
HETATM   17  C1  UNL     1      -1.782   3.092  -1.347  1.00  0.00     0.034 C 
ENDBRANCH  15  16
ENDBRANCH  13  15
ENDBRANCH   7  13
BRANCH   9  18
HETATM   18  C6  UNL     1      -5.488  -0.479   0.818  1.00  0.00     0.235 C 
HETATM   19  O3  UNL     1      -5.507   0.586   0.180  1.00  0.00    -0.642 OA
HETATM   20  O4  UNL     1      -6.690  -0.929   1.328  1.00  0.00    -0.642 OA
ENDBRANCH   9  18
BRANCH  11  21
HETATM   21  C8  UNL     1      -3.588  -4.363   2.769  1.00  0.00     0.312 C 
BRANCH  21  22
HETATM   22  O6  UNL     1      -2.898  -5.411   2.160  1.00  0.00    -0.365 OA
ATOM     23  H6  UNL     1      -3.040  -6.204   2.663  1.00  0.00     0.213 HD
ENDBRANCH  21  22
BRANCH  21  24
HETATM   24  O7  UNL     1      -4.952  -4.642   2.816  1.00  0.00    -0.365 OA
ATOM     25  H7  UNL     1      -5.094  -5.435   3.319  1.00  0.00     0.213 HD
ENDBRANCH  21  24
ENDBRANCH  11  21
ENDBRANCH   4   5
BRANCH   4  26
HETATM   26  O8  UNL     1      -0.059  -0.826  -1.709  1.00  0.00    -0.354 OA
ATOM     27  H8  UNL     1       0.451  -0.195  -2.203  1.00  0.00     0.214 HD
ENDBRANCH   4  26
ENDBRANCH   1   4
BRANCH   1  28
HETATM   28  C12 UNL     1       2.216   0.563  -0.614  1.00  0.00     0.453 C 
HETATM   29  N3  UNL     1       3.612   0.395  -0.156  1.00  0.00    -0.219 N 
HETATM   30  N4  UNL     1       4.402  -0.638  -0.670  1.00  0.00    -0.001 NA
HETATM   31  N5  UNL     1       3.909  -1.143  -1.877  1.00  0.00    -0.114 N 
HETATM   32  C18 UNL     1       3.086  -0.289  -2.660  1.00  0.00     0.730 A 
ATOM     33  H5  UNL     1       4.132  -2.090  -2.184  1.00  0.00     0.203 HD
HETATM   34  N6  UNL     1       2.966  -0.132  -3.994  1.00  0.00    -0.019 N 
HETATM   35  N9  UNL     1       2.225   0.578  -2.045  1.00  0.00    -0.056 N 
HETATM   36  C19 UNL     1       2.034   0.829  -4.197  1.00  0.00     0.705 A 
ATOM     37  H6  UNL     1       3.480  -0.641  -4.714  1.00  0.00     0.203 HD
HETATM   38  N8  UNL     1       1.609   1.234  -2.992  1.00  0.00    -0.112 N 
ATOM     39  H8  UNL     1       0.903   1.954  -2.836  1.00  0.00     0.206 HD
BRANCH  29  40
HETATM   40  C13 UNL     1       4.183   1.253   0.795  1.00  0.00     0.128 A 
HETATM   41  C14 UNL     1       4.674   0.823   2.010  1.00  0.00     0.039 A 
HETATM   42  C15 UNL     1       5.229   1.704   2.919  1.00  0.00     0.027 A 
HETATM   43  C16 UNL     1       5.271   3.030   2.559  1.00  0.00     0.146 A 
HETATM   44  O9  UNL     1       4.802   3.450   1.395  1.00  0.00    -0.286 OA
HETATM   45  C17 UNL     1       4.269   2.598   0.525  1.00  0.00     0.315 A 
HETATM   46  O10 UNL     1       3.856   3.114  -0.549  1.00  0.00    -0.257 OA
ENDBRANCH  29  40
BRANCH  36  47
HETATM   47  N7  UNL     1       1.680   1.221  -5.372  1.00  0.00    -0.233 N 
ATOM     48  H72 UNL     1       2.003   0.913  -6.289  1.00  0.00     0.174 HD
ATOM     49  H71 UNL     1       0.978   1.945  -5.525  1.00  0.00     0.174 HD
ENDBRANCH  36  47
ENDBRANCH   1  28
TORSDOF 13
