REMARK  9 active torsions:
REMARK  status: ('A' for Active; 'I' for Inactive)
REMARK    1  A    between atoms: C3_3  and  O1_4 
REMARK    2  A    between atoms: O1_4  and  C4_5 
REMARK    3  A    between atoms: C6_7  and  C7_8 
REMARK    4  A    between atoms: C11_12  and  O2_14 
REMARK    5  A    between atoms: C13_16  and  C14_17 
REMARK    6  A    between atoms: C14_17  and  C15_18 
REMARK    7  A    between atoms: C17_20  and  O3_21 
REMARK    8  A    between atoms: C18_23  and  O4_24 
REMARK    9  A    between atoms: C19_26  and  O5_27 
ROOT
HETATM    1  C7  UNL     1       0.681  -1.083   0.330  1.00  0.00     0.018 C 
HETATM    2  C8  UNL     1       0.700  -2.048   1.520  1.00  0.00     0.009 C 
HETATM    3  C9  UNL     1       0.041  -3.331   1.178  1.00  0.00     0.004 C 
HETATM    4  C10 UNL     1       0.278  -3.780  -0.226  1.00  0.00     0.038 C 
HETATM    5  C11 UNL     1      -0.203  -2.796  -1.250  1.00  0.00     0.059 C 
HETATM    6  C12 UNL     1      -1.595  -3.255  -1.705  1.00  0.00     0.046 C 
HETATM    7  C13 UNL     1      -0.444  -1.444  -0.555  1.00  0.00     0.031 C 
ENDROOT
BRANCH   7   8
HETATM    8  C14 UNL     1      -1.041  -0.436  -1.453  1.00  0.00     0.047 C 
BRANCH   8   9
HETATM    9  C15 UNL     1      -1.649   0.736  -0.797  1.00  0.00    -0.052 A 
HETATM   10  C16 UNL     1      -0.942   1.891  -0.648  1.00  0.00     0.046 A 
HETATM   11  C17 UNL     1      -1.550   2.989  -0.004  1.00  0.00     0.102 A 
HETATM   12  C18 UNL     1      -2.826   2.940   0.478  1.00  0.00     0.132 A 
HETATM   13  C19 UNL     1      -3.548   1.746   0.320  1.00  0.00     0.104 A 
HETATM   14  C21 UNL     1      -2.962   0.679  -0.304  1.00  0.00     0.047 A 
BRANCH  11  15
HETATM   15  O3  UNL     1      -0.808   4.150   0.134  1.00  0.00    -0.358 OA
ATOM     16  H3  UNL     1      -1.217   4.889   0.568  1.00  0.00     0.217 HD
ENDBRANCH  11  15
BRANCH  12  17
HETATM   17  O4  UNL     1      -3.467   3.989   1.117  1.00  0.00    -0.356 OA
ATOM     18  H4  UNL     1      -4.355   3.955   1.452  1.00  0.00     0.218 HD
ENDBRANCH  12  17
BRANCH  13  19
HETATM   19  O5  UNL     1      -4.856   1.702   0.816  1.00  0.00    -0.353 OA
HETATM   20  C20 UNL     1      -5.652   0.539   0.699  1.00  0.00     0.210 C 
ENDBRANCH  13  19
ENDBRANCH   8   9
ENDBRANCH   7   8
BRANCH   1  21
HETATM   21  C6  UNL     1       2.026  -1.165  -0.272  1.00  0.00     0.010 C 
HETATM   22  C4  UNL     1       2.815  -0.122  -0.284  1.00  0.00     0.045 C 
HETATM   23  C5  UNL     1       4.193  -0.187  -0.899  1.00  0.00     0.076 C 
BRANCH  22  24
HETATM   24  O1  UNL     1       2.427   1.085   0.263  1.00  0.00    -0.328 OA
BRANCH  24  25
HETATM   25  C3  UNL     1       3.305   1.821   1.056  1.00  0.00     0.137 C 
HETATM   26  C2  UNL     1       3.691   3.013   0.691  1.00  0.00    -0.006 C 
HETATM   27  C1  UNL     1       4.620   3.815   1.511  1.00  0.00     0.038 C 
ENDBRANCH  24  25
ENDBRANCH  22  24
ENDBRANCH   1  21
BRANCH   5  28
HETATM   28  O2  UNL     1       0.662  -2.695  -2.312  1.00  0.00    -0.390 OA
ATOM     29  H2  UNL     1       0.357  -2.072  -2.961  1.00  0.00     0.210 HD
ENDBRANCH   5  28
TORSDOF 9
