REMARK  5 active torsions:
REMARK  status: ('A' for Active; 'I' for Inactive)
REMARK    1  A    between atoms: C4_4  and  S1_5 
REMARK    2  A    between atoms: S1_5  and  C5_6 
REMARK    3  A    between atoms: C5_6  and  C6_7 
REMARK    4  A    between atoms: C6_7  and  C7_8 
REMARK    5  A    between atoms: C7_8  and  C8_9 
ROOT
HETATM    1  C8  UNL     1       1.234  -0.922   0.022  1.00  0.00    -0.057 A 
HETATM    2  C9  UNL     1       1.176   0.064  -0.941  1.00  0.00     0.008 A 
HETATM    3  C10 UNL     1       2.270   0.860  -1.209  1.00  0.00     0.013 A 
HETATM    4  C11 UNL     1       3.448   0.704  -0.535  1.00  0.00    -0.026 A 
HETATM    5  C12 UNL     1       4.526   1.513  -0.822  1.00  0.00     0.012 A 
HETATM    6  C13 UNL     1       5.719   1.375  -0.157  1.00  0.00     0.001 A 
HETATM    7  C14 UNL     1       5.793   0.387   0.814  1.00  0.00     0.001 A 
HETATM    8  C15 UNL     1       4.720  -0.422   1.102  1.00  0.00     0.012 A 
HETATM    9  C16 UNL     1       3.519  -0.286   0.437  1.00  0.00    -0.025 A 
HETATM   10  C17 UNL     1       2.418  -1.089   0.708  1.00  0.00     0.019 A 
ENDROOT
BRANCH   1  11
HETATM   11  C7  UNL     1       0.032  -1.779   0.304  1.00  0.00     0.039 C 
BRANCH  11  12
HETATM   12  C6  UNL     1      -0.737  -1.052   1.395  1.00  0.00     0.015 C 
BRANCH  12  13
HETATM   13  C5  UNL     1      -1.983  -1.792   1.786  1.00  0.00     0.080 C 
BRANCH  13  14
HETATM   14  S1  UNL     1      -3.153  -2.004   0.429  1.00  0.00    -0.130 SA
BRANCH  14  15
HETATM   15  C4  UNL     1      -3.901  -0.435  -0.006  1.00  0.00     0.000 A 
HETATM   16  C3  UNL     1      -4.740  -0.341  -1.114  1.00  0.00     0.018 A 
HETATM   17  C2  UNL     1      -5.341   0.819  -1.465  1.00  0.00     0.001 A 
HETATM   18  C1  UNL     1      -5.162   1.975  -0.752  1.00  0.00     0.000 A 
HETATM   19  C19 UNL     1      -4.339   1.915   0.350  1.00  0.00     0.001 A 
HETATM   20  C18 UNL     1      -3.715   0.720   0.718  1.00  0.00     0.018 A 
ENDBRANCH  14  15
ENDBRANCH  13  14
ENDBRANCH  12  13
ENDBRANCH  11  12
ENDBRANCH   1  11
TORSDOF 5
