REMARK  5 active torsions:
REMARK  status: ('A' for Active; 'I' for Inactive)
REMARK    1  A    between atoms: N1_2  and  C3_4 
REMARK    2  A    between atoms: C5_10  and  N4_11 
REMARK    3  A    between atoms: C6_14  and  N5_15 
REMARK    4  A    between atoms: N5_15  and  N6_16 
REMARK    5  A    between atoms: N5_15  and  O1_19 
ROOT
HETATM    1  C3  UNL     1       0.455   0.715  -0.072  1.00  0.00     0.133 A 
HETATM    2  N2  UNL     1       0.528   2.081  -0.032  1.00  0.00    -0.337 N 
ATOM      3  H2  UNL     1       1.440   2.525   0.073  1.00  0.00     0.168 HD
HETATM    4  C4  UNL     1      -0.561   2.850  -0.127  1.00  0.00     0.183 A 
HETATM    5  N3  UNL     1      -1.756   2.261  -0.267  1.00  0.00    -0.337 N 
ATOM      6  H3  UNL     1      -2.586   2.849  -0.340  1.00  0.00     0.168 HD
HETATM    7  C5  UNL     1      -1.907   0.894  -0.316  1.00  0.00     0.129 A 
HETATM    8  C6  UNL     1      -0.792   0.110  -0.219  1.00  0.00     0.146 A 
ENDROOT
BRANCH   8   9
HETATM    9  N5  UNL     1      -0.850  -1.310  -0.293  1.00  0.00    -0.070 NA
BRANCH   9  10
HETATM   10  N6  UNL     1      -1.547  -1.790   0.814  1.00  0.00    -0.336 NA
ATOM     11  H62 UNL     1      -1.054  -1.488   1.654  1.00  0.00     0.173 HD
ATOM     12  H61 UNL     1      -1.589  -2.808   0.761  1.00  0.00     0.173 HD
ENDBRANCH   9  10
BRANCH   9  13
HETATM   13  O1  UNL     1      -1.516  -1.717  -1.427  1.00  0.00    -0.289 OA
ATOM     14  H1  UNL     1      -1.555  -2.665  -1.476  1.00  0.00     0.239 HD
ENDBRANCH   9  13
ENDBRANCH   8   9
BRANCH   1  15
HETATM   15  N1  UNL     1       1.638  -0.060   0.068  1.00  0.00    -0.374 N 
HETATM   16  C1  UNL     1       1.862  -0.789   1.299  1.00  0.00     0.150 C 
HETATM   17  C2  UNL     1       2.629  -0.148  -0.978  1.00  0.00     0.150 C 
ENDBRANCH   1  15
BRANCH   7  18
HETATM   18  N4  UNL     1      -3.069   0.393  -0.441  1.00  0.00    -0.384 N 
ATOM     19  H42 UNL     1      -3.901   0.978  -0.513  1.00  0.00     0.157 HD
ATOM     20  H41 UNL     1      -3.181  -0.620  -0.477  1.00  0.00     0.157 HD
ENDBRANCH   7  18
TORSDOF 5
