REMARK  1 active torsions:
REMARK  status: ('A' for Active; 'I' for Inactive)
REMARK    1  A    between atoms: N1_2  and  C2_4 
ROOT
HETATM    1  C2  UNL     1      -0.094  -0.172  -0.922  1.00  0.00     0.268 C 
HETATM    2  F1  UNL     1       0.361  -0.102  -2.243  1.00  0.00    -0.200 F 
HETATM    3  S1  UNL     1      -1.440   1.072  -0.820  1.00  0.00    -0.023 SA
HETATM    4  C3  UNL     1      -0.420   2.257   0.068  1.00  0.00     0.143 C 
HETATM    5  N2  UNL     1      -0.637   3.494   0.340  1.00  0.00    -0.380 N 
ATOM      6  H21 UNL     1      -0.058   4.166   0.844  1.00  0.00     0.158 HD
ATOM      7  H22 UNL     1      -1.473   4.013   0.072  1.00  0.00     0.158 HD
HETATM    8  N3  UNL     1       0.717   1.552   0.432  1.00  0.00    -0.339 N 
ATOM      9  H3  UNL     1       1.398   1.973   1.064  1.00  0.00     0.167 HD
HETATM   10  C4  UNL     1       0.903   0.418  -0.008  1.00  0.00     0.056 C 
HETATM   11  C5  UNL     1       2.111  -0.416   0.351  1.00  0.00     0.070 C 
ENDROOT
BRANCH   1  12
HETATM   12  N1  UNL     1      -0.562  -1.448  -0.577  1.00  0.00    -0.378 N 
HETATM   13  C1  UNL     1      -1.296  -1.603   0.626  1.00  0.00     0.144 C 
ATOM     14  H1  UNL     1      -0.378  -2.250  -1.180  1.00  0.00     0.157 HD
ENDBRANCH   1  12
TORSDOF 1
