REMARK  1 active torsions:
REMARK  status: ('A' for Active; 'I' for Inactive)
REMARK    1  A    between atoms: C3_3  and  C4_4 
ROOT
HETATM    1  C1  UNL     1      -1.606   2.068   0.735  1.00  0.00     0.068 C 
HETATM    2  C2  UNL     1      -0.751   0.909   0.328  1.00  0.00     0.018 A 
HETATM    3  C3  UNL     1      -1.266  -0.264   0.080  1.00  0.00     0.068 A 
HETATM    4  C5  UNL     1      -0.370  -1.378  -0.319  1.00  0.00     0.127 A 
HETATM    5  N1  UNL     1      -0.948  -2.649  -0.586  1.00  0.00    -0.082 NA
HETATM    6  N2  UNL     1       0.888  -1.178  -0.415  1.00  0.00    -0.352 N 
ATOM      7  H2  UNL     1       1.462  -1.974  -0.693  1.00  0.00     0.163 HD
HETATM    8  C6  UNL     1       1.567   0.057  -0.169  1.00  0.00     0.097 A 
HETATM    9  C7  UNL     1       2.214   0.482  -1.479  1.00  0.00     0.062 C 
HETATM   10  C8  UNL     1       2.614  -0.197   0.896  1.00  0.00     0.062 C 
HETATM   11  N3  UNL     1       0.672   1.121   0.216  1.00  0.00    -0.367 N 
ATOM     12  H3  UNL     1       1.054   2.046   0.414  1.00  0.00     0.162 HD
ENDROOT
BRANCH   3  13
HETATM   13  C4  UNL     1      -2.697  -0.574   0.167  1.00  0.00     0.392 C 
HETATM   14  F1  UNL     1      -3.539   0.421   0.527  1.00  0.00    -0.209 F 
HETATM   15  F2  UNL     1      -2.888  -1.608   1.098  1.00  0.00    -0.209 F 
ENDBRANCH   3  13
TORSDOF 1
