REMARK  9 active torsions:
REMARK  status: ('A' for Active; 'I' for Inactive)
REMARK    1  A    between atoms: C6_8  and  O1_9 
REMARK    2  A    between atoms: C7_11  and  C8_12 
REMARK    3  A    between atoms: C12_16  and  C13_17 
REMARK    4  A    between atoms: C13_17  and  C15_19 
REMARK    5  A    between atoms: C15_19  and  O2_20 
REMARK    6  A    between atoms: C15_19  and  C16_22 
REMARK    7  A    between atoms: C16_22  and  C17_23 
REMARK    8  A    between atoms: C16_22  and  C19_25 
REMARK    9  A    between atoms: C19_25  and  C21_27 
ROOT
HETATM    1  C1  UNL     1       1.861  -3.368  -1.189  1.00  0.00     0.018 C 
HETATM    2  C2  UNL     1       2.618  -2.686  -0.579  1.00  0.00    -0.075 C 
HETATM    3  C3  UNL     1       3.543  -1.882   0.153  1.00  0.00     0.050 A 
HETATM    4  C4  UNL     1       4.777  -2.346   0.553  1.00  0.00     0.026 A 
HETATM    5  C5  UNL     1       5.325  -3.712   0.298  1.00  0.00     0.070 C 
HETATM    6  N1  UNL     1       5.435  -1.382   1.217  1.00  0.00    -0.339 N 
ATOM      7  H1  UNL     1       6.369  -1.461   1.620  1.00  0.00     0.168 HD
HETATM    8  C6  UNL     1       4.646  -0.296   1.257  1.00  0.00     0.148 A 
HETATM    9  C7  UNL     1       3.445  -0.577   0.594  1.00  0.00     0.018 A 
ENDROOT
BRANCH   9  10
HETATM   10  C8  UNL     1       2.298   0.350   0.477  1.00  0.00     0.034 C 
HETATM   11  C9  UNL     1       2.916   1.762   0.600  1.00  0.00     0.079 C 
HETATM   12  C10 UNL     1       2.240   2.669  -0.365  1.00  0.00     0.187 C 
HETATM   13  C11 UNL     1       1.481   1.812  -1.304  1.00  0.00     0.075 C 
HETATM   14  O3  UNL     1       3.109   3.550  -1.084  1.00  0.00    -0.259 OA
HETATM   15  O5  UNL     1       1.653   3.845   0.106  1.00  0.00    -0.259 OA
HETATM   16  C12 UNL     1       1.466   0.446  -0.673  1.00  0.00     0.009 C 
HETATM   17  C24 UNL     1       2.079   4.483  -1.061  1.00  0.00     0.412 C 
HETATM   18  O4  UNL     1       1.730   5.453  -1.791  1.00  0.00    -0.229 OA
BRANCH  16  19
HETATM   19  C13 UNL     1       0.006   0.036  -0.634  1.00  0.00     0.043 C 
HETATM   20  C14 UNL     1      -0.477   0.336  -2.059  1.00  0.00     0.017 C 
BRANCH  19  21
HETATM   21  C15 UNL     1      -0.886   0.671   0.329  1.00  0.00     0.050 C 
BRANCH  21  22
HETATM   22  O2  UNL     1      -1.101   2.019   0.191  1.00  0.00    -0.364 OA
ATOM     23  H2  UNL     1      -1.682   2.433   0.818  1.00  0.00     0.217 HD
ENDBRANCH  21  22
BRANCH  21  24
HETATM   24  C16 UNL     1      -2.061  -0.008   0.914  1.00  0.00    -0.047 C 
BRANCH  24  25
HETATM   25  C17 UNL     1      -2.770   0.906   1.920  1.00  0.00     0.033 C 
HETATM   26  C18 UNL     1      -3.326   2.176   1.507  1.00  0.00     0.010 C 
ENDBRANCH  24  25
BRANCH  24  27
HETATM   27  C19 UNL     1      -2.937  -0.942   0.231  1.00  0.00     0.016 C 
HETATM   28  C20 UNL     1      -3.981  -1.455   1.273  1.00  0.00     0.015 C 
BRANCH  27  29
HETATM   29  C21 UNL     1      -3.736  -0.725  -0.966  1.00  0.00    -0.015 C 
HETATM   30  C22 UNL     1      -4.480  -2.087  -1.213  1.00  0.00     0.010 C 
HETATM   31  C23 UNL     1      -4.912   0.213  -0.916  1.00  0.00     0.010 C 
ENDBRANCH  27  29
ENDBRANCH  24  27
ENDBRANCH  21  24
ENDBRANCH  19  21
ENDBRANCH  16  19
ENDBRANCH   9  10
BRANCH   8  32
HETATM   32  O1  UNL     1       5.073   0.871   1.899  1.00  0.00    -0.346 OA
ATOM     33  H1  UNL     1       4.515   1.639   1.927  1.00  0.00     0.219 HD
ENDBRANCH   8  32
TORSDOF 9
