REMARK  7 active torsions:
REMARK  status: ('A' for Active; 'I' for Inactive)
REMARK    1  A    between atoms: C2_2  and  C3_3 
REMARK    2  A    between atoms: C3_3  and  C4_4 
REMARK       I    between atoms: C4_4  and  N1_6 
REMARK    3  A    between atoms: N1_6  and  C5_8 
REMARK    4  A    between atoms: C7_10  and  N2_11 
REMARK    5  A    between atoms: C13_17  and  N3_18 
REMARK       I    between atoms: N3_18  and  C14_20 
REMARK       I    between atoms: C14_20  and  N4_22 
REMARK    6  A    between atoms: N4_22  and  C15_24 
REMARK    7  A    between atoms: C22_31  and  O3_32 
ROOT
HETATM    1  C5  UNL     1      -3.014   1.028   0.585  1.00  0.00     0.070 A 
HETATM    2  C6  UNL     1      -2.586  -0.126  -0.025  1.00  0.00     0.064 A 
HETATM    3  C7  UNL     1      -1.265  -0.433  -0.263  1.00  0.00     0.059 A 
HETATM    4  C13 UNL     1      -0.303   0.508   0.149  1.00  0.00     0.065 A 
HETATM    5  C21 UNL     1      -0.735   1.666   0.761  1.00  0.00     0.071 A 
HETATM    6  C22 UNL     1      -2.054   1.974   1.000  1.00  0.00     0.097 A 
ENDROOT
BRANCH   4   7
HETATM    7  N3  UNL     1       1.033   0.206  -0.122  1.00  0.00    -0.307 N 
HETATM    8  C14 UNL     1       2.173   0.922   0.261  1.00  0.00     0.321 C 
HETATM    9  O2  UNL     1       2.114   1.964   0.925  1.00  0.00    -0.247 OA
HETATM   10  N4  UNL     1       3.491   0.425  -0.136  1.00  0.00    -0.338 N 
ATOM     11  H4  UNL     1       3.565  -0.432  -0.684  1.00  0.00     0.164 HD
ATOM     12  H3  UNL     1       1.199  -0.641  -0.666  1.00  0.00     0.170 HD
BRANCH  10  13
HETATM   13  C15 UNL     1       4.697   1.146   0.247  1.00  0.00     0.086 C 
HETATM   14  C16 UNL     1       5.506   0.320   1.214  1.00  0.00     0.025 C 
HETATM   15  C17 UNL     1       6.596  -0.481   0.602  1.00  0.00     0.002 C 
HETATM   16  C18 UNL     1       7.430   0.283  -0.397  1.00  0.00     0.000 C 
HETATM   17  C19 UNL     1       6.918   1.685  -0.613  1.00  0.00     0.002 C 
HETATM   18  C20 UNL     1       5.456   1.604  -0.953  1.00  0.00     0.025 C 
ENDBRANCH  10  13
ENDBRANCH   4   7
BRANCH   3  19
HETATM   19  N2  UNL     1      -0.877  -1.656  -0.868  1.00  0.00    -0.379 N 
HETATM   20  C8  UNL     1      -0.194  -2.729  -0.129  1.00  0.00     0.123 C 
HETATM   21  C9  UNL     1      -1.179  -3.902  -0.120  1.00  0.00     0.020 C 
HETATM   22  C10 UNL     1      -1.399  -4.346  -1.531  1.00  0.00     0.003 C 
HETATM   23  C11 UNL     1      -0.850  -3.397  -2.549  1.00  0.00     0.020 C 
HETATM   24  C12 UNL     1      -1.121  -1.956  -2.278  1.00  0.00     0.123 C 
ENDBRANCH   3  19
BRANCH   6  25
HETATM   25  O3  UNL     1      -2.439   3.150   1.620  1.00  0.00    -0.354 OA
HETATM   26  C23 UNL     1      -1.507   4.126   2.045  1.00  0.00     0.210 C 
ENDBRANCH   6  25
BRANCH   1  27
HETATM   27  N1  UNL     1      -4.353   1.365   0.839  1.00  0.00    -0.324 N 
HETATM   28  C4  UNL     1      -5.489   0.628   0.520  1.00  0.00     0.225 C 
HETATM   29  O1  UNL     1      -5.459  -0.472  -0.059  1.00  0.00    -0.273 OA
ATOM     30  H1  UNL     1      -4.511   2.254   1.313  1.00  0.00     0.169 HD
BRANCH  28  31
HETATM   31  C3  UNL     1      -6.871   1.125   0.862  1.00  0.00     0.129 C 
BRANCH  31  32
HETATM   32  C2  UNL     1      -7.929   0.202   0.430  1.00  0.00    -0.028 C 
HETATM   33  C1  UNL     1      -8.867   0.584  -0.428  1.00  0.00     0.007 C 
ENDBRANCH  31  32
ENDBRANCH  28  31
ENDBRANCH   1  27
TORSDOF 7
