REMARK  17 active torsions:
REMARK  status: ('A' for Active; 'I' for Inactive)
REMARK    1  A    between atoms: C2_2  and  C3_3 
REMARK    2  A    between atoms: C3_3  and  C4_4 
REMARK    3  A    between atoms: C4_4  and  C5_5 
REMARK    4  A    between atoms: C5_5  and  O1_6 
REMARK    5  A    between atoms: O1_6  and  C6_7 
REMARK       I    between atoms: C6_7  and  N1_9 
REMARK    6  A    between atoms: N2_12  and  C9_13 
REMARK    7  A    between atoms: C9_13  and  O3_14 
REMARK    8  A    between atoms: C9_13  and  C10_16 
REMARK    9  A    between atoms: C10_16  and  C11_17 
REMARK   10  A    between atoms: C10_16  and  N3_21 
REMARK   11  A    between atoms: C11_17  and  C12_18 
REMARK   12  A    between atoms: C12_18  and  S1_19 
REMARK       I    between atoms: N3_21  and  C14_23 
REMARK   13  A    between atoms: C14_23  and  C15_25 
REMARK       I    between atoms: N4_30  and  C20_31 
REMARK   14  A    between atoms: C20_31  and  C21_33 
REMARK   15  A    between atoms: C22_34  and  C23_35 
REMARK   16  A    between atoms: C23_35  and  O6_36 
REMARK   17  A    between atoms: N5_38  and  O7_40 
ROOT
HETATM    1  C10 UNL     1      -0.989  -0.621  -0.724  1.00  0.00     0.086 C 
ENDROOT
BRANCH   1   2
HETATM    2  C9  UNL     1       0.011  -0.079   0.191  1.00  0.00     0.165 C 
BRANCH   2   3
HETATM    3  N2  UNL     1       1.283  -0.513   0.518  1.00  0.00    -0.357 N 
HETATM    4  C8  UNL     1       1.879  -1.711   0.002  1.00  0.00     0.145 C 
HETATM    5  C7  UNL     1       3.079  -2.135   0.856  1.00  0.00     0.148 C 
HETATM    6  N1  UNL     1       4.054  -1.058   0.819  1.00  0.00    -0.325 N 
HETATM    7  C6  UNL     1       5.412  -1.389   0.644  1.00  0.00     0.362 C 
HETATM    8  C25 UNL     1       3.556   0.284   0.969  1.00  0.00     0.148 C 
HETATM    9  O2  UNL     1       5.771  -2.607   0.536  1.00  0.00    -0.238 OA
HETATM   10  C24 UNL     1       2.111   0.274   1.429  1.00  0.00     0.145 C 
BRANCH   7  11
HETATM   11  O1  UNL     1       6.359  -0.366   0.589  1.00  0.00    -0.304 OA
BRANCH  11  12
HETATM   12  C5  UNL     1       7.694  -0.773   0.414  1.00  0.00     0.180 C 
BRANCH  12  13
HETATM   13  C4  UNL     1       8.680   0.344   0.340  1.00  0.00     0.027 C 
BRANCH  13  14
HETATM   14  C3  UNL     1       8.740   1.226   1.541  1.00  0.00     0.002 C 
BRANCH  14  15
HETATM   15  C2  UNL     1       9.796   2.286   1.256  1.00  0.00    -0.004 C 
HETATM   16  C1  UNL     1       9.956   3.256   2.395  1.00  0.00     0.005 C 
ENDBRANCH  14  15
ENDBRANCH  13  14
ENDBRANCH  12  13
ENDBRANCH  11  12
ENDBRANCH   7  11
ENDBRANCH   2   3
BRANCH   2  17
HETATM   17  O3  UNL     1      -0.383   1.014   0.803  1.00  0.00    -0.344 OA
ATOM     18  H3  UNL     1      -1.257   1.312   0.578  1.00  0.00     0.219 HD
ENDBRANCH   2  17
ENDBRANCH   1   2
BRANCH   1  19
HETATM   19  C11 UNL     1      -0.520  -1.092  -2.037  1.00  0.00     0.041 C 
BRANCH  19  20
HETATM   20  C12 UNL     1       0.218  -0.257  -2.976  1.00  0.00     0.047 C 
BRANCH  20  21
HETATM   21  S1  UNL     1      -0.406   1.241  -3.629  1.00  0.00    -0.146 SA
HETATM   22  C13 UNL     1      -0.475   2.662  -2.567  1.00  0.00     0.095 C 
ENDBRANCH  20  21
ENDBRANCH  19  20
ENDBRANCH   1  19
BRANCH   1  23
HETATM   23  N3  UNL     1      -2.248   0.053  -0.751  1.00  0.00    -0.322 N 
HETATM   24  C14 UNL     1      -3.472  -0.634  -0.623  1.00  0.00     0.245 C 
HETATM   25  O4  UNL     1      -3.474  -1.870  -0.476  1.00  0.00    -0.271 OA
ATOM     26  H3  UNL     1      -2.262   1.066  -0.867  1.00  0.00     0.169 HD
BRANCH  24  27
HETATM   27  C15 UNL     1      -4.765   0.083  -0.665  1.00  0.00     0.179 C 
HETATM   28  C16 UNL     1      -4.753   0.992  -1.873  1.00  0.00     0.035 C 
HETATM   29  C17 UNL     1      -5.684   0.496  -2.955  1.00  0.00     0.004 C 
HETATM   30  C18 UNL     1      -5.719  -1.016  -2.989  1.00  0.00     0.020 C 
HETATM   31  C19 UNL     1      -6.381  -1.497  -1.732  1.00  0.00     0.127 C 
HETATM   32  N4  UNL     1      -5.898  -0.767  -0.607  1.00  0.00    -0.335 N 
HETATM   33  C20 UNL     1      -6.615  -0.902   0.644  1.00  0.00     0.244 C 
HETATM   34  O5  UNL     1      -6.216  -0.244   1.632  1.00  0.00    -0.268 OA
BRANCH  33  35
HETATM   35  C21 UNL     1      -7.748  -1.771   0.727  1.00  0.00     0.078 C 
HETATM   36  C22 UNL     1      -8.570  -2.085   1.668  1.00  0.00     0.063 C 
BRANCH  36  37
HETATM   37  C23 UNL     1      -8.692  -1.690   3.032  1.00  0.00     0.159 C 
HETATM   38  N5  UNL     1      -7.961  -0.870   3.682  1.00  0.00    -0.248 N 
ATOM     39  H5  UNL     1      -7.192  -0.438   3.170  1.00  0.00     0.196 HD
BRANCH  37  40
HETATM   40  O6  UNL     1      -9.743  -2.246   3.816  1.00  0.00    -0.345 OA
ATOM     41  H6  UNL     1      -9.824  -1.983   4.725  1.00  0.00     0.219 HD
ENDBRANCH  37  40
BRANCH  38  42
HETATM   42  O7  UNL     1      -8.102  -0.515   4.982  1.00  0.00    -0.288 OA
ATOM     43  H7  UNL     1      -7.558   0.095   5.466  1.00  0.00     0.244 HD
ENDBRANCH  38  42
ENDBRANCH  36  37
ENDBRANCH  33  35
ENDBRANCH  24  27
ENDBRANCH   1  23
TORSDOF 17
