REMARK  1 active torsions:
REMARK  status: ('A' for Active; 'I' for Inactive)
REMARK    1  A    between atoms: C3_3  and  C4_4 
ROOT
HETATM    1  C4  UNL     1       1.151  -0.389  -0.106  1.00  0.00     0.114 A 
HETATM    2  N1  UNL     1       2.349  -1.134   0.053  1.00  0.00    -0.286 N 
ATOM      3  H1  UNL     1       2.840  -2.022   0.154  1.00  0.00     0.188 HD
HETATM    4  N2  UNL     1       2.352   0.258  -0.033  1.00  0.00    -0.286 N 
ATOM      5  H2  UNL     1       2.876   1.133  -0.038  1.00  0.00     0.188 HD
ENDROOT
BRANCH   1   6
HETATM    6  C3  UNL     1      -0.280  -0.614  -0.228  1.00  0.00     0.056 A 
HETATM    7  C1  UNL     1      -1.220  -0.006   0.788  1.00  0.00     0.013 A 
HETATM    8  C2  UNL     1      -1.186   0.556  -0.588  1.00  0.00     0.013 A 
ENDBRANCH   1   6
TORSDOF 1
