REMARK  17 active torsions:
REMARK  status: ('A' for Active; 'I' for Inactive)
REMARK    1  A    between atoms: C4_4  and  N1_5 
REMARK    2  A    between atoms: N1_5  and  C5_8 
REMARK    3  A    between atoms: C5_8  and  C6_9 
REMARK    4  A    between atoms: C6_9  and  N2_10 
REMARK    5  A    between atoms: N2_10  and  C7_13 
REMARK    6  A    between atoms: C7_13  and  C8_14 
REMARK    7  A    between atoms: C8_14  and  C9_15 
REMARK    8  A    between atoms: C9_15  and  C10_16 
REMARK    9  A    between atoms: C10_16  and  N3_17 
REMARK   10  A    between atoms: N3_17  and  C11_19 
REMARK   11  A    between atoms: C11_19  and  C12_20 
REMARK   12  A    between atoms: C12_20  and  C13_21 
REMARK   13  A    between atoms: C13_21  and  C14_22 
REMARK   14  A    between atoms: C14_22  and  N4_23 
REMARK   15  A    between atoms: N4_23  and  C15_26 
REMARK   16  A    between atoms: C15_26  and  C16_27 
REMARK   17  A    between atoms: C16_27  and  C17_28 
ROOT
HETATM    1  C10 UNL     1      -0.202  -0.534   1.242  1.00  0.00     0.060 C 
ENDROOT
BRANCH   1   2
HETATM    2  C9  UNL     1      -1.005  -1.784   1.124  1.00  0.00     0.046 C 
BRANCH   2   3
HETATM    3  C8  UNL     1      -1.755  -1.960  -0.150  1.00  0.00     0.032 C 
BRANCH   3   4
HETATM    4  C7  UNL     1      -2.736  -0.787  -0.282  1.00  0.00     0.232 C 
BRANCH   4   5
HETATM    5  N2  UNL     1      -3.639  -0.770   0.834  1.00  0.00    -0.074 N 
ATOM      6  H22 UNL     1      -3.137  -0.754   1.722  1.00  0.00     0.277 HD
ATOM      7  H21 UNL     1      -4.119  -1.664   0.942  1.00  0.00     0.277 HD
BRANCH   5   8
HETATM    8  C6  UNL     1      -4.570   0.320   0.734  1.00  0.00     0.259 C 
BRANCH   8   9
HETATM    9  C5  UNL     1      -5.572   0.135  -0.420  1.00  0.00     0.260 C 
BRANCH   9  10
HETATM   10  N1  UNL     1      -6.456   1.253  -0.436  1.00  0.00    -0.069 N 
ATOM     11  H12 UNL     1      -5.926   2.124  -0.458  1.00  0.00     0.277 HD
ATOM     12  H11 UNL     1      -6.919   1.352   0.467  1.00  0.00     0.277 HD
BRANCH  10  13
HETATM   13  C4  UNL     1      -7.413   1.233  -1.480  1.00  0.00     0.186 C 
HETATM   14  C3  UNL     1      -8.419   2.349  -1.281  1.00  0.00     0.033 C 
HETATM   15  C2  UNL     1      -9.262   2.142  -0.075  1.00  0.00     0.002 C 
HETATM   16  C1  UNL     1      -9.308   0.769   0.488  1.00  0.00     0.000 C 
HETATM   17  C22 UNL     1      -9.075  -0.351  -0.466  1.00  0.00     0.002 C 
HETATM   18  C21 UNL     1      -8.130  -0.070  -1.584  1.00  0.00     0.033 C 
ENDBRANCH  10  13
ENDBRANCH   9  10
ENDBRANCH   8   9
ENDBRANCH   5   8
ENDBRANCH   4   5
ENDBRANCH   3   4
ENDBRANCH   2   3
ENDBRANCH   1   2
BRANCH   1  19
HETATM   19  N3  UNL     1       0.807  -0.321   0.304  1.00  0.00    -0.382 N 
ATOM     20  H3  UNL     1       0.692   0.442  -0.363  1.00  0.00     0.163 HD
BRANCH  19  21
HETATM   21  C11 UNL     1       1.956  -1.088   0.229  1.00  0.00     0.060 C 
BRANCH  21  22
HETATM   22  C12 UNL     1       2.965  -1.031   1.305  1.00  0.00     0.046 C 
BRANCH  22  23
HETATM   23  C13 UNL     1       3.599   0.278   1.589  1.00  0.00     0.032 C 
BRANCH  23  24
HETATM   24  C14 UNL     1       4.348   0.879   0.443  1.00  0.00     0.232 C 
BRANCH  24  25
HETATM   25  N4  UNL     1       5.435   0.057  -0.039  1.00  0.00    -0.075 N 
ATOM     26  H42 UNL     1       5.100  -0.866  -0.316  1.00  0.00     0.277 HD
ATOM     27  H41 UNL     1       5.772   0.389  -0.943  1.00  0.00     0.277 HD
BRANCH  25  28
HETATM   28  C15 UNL     1       6.523  -0.049   0.914  1.00  0.00     0.234 C 
BRANCH  28  29
HETATM   29  C16 UNL     1       7.656  -0.888   0.381  1.00  0.00     0.060 C 
BRANCH  29  30
HETATM   30  C17 UNL     1       8.197  -0.285  -0.873  1.00  0.00     0.187 C 
HETATM   31  C18 UNL     1       8.712   1.095  -0.618  1.00  0.00     0.034 C 
HETATM   32  C19 UNL     1      10.137   1.044  -1.146  1.00  0.00     0.029 C 
HETATM   33  C20 UNL     1      10.497  -0.437  -1.016  1.00  0.00     0.233 C 
HETATM   34  N5  UNL     1       9.279  -1.085  -1.414  1.00  0.00    -0.071 N 
ATOM     35  H52 UNL     1       9.234  -2.066  -1.139  1.00  0.00     0.277 HD
ATOM     36  H51 UNL     1       9.209  -1.233  -2.421  1.00  0.00     0.277 HD
ENDBRANCH  29  30
ENDBRANCH  28  29
ENDBRANCH  25  28
ENDBRANCH  24  25
ENDBRANCH  23  24
ENDBRANCH  22  23
ENDBRANCH  21  22
ENDBRANCH  19  21
ENDBRANCH   1  19
TORSDOF 17
