REMARK  12 active torsions:
REMARK  status: ('A' for Active; 'I' for Inactive)
REMARK    1  A    between atoms: C2_2  and  N1_3 
REMARK    2  A    between atoms: N1_3  and  C3_4 
REMARK    3  A    between atoms: N1_3  and  C11_18 
REMARK    4  A    between atoms: C3_4  and  C4_5 
REMARK    5  A    between atoms: C4_5  and  O1_6 
REMARK    6  A    between atoms: C4_5  and  C5_8 
REMARK    7  A    between atoms: C5_8  and  O2_9 
REMARK    8  A    between atoms: O2_9  and  C6_10 
REMARK    9  A    between atoms: C6_10  and  C7_11 
REMARK   10  A    between atoms: C7_11  and  O3_12 
REMARK   11  A    between atoms: C7_11  and  C8_14 
REMARK   12  A    between atoms: C8_14  and  N2_15 
ROOT
HETATM    1  C4  UNL     1      -0.170   0.225   0.819  1.00  0.00     0.170 C 
ENDROOT
BRANCH   1   2
HETATM    2  C3  UNL     1      -1.639   0.501   0.627  1.00  0.00     0.306 C 
BRANCH   2   3
HETATM    3  N1  UNL     1      -2.425  -0.503   0.036  1.00  0.00     0.095 N 
BRANCH   3   4
HETATM    4  C2  UNL     1      -2.626  -1.721   0.769  1.00  0.00     0.268 C 
HETATM    5  C1  UNL     1      -3.464  -1.569   1.999  1.00  0.00     0.037 C 
ENDBRANCH   3   4
BRANCH   3   6
HETATM    6  C11 UNL     1      -3.757   0.039  -0.229  1.00  0.00     0.227 C 
HETATM    7  C12 UNL     1      -4.549  -0.879  -1.094  1.00  0.00     0.062 C 
HETATM    8  C13 UNL     1      -5.721  -0.198  -1.749  1.00  0.00     0.169 C 
HETATM    9  O4  UNL     1      -6.076   0.946  -1.015  1.00  0.00    -0.391 OA
HETATM   10  C14 UNL     1      -5.067   1.870  -1.286  1.00  0.00     0.169 C 
HETATM   11  C15 UNL     1      -3.721   1.419  -0.815  1.00  0.00     0.062 C 
ENDBRANCH   3   6
ENDBRANCH   2   3
ENDBRANCH   1   2
BRANCH   1  12
HETATM   12  O1  UNL     1       0.120  -0.844   1.634  1.00  0.00    -0.392 OA
ATOM     13  H1  UNL     1       1.046  -1.018   1.755  1.00  0.00     0.210 HD
ENDBRANCH   1  12
BRANCH   1  14
HETATM   14  C5  UNL     1       0.605   0.285  -0.454  1.00  0.00     0.201 C 
BRANCH  14  15
HETATM   15  O2  UNL     1       1.956   0.428  -0.372  1.00  0.00    -0.386 OA
BRANCH  15  16
HETATM   16  C6  UNL     1       2.695  -0.505   0.273  1.00  0.00     0.201 C 
BRANCH  16  17
HETATM   17  C7  UNL     1       4.193  -0.205   0.211  1.00  0.00     0.170 C 
BRANCH  17  18
HETATM   18  O3  UNL     1       4.398   1.035   0.811  1.00  0.00    -0.392 OA
ATOM     19  H3  UNL     1       5.329   1.221   0.772  1.00  0.00     0.210 HD
ENDBRANCH  17  18
BRANCH  17  20
HETATM   20  C8  UNL     1       4.652  -0.171  -1.219  1.00  0.00     0.305 C 
BRANCH  20  21
HETATM   21  N2  UNL     1       6.037   0.140  -1.370  1.00  0.00     0.082 N 
HETATM   22  C9  UNL     1       6.348   1.498  -1.001  1.00  0.00     0.309 C 
HETATM   23  C10 UNL     1       6.917  -0.824  -0.752  1.00  0.00     0.309 C 
ENDBRANCH  20  21
ENDBRANCH  17  20
ENDBRANCH  16  17
ENDBRANCH  15  16
ENDBRANCH  14  15
ENDBRANCH   1  14
TORSDOF 12
