REMARK  8 active torsions:
REMARK  status: ('A' for Active; 'I' for Inactive)
REMARK    1  A    between atoms: C2_2  and  C4_4 
REMARK    2  A    between atoms: C4_4  and  N1_5 
REMARK    3  A    between atoms: N1_5  and  C5_7 
REMARK    4  A    between atoms: C8_10  and  C9_11 
REMARK    5  A    between atoms: C9_11  and  C10_12 
REMARK    6  A    between atoms: C10_12  and  N3_15 
REMARK    7  A    between atoms: N3_15  and  C12_17 
REMARK    8  A    between atoms: C14_21  and  C15_22 
ROOT
HETATM    1  C10 UNL     1       0.421  -0.497   0.284  1.00  0.00     0.191 C 
HETATM    2  C11 UNL     1       0.883  -1.748   0.910  1.00  0.00     0.084 C 
HETATM    3  N2  UNL     1       1.255  -2.716   1.420  1.00  0.00    -0.195 NA
ENDROOT
BRANCH   1   4
HETATM    4  C9  UNL     1      -0.844  -0.109   1.085  1.00  0.00     0.044 C 
BRANCH   4   5
HETATM    5  C8  UNL     1      -1.442   1.167   0.527  1.00  0.00    -0.012 C 
HETATM    6  C7  UNL     1      -1.867   0.928  -0.868  1.00  0.00     0.007 C 
HETATM    7  C6  UNL     1      -2.876   1.967  -1.282  1.00  0.00     0.025 C 
HETATM    8  C5  UNL     1      -4.091   1.873  -0.398  1.00  0.00     0.076 C 
HETATM    9  C21 UNL     1      -3.785   1.973   1.049  1.00  0.00     0.025 C 
HETATM   10  C20 UNL     1      -2.355   1.874   1.442  1.00  0.00     0.007 C 
BRANCH   8  11
HETATM   11  N1  UNL     1      -4.807   0.664  -0.724  1.00  0.00    -0.417 N 
ATOM     12  H1  UNL     1      -4.822   0.279  -1.668  1.00  0.00     0.153 HD
BRANCH  11  13
HETATM   13  C4  UNL     1      -5.492   0.044   0.361  1.00  0.00     0.118 C 
BRANCH  13  14
HETATM   14  C2  UNL     1      -6.361  -1.107  -0.138  1.00  0.00    -0.005 C 
HETATM   15  C1  UNL     1      -5.484  -2.132  -0.816  1.00  0.00     0.011 C 
HETATM   16  C3  UNL     1      -7.464  -0.610  -1.050  1.00  0.00     0.011 C 
ENDBRANCH  13  14
ENDBRANCH  11  13
ENDBRANCH   8  11
ENDBRANCH   4   5
ENDBRANCH   1   4
BRANCH   1  17
HETATM   17  N3  UNL     1       1.402   0.495   0.529  1.00  0.00    -0.353 N 
ATOM     18  H3  UNL     1       1.068   1.400   0.860  1.00  0.00     0.163 HD
BRANCH  17  19
HETATM   19  C12 UNL     1       2.647   0.368   0.378  1.00  0.00     0.145 A 
HETATM   20  N4  UNL     1       3.248  -0.734  -0.042  1.00  0.00    -0.346 N 
HETATM   21  C13 UNL     1       4.549  -0.941  -0.222  1.00  0.00     0.104 A 
ATOM     22  H4  UNL     1       2.637  -1.523  -0.254  1.00  0.00     0.167 HD
HETATM   23  C14 UNL     1       5.580  -0.063  -0.015  1.00  0.00     0.014 A 
HETATM   24  C19 UNL     1       5.373   1.251   0.442  1.00  0.00     0.068 A 
HETATM   25  S1  UNL     1       3.747   1.661   0.715  1.00  0.00    -0.065 SA
BRANCH  23  26
HETATM   26  C15 UNL     1       6.983  -0.405  -0.270  1.00  0.00     0.059 A 
HETATM   27  C16 UNL     1       7.388  -1.606  -0.793  1.00  0.00     0.120 A 
HETATM   28  N5  UNL     1       8.716  -1.859  -1.033  1.00  0.00    -0.349 N 
HETATM   29  C17 UNL     1       9.660  -0.968  -0.775  1.00  0.00     0.114 A 
ATOM     30  H5  UNL     1       8.984  -2.763  -1.423  1.00  0.00     0.167 HD
HETATM   31  N6  UNL     1      10.903  -1.199  -0.992  1.00  0.00    -0.384 N 
HETATM   32  C18 UNL     1       9.269   0.237  -0.250  1.00  0.00     0.136 A 
ATOM     33  H62 UNL     1      11.194  -2.095  -1.382  1.00  0.00     0.157 HD
ATOM     34  H61 UNL     1      11.631  -0.512  -0.793  1.00  0.00     0.157 HD
HETATM   35  N7  UNL     1       7.973   0.491  -0.012  1.00  0.00    -0.361 N 
ATOM     36  H7  UNL     1       7.719   1.398   0.380  1.00  0.00     0.165 HD
ENDBRANCH  23  26
ENDBRANCH  17  19
ENDBRANCH   1  17
TORSDOF 8
