REMARK  11 active torsions:
REMARK  status: ('A' for Active; 'I' for Inactive)
REMARK    1  A    between atoms: C2_3  and  O1_4 
REMARK    2  A    between atoms: C5_8  and  C6_9 
REMARK    3  A    between atoms: C6_9  and  O2_10 
REMARK    4  A    between atoms: C6_9  and  N2_12 
REMARK    5  A    between atoms: C9_15  and  O3_16 
REMARK    6  A    between atoms: C12_21  and  C13_22 
REMARK    7  A    between atoms: C13_22  and  C14_23 
REMARK    8  A    between atoms: C14_23  and  C15_24 
REMARK    9  A    between atoms: C15_24  and  C16_25 
REMARK   10  A    between atoms: C16_25  and  C17_26 
REMARK   11  A    between atoms: C17_26  and  C18_27 
ROOT
HETATM    1  C1  UNL     1      -3.883   4.270   0.021  1.00  0.00     0.161 C 
HETATM    2  N1  UNL     1      -2.979   3.218  -0.404  1.00  0.00    -0.298 N 
HETATM    3  C2  UNL     1      -1.691   3.508  -0.631  1.00  0.00     0.153 A 
HETATM    4  C3  UNL     1      -0.844   2.525  -1.028  1.00  0.00     0.028 A 
HETATM    5  C4  UNL     1      -1.280   1.201  -1.208  1.00  0.00     0.001 A 
HETATM    6  C5  UNL     1      -2.615   0.901  -0.975  1.00  0.00     0.067 A 
HETATM    7  C11 UNL     1      -3.436   1.941  -0.572  1.00  0.00     0.260 A 
HETATM    8  O4  UNL     1      -4.646   1.712  -0.354  1.00  0.00    -0.267 OA
HETATM    9  C12 UNL     1      -0.138   0.391  -1.624  1.00  0.00     0.220 C 
HETATM   10  N3  UNL     1       1.033   1.232  -1.513  1.00  0.00    -0.063 N 
ATOM     11  H31 UNL     1       1.686   1.105  -2.286  1.00  0.00     0.278 HD
ATOM     12  H32 UNL     1       1.657   0.943  -0.760  1.00  0.00     0.278 HD
HETATM   13  C22 UNL     1       0.594   2.574  -1.379  1.00  0.00     0.276 C 
ENDROOT
BRANCH   6  14
HETATM   14  C6  UNL     1      -3.204  -0.432  -1.182  1.00  0.00     0.256 C 
BRANCH  14  15
HETATM   15  O2  UNL     1      -4.467  -0.223  -1.828  1.00  0.00    -0.372 OA
ATOM     16  H2  UNL     1      -4.847  -1.083  -1.962  1.00  0.00     0.212 HD
ENDBRANCH  14  15
BRANCH  14  17
HETATM   17  N2  UNL     1      -3.347  -1.291  -0.113  1.00  0.00    -0.381 N 
HETATM   18  C7  UNL     1      -4.189  -1.045   0.983  1.00  0.00     0.122 C 
HETATM   19  C8  UNL     1      -4.191  -2.343   1.800  1.00  0.00     0.053 C 
HETATM   20  C9  UNL     1      -4.031  -3.392   0.724  1.00  0.00     0.137 C 
HETATM   21  C10 UNL     1      -3.490  -2.667  -0.494  1.00  0.00     0.151 C 
BRANCH  20  22
HETATM   22  O3  UNL     1      -3.163  -4.383   1.155  1.00  0.00    -0.394 OA
ATOM     23  H3  UNL     1      -3.062  -5.042   0.479  1.00  0.00     0.210 HD
ENDBRANCH  20  22
ENDBRANCH  14  17
ENDBRANCH   6  14
BRANCH   9  24
HETATM   24  C13 UNL     1       0.101  -0.896  -0.948  1.00  0.00     0.038 C 
BRANCH  24  25
HETATM   25  C14 UNL     1       0.330  -0.930   0.509  1.00  0.00     0.002 C 
BRANCH  25  26
HETATM   26  C15 UNL     1       1.532  -0.246   1.053  1.00  0.00     0.000 C 
BRANCH  26  27
HETATM   27  C16 UNL     1       2.848  -0.796   0.532  1.00  0.00     0.001 C 
BRANCH  27  28
HETATM   28  C17 UNL     1       3.960   0.010   1.168  1.00  0.00     0.008 C 
BRANCH  28  29
HETATM   29  C18 UNL     1       5.319  -0.471   0.703  1.00  0.00    -0.051 C 
HETATM   30  C19 UNL     1       5.433  -0.334  -0.804  1.00  0.00     0.014 C 
HETATM   31  C20 UNL     1       6.376   0.391   1.354  1.00  0.00     0.014 C 
HETATM   32  C21 UNL     1       5.579  -1.894   1.104  1.00  0.00     0.014 C 
ENDBRANCH  28  29
ENDBRANCH  27  28
ENDBRANCH  26  27
ENDBRANCH  25  26
ENDBRANCH  24  25
ENDBRANCH   9  24
BRANCH   3  33
HETATM   33  O1  UNL     1      -1.200   4.795  -0.469  1.00  0.00    -0.345 OA
ATOM     34  H1  UNL     1      -0.287   5.001  -0.630  1.00  0.00     0.219 HD
ENDBRANCH   3  33
TORSDOF 11
