REMARK  1 active torsions:
REMARK  status: ('A' for Active; 'I' for Inactive)
REMARK    1  A    between atoms: C2_2  and  C4_4 
ROOT
HETATM    1  C4  UNL     1      -0.767  -0.252   0.713  1.00  0.00     0.251 C 
HETATM    2  N1  UNL     1      -0.172   0.987   1.100  1.00  0.00    -0.060 N 
ATOM      3  H11 UNL     1      -0.489   1.273   2.026  1.00  0.00     0.278 HD
ATOM      4  H12 UNL     1      -0.547   1.761   0.552  1.00  0.00     0.278 HD
HETATM    5  C5  UNL     1       1.222   0.956   1.035  1.00  0.00     0.253 C 
HETATM    6  C6  UNL     1       1.762   0.087  -0.011  1.00  0.00     0.027 C 
HETATM    7  C7  UNL     1       2.550  -1.057   0.642  1.00  0.00     0.028 C 
HETATM    8  C8  UNL     1       2.592   0.773  -1.057  1.00  0.00     0.028 C 
HETATM    9  S1  UNL     1       0.275  -0.686  -0.714  1.00  0.00    -0.125 SA
ENDROOT
BRANCH   1  10
HETATM   10  C2  UNL     1      -2.209  -0.084   0.322  1.00  0.00     0.018 C 
HETATM   11  C1  UNL     1      -2.405   0.847  -0.829  1.00  0.00     0.012 C 
HETATM   12  C3  UNL     1      -2.749  -1.447  -0.065  1.00  0.00     0.012 C 
ENDBRANCH   1  10
TORSDOF 1
