REMARK  1 active torsions:
REMARK  status: ('A' for Active; 'I' for Inactive)
REMARK    1  A    between atoms: C1_2  and  C2_3 
ROOT
HETATM    1  C2  UNL     1       0.790  -0.017  -0.115  1.00  0.00     0.014 C 
HETATM    2  C3  UNL     1      -0.336  -0.863  -0.732  1.00  0.00     0.001 C 
HETATM    3  C4  UNL     1      -1.477  -0.536   0.174  1.00  0.00     0.007 C 
HETATM    4  C5  UNL     1      -1.155   0.777   0.882  1.00  0.00     0.016 C 
HETATM    5  C6  UNL     1       0.051   1.258   0.124  1.00  0.00     0.052 C 
HETATM    6  S2  UNL     1      -0.531   1.565  -1.595  1.00  0.00    -0.163 SA
HETATM    7  C7  UNL     1      -0.565  -0.208  -2.100  1.00  0.00     0.079 C 
ENDROOT
BRANCH   1   8
HETATM    8  C1  UNL     1       1.291  -0.668   1.139  1.00  0.00     0.092 C 
HETATM    9  S1  UNL     1       2.618   0.364   1.832  1.00  0.00    -0.097 SA
ENDBRANCH   1   8
TORSDOF 1
