REMARK  4 active torsions:
REMARK  status: ('A' for Active; 'I' for Inactive)
REMARK    1  A    between atoms: S1_2  and  C2_3 
REMARK    2  A    between atoms: C3_8  and  N3_9 
REMARK    3  A    between atoms: C7_19  and  N7_20 
REMARK    4  A    between atoms: C8_25  and  N9_26 
ROOT
HETATM    1  N3  UNL     1       0.472   1.427  -0.506  1.00  0.00    -0.063 N 
HETATM    2  N4  UNL     1       0.167   2.696  -0.819  1.00  0.00    -0.219 N 
ATOM      3  H4  UNL     1       0.858   3.435  -0.949  1.00  0.00     0.209 HD
HETATM    4  N5  UNL     1      -1.118   2.869  -0.937  1.00  0.00    -0.268 N 
ATOM      5  H5  UNL     1      -1.577   3.750  -1.169  1.00  0.00     0.190 HD
HETATM    6  C4  UNL     1      -1.739   1.712  -0.706  1.00  0.00     0.155 A 
HETATM    7  N6  UNL     1      -3.071   1.509  -0.740  1.00  0.00    -0.340 N 
ATOM      8  H6  UNL     1      -3.613   2.155  -1.314  1.00  0.00     0.167 HD
HETATM    9  C5  UNL     1      -3.773   0.538  -0.094  1.00  0.00     0.051 C 
HETATM   10  C6  UNL     1      -5.198   0.804   0.208  1.00  0.00     0.072 C 
HETATM   11  C7  UNL     1      -3.269  -0.684   0.308  1.00  0.00     0.123 C 
HETATM   12  N8  UNL     1      -2.000  -1.130   0.331  1.00  0.00    -0.326 N 
ATOM     13  H8  UNL     1      -1.862  -2.046   0.758  1.00  0.00     0.169 HD
HETATM   14  C8  UNL     1      -0.882  -0.528  -0.136  1.00  0.00     0.134 C 
HETATM   15  C9  UNL     1      -0.734   0.807  -0.436  1.00  0.00     0.165 A 
ENDROOT
BRANCH   1  16
HETATM   16  C3  UNL     1       1.755   0.869  -0.299  1.00  0.00     0.722 A 
HETATM   17  N2  UNL     1       2.323   0.659   0.897  1.00  0.00    -0.128 N 
HETATM   18  N1  UNL     1       3.528   0.126   0.723  1.00  0.00    -0.265 N 
ATOM     19  H2  UNL     1       1.897   0.874   1.799  1.00  0.00     0.205 HD
HETATM   20  C2  UNL     1       3.756  -0.018  -0.576  1.00  0.00     0.174 A 
ATOM     21  H1  UNL     1       4.174  -0.131   1.469  1.00  0.00     0.189 HD
HETATM   22  N10 UNL     1       2.645   0.448  -1.210  1.00  0.00    -0.166 N 
ATOM     23  H10 UNL     1       2.510   0.473  -2.221  1.00  0.00     0.186 HD
BRANCH  20  24
HETATM   24  S1  UNL     1       5.228  -0.688  -1.350  1.00  0.00    -0.097 SA
HETATM   25  C1  UNL     1       6.398  -1.158  -0.077  1.00  0.00     0.099 C 
ENDBRANCH  20  24
ENDBRANCH   1  16
BRANCH  14  26
HETATM   26  N9  UNL     1       0.165  -1.246  -0.331  1.00  0.00    -0.383 N 
ATOM     27  H92 UNL     1       0.055  -2.235  -0.109  1.00  0.00     0.157 HD
ATOM     28  H91 UNL     1       1.008  -0.792  -0.683  1.00  0.00     0.157 HD
ENDBRANCH  14  26
BRANCH  11  29
HETATM   29  N7  UNL     1      -4.197  -1.497   0.719  1.00  0.00    -0.384 N 
ATOM     30  H72 UNL     1      -5.159  -1.159   0.702  1.00  0.00     0.157 HD
ATOM     31  H71 UNL     1      -3.825  -2.399   1.016  1.00  0.00     0.157 HD
ENDBRANCH  11  29
TORSDOF 4
