REMARK  8 active torsions:
REMARK  status: ('A' for Active; 'I' for Inactive)
REMARK    1  A    between atoms: O1_2  and  C2_3 
REMARK    2  A    between atoms: C4_5  and  C5_6 
REMARK    3  A    between atoms: N1_7  and  N2_9 
REMARK    4  A    between atoms: N2_9  and  C6_11 
REMARK    5  A    between atoms: C7_16  and  C8_17 
REMARK    6  A    between atoms: C12_28  and  O2_29 
REMARK    7  A    between atoms: C14_31  and  O3_32 
REMARK    8  A    between atoms: O3_32  and  C15_33 
ROOT
HETATM    1  C5  UNL     1       0.310  -1.645   1.168  1.00  0.00     0.119 C 
HETATM    2  N1  UNL     1       0.778  -1.219   2.296  1.00  0.00    -0.297 N 
ATOM      3  H1  UNL     1       0.324  -0.460   2.804  1.00  0.00     0.186 HD
ENDROOT
BRANCH   2   4
HETATM    4  N2  UNL     1       1.926  -1.836   2.792  1.00  0.00    -0.131 N 
ATOM      5  H2  UNL     1       1.880  -2.521   3.546  1.00  0.00     0.205 HD
BRANCH   4   6
HETATM    6  C6  UNL     1       3.059  -1.498   2.249  1.00  0.00     0.713 A 
HETATM    7  N3  UNL     1       4.286  -1.966   2.570  1.00  0.00    -0.129 N 
HETATM    8  N4  UNL     1       5.171  -1.373   1.787  1.00  0.00    -0.268 N 
ATOM      9  H3  UNL     1       4.493  -2.657   3.291  1.00  0.00     0.205 HD
HETATM   10  C7  UNL     1       4.555  -0.522   0.953  1.00  0.00     0.171 A 
ATOM     11  H4  UNL     1       6.177  -1.539   1.813  1.00  0.00     0.189 HD
HETATM   12  N7  UNL     1       3.257  -0.615   1.254  1.00  0.00    -0.170 N 
ATOM     13  H7  UNL     1       2.516  -0.088   0.792  1.00  0.00     0.186 HD
BRANCH  10  14
HETATM   14  C8  UNL     1       5.192   0.313  -0.057  1.00  0.00     0.137 A 
HETATM   15  N5  UNL     1       4.612   1.164  -0.897  1.00  0.00    -0.290 N 
HETATM   16  N6  UNL     1       5.311   1.817  -1.717  1.00  0.00    -0.297 N 
ATOM     17  H5  UNL     1       3.600   1.289  -0.878  1.00  0.00     0.188 HD
HETATM   18  C9  UNL     1       6.630   1.659  -1.748  1.00  0.00     0.064 A 
ATOM     19  H6  UNL     1       4.862   2.470  -2.360  1.00  0.00     0.187 HD
HETATM   20  C10 UNL     1       7.643   2.323  -2.629  1.00  0.00     0.078 C 
HETATM   21  S1  UNL     1       6.834   0.486  -0.499  1.00  0.00    -0.053 SA
ENDBRANCH  10  14
ENDBRANCH   4   6
ENDBRANCH   2   4
BRANCH   1  22
HETATM   22  C4  UNL     1      -0.905  -0.995   0.639  1.00  0.00    -0.014 A 
HETATM   23  C3  UNL     1      -1.441  -1.407  -0.550  1.00  0.00     0.052 A 
HETATM   24  C2  UNL     1      -2.592  -0.791  -1.051  1.00  0.00     0.105 A 
HETATM   25  C14 UNL     1      -3.193   0.234  -0.351  1.00  0.00     0.144 A 
HETATM   26  C12 UNL     1      -2.660   0.651   0.841  1.00  0.00     0.105 A 
HETATM   27  C11 UNL     1      -1.522   0.031   1.322  1.00  0.00     0.052 A 
BRANCH  24  28
HETATM   28  O1  UNL     1      -3.135  -1.210  -2.257  1.00  0.00    -0.353 OA
HETATM   29  C1  UNL     1      -2.519  -2.261  -2.975  1.00  0.00     0.210 C 
ENDBRANCH  24  28
BRANCH  25  30
HETATM   30  O3  UNL     1      -4.347   0.870  -0.827  1.00  0.00    -0.293 OA
BRANCH  30  31
HETATM   31  C15 UNL     1      -5.609   0.406  -0.493  1.00  0.00     0.114 C 
HETATM   32  C16 UNL     1      -6.765   1.355  -0.334  1.00  0.00     0.097 C 
HETATM   33  N8  UNL     1      -5.747  -0.867  -0.326  1.00  0.00    -0.384 N 
ATOM     34  H82 UNL     1      -4.963  -1.511  -0.434  1.00  0.00     0.157 HD
ATOM     35  H81 UNL     1      -6.676  -1.209  -0.080  1.00  0.00     0.157 HD
ENDBRANCH  30  31
ENDBRANCH  25  30
BRANCH  26  36
HETATM   36  O2  UNL     1      -3.217   1.675   1.591  1.00  0.00    -0.353 OA
HETATM   37  C13 UNL     1      -2.700   2.123   2.807  1.00  0.00     0.210 C 
ENDBRANCH  26  36
ENDBRANCH   1  22
TORSDOF 8
