REMARK  9 active torsions:
REMARK  status: ('A' for Active; 'I' for Inactive)
REMARK    1  A    between atoms: O1_2  and  C2_3 
REMARK    2  A    between atoms: C2_3  and  C3_5 
REMARK    3  A    between atoms: C3_5  and  N1_6 
REMARK    4  A    between atoms: C9_13  and  N3_14 
REMARK    5  A    between atoms: N3_14  and  N4_16 
REMARK    6  A    between atoms: C10_18  and  C11_19 
REMARK    7  A    between atoms: N5_21  and  N6_23 
REMARK    8  A    between atoms: N6_23  and  C13_25 
REMARK    9  A    between atoms: C13_25  and  C14_29 
ROOT
HETATM    1  N1  UNL     1      -3.262  -0.855  -0.421  1.00  0.00    -0.326 N 
HETATM    2  C4  UNL     1      -3.943  -1.966  -0.084  1.00  0.00     0.011 A 
HETATM    3  C5  UNL     1      -5.370  -2.259  -0.271  1.00  0.00     0.068 C 
HETATM    4  C6  UNL     1      -3.032  -2.824   0.495  1.00  0.00     0.051 A 
HETATM    5  C7  UNL     1      -1.772  -2.216   0.507  1.00  0.00     0.092 A 
HETATM    6  C8  UNL     1      -0.570  -2.802   1.027  1.00  0.00     0.103 C 
HETATM    7  N2  UNL     1       0.417  -3.262   1.442  1.00  0.00    -0.191 NA
HETATM    8  C9  UNL     1      -1.957  -1.002  -0.067  1.00  0.00     0.144 A 
ENDROOT
BRANCH   8   9
HETATM    9  N3  UNL     1      -0.928  -0.007  -0.282  1.00  0.00    -0.284 N 
ATOM     10  H3  UNL     1      -0.812   0.748   0.394  1.00  0.00     0.188 HD
BRANCH   9  11
HETATM   11  N4  UNL     1      -0.113  -0.061  -1.371  1.00  0.00    -0.308 N 
HETATM   12  C10 UNL     1       1.131   0.126  -1.418  1.00  0.00     0.133 C 
ATOM     13  H4  UNL     1      -0.566  -0.280  -2.258  1.00  0.00     0.186 HD
BRANCH  12  14
HETATM   14  C11 UNL     1       2.059   0.449  -0.360  1.00  0.00     0.038 C 
HETATM   15  C12 UNL     1       1.708   0.637   1.060  1.00  0.00     0.071 C 
HETATM   16  N5  UNL     1       3.318   0.586  -0.710  1.00  0.00    -0.302 N 
ATOM     17  H5  UNL     1       3.608   0.468  -1.681  1.00  0.00     0.186 HD
BRANCH  16  18
HETATM   18  N6  UNL     1       4.244   0.896   0.279  1.00  0.00    -0.283 N 
ATOM     19  H6  UNL     1       4.173   1.785   0.774  1.00  0.00     0.188 HD
BRANCH  18  20
HETATM   20  C13 UNL     1       5.287  -0.009   0.609  1.00  0.00     0.161 C 
HETATM   21  N7  UNL     1       5.079  -1.093   1.271  1.00  0.00    -0.381 N 
ATOM     22  H72 UNL     1       4.125  -1.304   1.564  1.00  0.00     0.157 HD
ATOM     23  H71 UNL     1       5.828  -1.743   1.508  1.00  0.00     0.157 HD
BRANCH  20  24
HETATM   24  C14 UNL     1       6.650   0.292   0.190  1.00  0.00     0.183 A 
HETATM   25  N8  UNL     1       7.052   1.372  -0.504  1.00  0.00    -0.266 N 
HETATM   26  N9  UNL     1       8.371   1.258  -0.679  1.00  0.00    -0.226 N 
ATOM     27  H8  UNL     1       6.461   2.135  -0.834  1.00  0.00     0.190 HD
HETATM   28  N10 UNL     1       8.808   0.150  -0.121  1.00  0.00    -0.226 N 
ATOM     29  H9  UNL     1       8.955   1.932  -1.174  1.00  0.00     0.210 HD
HETATM   30  N11 UNL     1       7.764  -0.456   0.417  1.00  0.00    -0.266 N 
ATOM     31  H10 UNL     1       9.773  -0.180  -0.106  1.00  0.00     0.210 HD
ATOM     32  H11 UNL     1       7.789  -1.342   0.921  1.00  0.00     0.190 HD
ENDBRANCH  20  24
ENDBRANCH  18  20
ENDBRANCH  16  18
ENDBRANCH  12  14
ENDBRANCH   9  11
ENDBRANCH   8   9
BRANCH   1  33
HETATM   33  C3  UNL     1      -3.772   0.324  -1.047  1.00  0.00     0.241 C 
BRANCH  33  34
HETATM   34  C2  UNL     1      -4.248   1.351  -0.129  1.00  0.00     0.276 C 
HETATM   35  O2  UNL     1      -4.214   1.226   1.111  1.00  0.00    -0.263 OA
BRANCH  34  36
HETATM   36  O1  UNL     1      -4.762   2.521  -0.655  1.00  0.00    -0.325 OA
HETATM   37  C1  UNL     1      -5.237   3.549   0.179  1.00  0.00     0.213 C 
ENDBRANCH  34  36
ENDBRANCH  33  34
ENDBRANCH   1  33
TORSDOF 9
