REMARK  11 active torsions:
REMARK  status: ('A' for Active; 'I' for Inactive)
REMARK    1  A    between atoms: C2_2  and  C3_3 
REMARK    2  A    between atoms: C3_3  and  O1_4 
REMARK    3  A    between atoms: O1_4  and  C4_5 
REMARK    4  A    between atoms: C4_5  and  C5_7 
REMARK    5  A    between atoms: C5_7  and  C6_14 
REMARK    6  A    between atoms: N1_8  and  N2_10 
REMARK    7  A    between atoms: N2_10  and  O3_12 
REMARK    8  A    between atoms: C6_14  and  O5_16 
REMARK    9  A    between atoms: O5_16  and  C7_17 
REMARK   10  A    between atoms: C7_17  and  C8_18 
REMARK   11  A    between atoms: C10_23  and  O7_24 
ROOT
HETATM    1  O5  UNL     1       0.638   1.399   0.845  1.00  0.00    -0.285 OA
ENDROOT
BRANCH   1   2
HETATM    2  C6  UNL     1       0.239   0.241   1.465  1.00  0.00     0.322 C 
HETATM    3  O4  UNL     1       1.075  -0.275   2.261  1.00  0.00    -0.257 OA
BRANCH   2   4
HETATM    4  C5  UNL     1      -1.054  -0.397   1.256  1.00  0.00     0.201 C 
HETATM    5  N1  UNL     1      -1.301  -1.473   1.897  1.00  0.00    -0.271 N 
ATOM      6  H1  UNL     1      -0.605  -1.862   2.534  1.00  0.00     0.189 HD
BRANCH   4   7
HETATM    7  C4  UNL     1      -2.042   0.152   0.355  1.00  0.00     0.317 C 
HETATM    8  O2  UNL     1      -1.751   1.230  -0.263  1.00  0.00    -0.257 OA
BRANCH   7   9
HETATM    9  O1  UNL     1      -3.272  -0.391   0.107  1.00  0.00    -0.316 OA
BRANCH   9  10
HETATM   10  C3  UNL     1      -4.214   0.192  -0.797  1.00  0.00     0.178 C 
BRANCH  10  11
HETATM   11  C2  UNL     1      -5.471  -0.661  -0.838  1.00  0.00     0.022 C 
HETATM   12  C1  UNL     1      -6.087  -0.738   0.550  1.00  0.00     0.007 C 
ENDBRANCH  10  11
ENDBRANCH   9  10
ENDBRANCH   7   9
ENDBRANCH   4   7
BRANCH   5  13
HETATM   13  N2  UNL     1      -2.526  -2.113   1.722  1.00  0.00    -0.209 N 
ATOM     14  H2  UNL     1      -3.341  -1.767   2.229  1.00  0.00     0.215 HD
BRANCH  13  15
HETATM   15  O3  UNL     1      -2.671  -3.185   0.896  1.00  0.00    -0.274 OA
ATOM     16  H3  UNL     1      -3.506  -3.621   0.777  1.00  0.00     0.246 HD
ENDBRANCH  13  15
ENDBRANCH   5  13
ENDBRANCH   2   4
ENDBRANCH   1   2
BRANCH   1  17
HETATM   17  C7  UNL     1       1.809   2.095   0.922  1.00  0.00     0.166 C 
BRANCH  17  18
HETATM   18  C8  UNL     1       3.050   1.553   0.426  1.00  0.00     0.091 A 
HETATM   19  C9  UNL     1       4.257   2.246   0.599  1.00  0.00     0.262 A 
HETATM   20  O6  UNL     1       4.207   3.322   1.250  1.00  0.00    -0.267 OA
HETATM   21  N3  UNL     1       5.419   1.810   0.110  1.00  0.00    -0.301 N 
HETATM   22  C10 UNL     1       5.519   0.667  -0.591  1.00  0.00     0.173 A 
ATOM     23  H3  UNL     1       6.261   2.363   0.273  1.00  0.00     0.171 HD
HETATM   24  C11 UNL     1       4.372  -0.061  -0.798  1.00  0.00     0.123 A 
HETATM   25  N4  UNL     1       4.191  -1.224  -1.460  1.00  0.00    -0.296 N 
HETATM   26  C13 UNL     1       3.139   0.385  -0.289  1.00  0.00     0.129 A 
HETATM   27  C12 UNL     1       2.879  -1.492  -1.364  1.00  0.00     0.370 A 
ATOM     28  H4  UNL     1       4.902  -1.782  -1.933  1.00  0.00     0.171 HD
HETATM   29  O8  UNL     1       2.318  -2.519  -1.871  1.00  0.00    -0.238 OA
HETATM   30  O9  UNL     1       2.308  -0.545  -0.684  1.00  0.00    -0.258 OA
BRANCH  22  31
HETATM   31  O7  UNL     1       6.754   0.230  -1.095  1.00  0.00    -0.344 OA
ATOM     32  H7  UNL     1       6.825  -0.578  -1.590  1.00  0.00     0.219 HD
ENDBRANCH  22  31
ENDBRANCH  17  18
ENDBRANCH   1  17
TORSDOF 11
