REMARK  4 active torsions:
REMARK  status: ('A' for Active; 'I' for Inactive)
REMARK    1  A    between atoms: N1_2  and  C2_4 
REMARK    2  A    between atoms: C2_4  and  N2_6 
REMARK    3  A    between atoms: N2_6  and  N3_8 
REMARK    4  A    between atoms: C3_10  and  C5_12 
ROOT
HETATM    1  N3  UNL     1      -0.122   0.705   0.732  1.00  0.00    -0.301 N 
ATOM      2  H3  UNL     1       0.416   1.544   0.947  1.00  0.00     0.186 HD
HETATM    3  C3  UNL     1      -1.238   0.906   0.179  1.00  0.00     0.043 C 
HETATM    4  C4  UNL     1      -1.587   2.358  -0.071  1.00  0.00     0.072 C 
ENDROOT
BRANCH   1   5
HETATM    5  N2  UNL     1       0.477  -0.489   1.089  1.00  0.00    -0.276 N 
ATOM      6  H2  UNL     1      -0.022  -1.104   1.732  1.00  0.00     0.189 HD
BRANCH   5   7
HETATM    7  C2  UNL     1       1.749  -0.909   0.611  1.00  0.00     0.186 C 
HETATM    8  S1  UNL     1       2.393  -2.339   1.079  1.00  0.00    -0.040 SA
BRANCH   7   9
HETATM    9  N1  UNL     1       2.443  -0.053  -0.282  1.00  0.00    -0.370 N 
HETATM   10  C1  UNL     1       3.742  -0.424  -0.803  1.00  0.00     0.148 C 
ATOM     11  H1  UNL     1       2.022   0.834  -0.560  1.00  0.00     0.161 HD
ENDBRANCH   7   9
ENDBRANCH   5   7
ENDBRANCH   1   5
BRANCH   3  12
HETATM   12  C5  UNL     1      -2.204  -0.084  -0.237  1.00  0.00     0.022 C 
HETATM   13  C6  UNL     1      -2.005  -1.547  -0.061  1.00  0.00     0.070 C 
HETATM   14  N4  UNL     1      -3.321   0.276  -0.798  1.00  0.00    -0.401 N 
ATOM     15  H42 UNL     1      -3.458   1.280  -0.919  1.00  0.00     0.156 HD
ATOM     16  H41 UNL     1      -4.003  -0.423  -1.092  1.00  0.00     0.156 HD
ENDBRANCH   3  12
TORSDOF 4
