REMARK  6 active torsions:
REMARK  status: ('A' for Active; 'I' for Inactive)
REMARK    1  A    between atoms: C2_3  and  N2_4 
REMARK       I    between atoms: N2_4  and  C3_6 
REMARK    2  A    between atoms: C3_6  and  C4_8 
REMARK    3  A    between atoms: C4_8  and  C5_9 
REMARK    4  A    between atoms: C5_9  and  C6_10 
REMARK    5  A    between atoms: C6_10  and  N3_11 
REMARK       I    between atoms: N3_11  and  C7_13 
REMARK    6  A    between atoms: C7_13  and  C8_15 
ROOT
HETATM    1  N1  UNL     1       4.328  -2.731   0.990  1.00  0.00    -0.195 NA
HETATM    2  C1  UNL     1       4.511  -1.854   0.253  1.00  0.00     0.091 C 
HETATM    3  C2  UNL     1       4.759  -0.759  -0.683  1.00  0.00     0.122 C 
HETATM    4  C18 UNL     1       6.103  -0.109  -0.395  1.00  0.00     0.047 C 
HETATM    5  C19 UNL     1       6.322  -0.062  -1.901  1.00  0.00     0.007 C 
HETATM    6  C20 UNL     1       5.349  -1.218  -2.012  1.00  0.00     0.047 C 
ENDROOT
BRANCH   3   7
HETATM    7  N2  UNL     1       3.667   0.130  -0.867  1.00  0.00    -0.339 N 
HETATM    8  C3  UNL     1       3.134   0.855   0.230  1.00  0.00     0.219 C 
HETATM    9  O1  UNL     1       3.656   0.684   1.355  1.00  0.00    -0.274 OA
ATOM     10  H2  UNL     1       3.262   0.248  -1.796  1.00  0.00     0.164 HD
BRANCH   8  11
HETATM   11  C4  UNL     1       2.000   1.790   0.085  1.00  0.00     0.104 C 
BRANCH  11  12
HETATM   12  C5  UNL     1       1.477   2.367   1.356  1.00  0.00     0.029 C 
BRANCH  12  13
HETATM   13  C6  UNL     1       0.926   1.352   2.291  1.00  0.00     0.123 C 
BRANCH  13  14
HETATM   14  N3  UNL     1      -0.175   0.589   1.719  1.00  0.00    -0.360 N 
HETATM   15  C7  UNL     1      -1.385   1.181   1.277  1.00  0.00     0.226 C 
HETATM   16  O2  UNL     1      -1.589   2.431   1.353  1.00  0.00    -0.273 OA
ATOM     17  H3  UNL     1      -0.070  -0.422   1.632  1.00  0.00     0.162 HD
BRANCH  15  18
HETATM   18  C8  UNL     1      -2.463   0.347   0.704  1.00  0.00     0.042 C 
HETATM   19  C9  UNL     1      -3.627   1.194   0.315  1.00  0.00     0.024 C 
HETATM   20  C10 UNL     1      -4.784   0.361  -0.160  1.00  0.00    -0.013 C 
HETATM   21  C11 UNL     1      -4.350  -0.364  -1.408  1.00  0.00     0.009 C 
HETATM   22  C15 UNL     1      -5.158  -0.601   0.935  1.00  0.00     0.009 C 
HETATM   23  C12 UNL     1      -3.136  -1.181  -1.075  1.00  0.00    -0.013 C 
HETATM   24  C13 UNL     1      -3.575  -2.246  -0.076  1.00  0.00     0.009 C 
HETATM   25  C17 UNL     1      -1.987  -0.371  -0.558  1.00  0.00     0.024 C 
HETATM   26  C14 UNL     1      -3.996  -1.536   1.174  1.00  0.00    -0.013 C 
HETATM   27  C16 UNL     1      -2.834  -0.744   1.688  1.00  0.00     0.024 C 
ENDBRANCH  15  18
ENDBRANCH  13  14
ENDBRANCH  12  13
ENDBRANCH  11  12
ENDBRANCH   8  11
ENDBRANCH   3   7
TORSDOF 6
