REMARK  10 active torsions:
REMARK  status: ('A' for Active; 'I' for Inactive)
REMARK    1  A    between atoms: C2_2  and  C3_3 
REMARK    2  A    between atoms: C3_3  and  C4_4 
REMARK    3  A    between atoms: C3_3  and  C24_34 
REMARK    4  A    between atoms: N1_6  and  C6_7 
REMARK    5  A    between atoms: C6_7  and  O1_8 
REMARK    6  A    between atoms: C6_7  and  C7_10 
REMARK    7  A    between atoms: C7_10  and  C8_11 
REMARK    8  A    between atoms: N2_23  and  C16_24 
REMARK    9  A    between atoms: C16_24  and  C17_25 
REMARK   10  A    between atoms: C17_25  and  C18_26 
ROOT
HETATM    1  C4  UNL     1      -1.495  -1.516  -0.014  1.00  0.00    -0.009 A 
HETATM    2  C5  UNL     1      -2.078  -0.446   0.534  1.00  0.00     0.104 A 
HETATM    3  N1  UNL     1      -1.178   0.404   1.140  1.00  0.00    -0.319 N 
HETATM    4  C14 UNL     1       0.030  -0.212   0.935  1.00  0.00     0.133 A 
HETATM    5  C15 UNL     1       1.326   0.088   1.276  1.00  0.00     0.278 A 
HETATM    6  O2  UNL     1       1.556   1.125   1.927  1.00  0.00    -0.265 OA
HETATM    7  N2  UNL     1       2.384  -0.708   0.940  1.00  0.00    -0.302 N 
HETATM    8  C21 UNL     1       2.176  -1.853   0.244  1.00  0.00     0.082 A 
HETATM    9  C22 UNL     1       3.274  -2.775  -0.178  1.00  0.00     0.089 C 
HETATM   10  N3  UNL     1       0.910  -2.149  -0.086  1.00  0.00    -0.344 N 
ATOM     11  H3  UNL     1       0.742  -3.008  -0.609  1.00  0.00     0.167 HD
HETATM   12  C23 UNL     1      -0.148  -1.389   0.227  1.00  0.00     0.074 A 
ENDROOT
BRANCH   3  13
HETATM   13  C6  UNL     1      -1.450   1.617   1.840  1.00  0.00     0.249 C 
BRANCH  13  14
HETATM   14  O1  UNL     1      -0.994   1.502   3.198  1.00  0.00    -0.373 OA
ATOM     15  H1  UNL     1      -1.175   2.310   3.664  1.00  0.00     0.212 HD
ENDBRANCH  13  14
BRANCH  13  16
HETATM   16  C7  UNL     1      -1.159   2.926   1.297  1.00  0.00     0.041 C 
BRANCH  16  17
HETATM   17  C8  UNL     1      -1.770   3.426   0.064  1.00  0.00     0.006 A 
HETATM   18  C9  UNL     1      -2.849   2.921  -0.572  1.00  0.00     0.059 A 
HETATM   19  C10 UNL     1      -3.403   3.447  -1.740  1.00  0.00     0.155 A 
HETATM   20  F1  UNL     1      -4.476   2.896  -2.333  1.00  0.00    -0.203 F 
HETATM   21  C11 UNL     1      -2.811   4.560  -2.278  1.00  0.00     0.157 A 
HETATM   22  F2  UNL     1      -3.305   5.117  -3.413  1.00  0.00    -0.203 F 
HETATM   23  C12 UNL     1      -1.699   5.120  -1.661  1.00  0.00     0.088 A 
HETATM   24  C13 UNL     1      -1.183   4.582  -0.526  1.00  0.00     0.129 A 
HETATM   25  F3  UNL     1      -0.109   5.139   0.057  1.00  0.00    -0.205 F 
ENDBRANCH  16  17
ENDBRANCH  13  16
ENDBRANCH   3  13
BRANCH   1  26
HETATM   26  C3  UNL     1      -2.101  -2.645  -0.738  1.00  0.00     0.026 C 
BRANCH  26  27
HETATM   27  C2  UNL     1      -3.611  -2.591  -0.793  1.00  0.00     0.005 C 
HETATM   28  C1  UNL     1      -4.268  -2.618   0.551  1.00  0.00     0.006 C 
ENDBRANCH  26  27
BRANCH  26  29
HETATM   29  C24 UNL     1      -1.643  -3.980  -0.163  1.00  0.00    -0.006 A 
HETATM   30  C25 UNL     1      -2.073  -5.182  -0.945  1.00  0.00     0.005 A 
HETATM   31  C26 UNL     1      -0.651  -4.825  -0.941  1.00  0.00     0.005 A 
ENDBRANCH  26  29
ENDBRANCH   1  26
BRANCH   7  32
HETATM   32  C16 UNL     1       3.734  -0.357   1.263  1.00  0.00     0.134 C 
BRANCH  32  33
HETATM   33  C17 UNL     1       4.596   0.273   0.274  1.00  0.00     0.024 C 
BRANCH  33  34
HETATM   34  C18 UNL     1       4.341   1.555  -0.372  1.00  0.00    -0.021 C 
HETATM   35  C19 UNL     1       3.098   1.695  -1.197  1.00  0.00     0.009 C 
HETATM   36  C20 UNL     1       4.445   2.757   0.549  1.00  0.00     0.009 C 
ENDBRANCH  33  34
ENDBRANCH  32  33
ENDBRANCH   7  32
TORSDOF 10
