REMARK  4 active torsions:
REMARK  status: ('A' for Active; 'I' for Inactive)
REMARK    1  A    between atoms: C2_3  and  C3_4 
REMARK    2  A    between atoms: C2_3  and  C9_10 
REMARK    3  A    between atoms: C3_4  and  C4_5 
REMARK       I    between atoms: C9_10  and  N2_12 
REMARK    4  A    between atoms: C13_19  and  O2_20 
ROOT
HETATM    1  N1  UNL     1      -0.426   1.123   2.255  1.00  0.00    -0.196 NA
HETATM    2  C1  UNL     1      -0.524   0.640   1.201  1.00  0.00     0.073 C 
HETATM    3  C2  UNL     1      -0.605   0.048  -0.122  1.00  0.00     0.185 C 
ENDROOT
BRANCH   3   4
HETATM    4  C3  UNL     1      -1.883  -0.670  -0.365  1.00  0.00     0.033 C 
BRANCH   4   5
HETATM    5  C4  UNL     1      -3.138   0.078  -0.291  1.00  0.00    -0.013 C 
HETATM    6  C5  UNL     1      -3.551   0.725   0.973  1.00  0.00     0.005 C 
HETATM    7  C6  UNL     1      -5.074   0.727   0.980  1.00  0.00     0.000 C 
HETATM    8  C7  UNL     1      -5.474   0.113  -0.319  1.00  0.00     0.000 C 
HETATM    9  C8  UNL     1      -4.320  -0.851  -0.629  1.00  0.00     0.005 C 
ENDBRANCH   4   5
ENDBRANCH   3   4
BRANCH   3  10
HETATM   10  C9  UNL     1       0.564  -0.899  -0.202  1.00  0.00     0.237 C 
HETATM   11  O1  UNL     1       0.269  -2.104  -0.369  1.00  0.00    -0.272 OA
HETATM   12  N2  UNL     1       1.903  -0.480  -0.098  1.00  0.00    -0.347 N 
HETATM   13  C10 UNL     1       2.878  -1.549  -0.197  1.00  0.00     0.127 C 
HETATM   14  C14 UNL     1       2.217   0.909   0.090  1.00  0.00     0.186 C 
HETATM   15  C11 UNL     1       4.068  -1.330   0.704  1.00  0.00     0.047 C 
HETATM   16  C12 UNL     1       5.088  -0.494  -0.038  1.00  0.00     0.237 C 
HETATM   17  N3  UNL     1       4.677   0.904   0.148  1.00  0.00    -0.047 N 
HETATM   18  C13 UNL     1       3.527   1.229  -0.640  1.00  0.00     0.336 C 
ATOM     19  H32 UNL     1       4.525   1.118   1.134  1.00  0.00     0.280 HD
ATOM     20  H31 UNL     1       5.448   1.546  -0.038  1.00  0.00     0.280 HD
BRANCH  18  21
HETATM   21  O2  UNL     1       3.564   2.589  -0.924  1.00  0.00    -0.368 OA
ATOM     22  H2  UNL     1       2.801   2.805  -1.447  1.00  0.00     0.212 HD
ENDBRANCH  18  21
ENDBRANCH   3  10
TORSDOF 4
