REMARK  7 active torsions:
REMARK  status: ('A' for Active; 'I' for Inactive)
REMARK    1  A    between atoms: C2_2  and  C4_4 
REMARK    2  A    between atoms: C4_4  and  C5_5 
REMARK    3  A    between atoms: C6_6  and  C7_7 
REMARK    4  A    between atoms: N5_21  and  C12_22 
REMARK    5  A    between atoms: N6_24  and  C14_25 
REMARK    6  A    between atoms: N7_28  and  C17_29 
REMARK    7  A    between atoms: C17_29  and  C18_30 
ROOT
HETATM    1  C5  UNL     1      -3.338  -0.577   0.297  1.00  0.00     0.044 A 
HETATM    2  C6  UNL     1      -4.089  -1.082  -0.736  1.00  0.00     0.049 A 
HETATM    3  C11 UNL     1      -3.241  -1.138  -1.854  1.00  0.00     0.124 A 
HETATM    4  N4  UNL     1      -2.058  -0.685  -1.448  1.00  0.00    -0.308 N 
ATOM      5  H4  UNL     1      -1.236  -0.611  -2.047  1.00  0.00     0.186 HD
HETATM    6  N5  UNL     1      -2.080  -0.348  -0.190  1.00  0.00    -0.287 N 
ENDROOT
BRANCH   6   7
HETATM    7  C12 UNL     1      -0.896   0.153   0.504  1.00  0.00     0.164 C 
HETATM    8  C13 UNL     1       0.312  -0.740   0.209  1.00  0.00     0.302 C 
HETATM    9  N6  UNL     1       0.910   0.255  -0.650  1.00  0.00     0.097 N 
HETATM   10  C23 UNL     1      -0.107   1.189  -0.246  1.00  0.00     0.302 C 
BRANCH   9  11
HETATM   11  C14 UNL     1       2.249   0.568  -0.188  1.00  0.00     0.226 C 
HETATM   12  C15 UNL     1       3.069  -0.698  -0.290  1.00  0.00     0.066 C 
HETATM   13  C16 UNL     1       4.312  -0.371  -1.094  1.00  0.00     0.274 C 
HETATM   14  N7  UNL     1       4.985   0.685  -0.413  1.00  0.00     0.088 N 
HETATM   15  C21 UNL     1       4.266   1.927  -0.671  1.00  0.00     0.274 C 
HETATM   16  C22 UNL     1       2.825   1.686  -1.033  1.00  0.00     0.066 C 
BRANCH  14  17
HETATM   17  C17 UNL     1       6.343   0.884  -0.762  1.00  0.00     0.276 C 
BRANCH  17  18
HETATM   18  C18 UNL     1       7.292  -0.195  -0.360  1.00  0.00     0.006 C 
HETATM   19  C19 UNL     1       8.685   0.238  -0.838  1.00  0.00     0.011 C 
HETATM   20  C20 UNL     1       7.406  -0.334   1.151  1.00  0.00     0.011 C 
ENDBRANCH  17  18
ENDBRANCH  14  17
ENDBRANCH   9  11
ENDBRANCH   6   7
BRANCH   1  21
HETATM   21  C4  UNL     1      -3.721  -0.219   1.652  1.00  0.00     0.064 C 
BRANCH  21  22
HETATM   22  C2  UNL     1      -4.258   1.125   1.924  1.00  0.00    -0.017 C 
HETATM   23  C1  UNL     1      -3.319   2.275   1.599  1.00  0.00     0.010 C 
HETATM   24  C3  UNL     1      -5.584   1.396   1.294  1.00  0.00     0.010 C 
ENDBRANCH  21  22
ENDBRANCH   1  21
BRANCH   2  25
HETATM   25  C7  UNL     1      -5.461  -1.626  -0.751  1.00  0.00     0.120 A 
HETATM   26  N1  UNL     1      -6.113  -1.971   0.361  1.00  0.00    -0.328 N 
HETATM   27  C8  UNL     1      -7.324  -2.525   0.355  1.00  0.00     0.101 A 
ATOM     28  H1  UNL     1      -5.662  -1.802   1.260  1.00  0.00     0.169 HD
HETATM   29  N2  UNL     1      -7.942  -2.854   1.465  1.00  0.00    -0.385 N 
HETATM   30  C9  UNL     1      -7.926  -2.748  -0.862  1.00  0.00     0.065 A 
ATOM     31  H22 UNL     1      -7.496  -2.689   2.367  1.00  0.00     0.157 HD
ATOM     32  H21 UNL     1      -8.870  -3.278   1.460  1.00  0.00     0.157 HD
HETATM   33  C10 UNL     1      -7.245  -2.388  -2.000  1.00  0.00     0.093 A 
HETATM   34  N3  UNL     1      -6.026  -1.833  -1.949  1.00  0.00    -0.351 N 
ATOM     35  H3  UNL     1      -5.537  -1.573  -2.806  1.00  0.00     0.166 HD
ENDBRANCH   2  25
TORSDOF 7
