REMARK  14 active torsions:
REMARK  status: ('A' for Active; 'I' for Inactive)
REMARK    1  A    between atoms: C2_2  and  C3_3 
REMARK    2  A    between atoms: C3_3  and  C4_4 
REMARK    3  A    between atoms: C4_4  and  O1_5 
REMARK    4  A    between atoms: O1_5  and  C5_6 
REMARK    5  A    between atoms: C8_10  and  O3_11 
REMARK    6  A    between atoms: C9_13  and  O4_14 
REMARK    7  A    between atoms: C10_16  and  O5_17 
REMARK    8  A    between atoms: O5_17  and  C11_18 
REMARK    9  A    between atoms: C11_18  and  C12_19 
REMARK   10  A    between atoms: C11_18  and  O6_39 
REMARK   11  A    between atoms: C12_19  and  C13_20 
REMARK   12  A    between atoms: C14_21  and  C16_23 
REMARK   13  A    between atoms: C19_26  and  C20_27 
REMARK   14  A    between atoms: C19_26  and  C24_31 
ROOT
HETATM    1  C11 UNL     1       1.533  -0.698   0.604  1.00  0.00     0.263 C 
ENDROOT
BRANCH   1   2
HETATM    2  O5  UNL     1       2.823  -1.012   0.195  1.00  0.00    -0.353 OA
BRANCH   2   3
HETATM    3  C10 UNL     1       3.446   0.055  -0.467  1.00  0.00     0.157 C 
HETATM    4  C9  UNL     1       3.776  -0.268  -1.884  1.00  0.00     0.176 C 
HETATM    5  C8  UNL     1       5.029  -1.050  -2.096  1.00  0.00     0.150 C 
HETATM    6  C7  UNL     1       6.092  -0.842  -1.084  1.00  0.00     0.050 C 
HETATM    7  C3  UNL     1       5.937   0.351  -0.202  1.00  0.00     0.004 C 
HETATM    8  C30 UNL     1       4.576   0.537   0.374  1.00  0.00     0.050 C 
BRANCH   4   9
HETATM    9  O4  UNL     1       3.842   0.910  -2.640  1.00  0.00    -0.390 OA
ATOM     10  H4  UNL     1       3.044   1.408  -2.505  1.00  0.00     0.210 HD
ENDBRANCH   4   9
BRANCH   5  11
HETATM   11  O3  UNL     1       5.507  -0.716  -3.372  1.00  0.00    -0.393 OA
ATOM     12  H3  UNL     1       4.826  -0.849  -4.021  1.00  0.00     0.210 HD
ENDBRANCH   5  11
BRANCH   7  13
HETATM   13  C2  UNL     1       6.312   1.590  -0.953  1.00  0.00    -0.025 C 
HETATM   14  C1  UNL     1       6.305   2.760  -0.337  1.00  0.00     0.008 C 
ENDBRANCH   7  13
BRANCH   7  15
HETATM   15  C4  UNL     1       6.902   0.244   0.998  1.00  0.00     0.192 C 
BRANCH  15  16
HETATM   16  O1  UNL     1       8.201   0.172   0.412  1.00  0.00    -0.321 OA
BRANCH  16  17
HETATM   17  C5  UNL     1       9.333   0.066   1.223  1.00  0.00     0.254 C 
HETATM   18  C6  UNL     1      10.715  -0.011   0.637  1.00  0.00     0.126 C 
HETATM   19  O2  UNL     1       9.144   0.038   2.458  1.00  0.00    -0.266 OA
ENDBRANCH  16  17
ENDBRANCH  15  16
ENDBRANCH   7  15
ENDBRANCH   2   3
ENDBRANCH   1   2
BRANCH   1  20
HETATM   20  C12 UNL     1       0.582  -1.719   0.005  1.00  0.00     0.088 C 
BRANCH  20  21
HETATM   21  C13 UNL     1      -0.808  -1.466   0.371  1.00  0.00    -0.015 C 
HETATM   22  C14 UNL     1      -1.736  -1.166  -0.492  1.00  0.00    -0.059 C 
HETATM   23  C15 UNL     1      -1.470  -1.042  -1.960  1.00  0.00     0.048 C 
BRANCH  22  24
HETATM   24  C16 UNL     1      -3.108  -0.957  -0.067  1.00  0.00    -0.048 C 
HETATM   25  C17 UNL     1      -4.079  -0.642  -0.919  1.00  0.00     0.015 C 
HETATM   26  C18 UNL     1      -5.465  -0.429  -0.434  1.00  0.00    -0.046 C 
HETATM   27  C19 UNL     1      -6.178   0.609  -0.795  1.00  0.00     0.039 C 
HETATM   28  C25 UNL     1      -5.931  -1.407   0.592  1.00  0.00     0.040 C 
HETATM   29  C26 UNL     1      -4.762  -2.092   1.245  1.00  0.00     0.014 C 
HETATM   30  C27 UNL     1      -3.575  -1.156   1.340  1.00  0.00     0.015 C 
HETATM   31  C28 UNL     1      -3.878   0.099   2.069  1.00  0.00     0.015 C 
BRANCH  27  32
HETATM   32  C20 UNL     1      -7.573   0.818  -0.339  1.00  0.00    -0.019 C 
HETATM   33  C21 UNL     1      -7.683   1.668   0.888  1.00  0.00     0.019 C 
HETATM   34  C22 UNL     1      -8.313   1.624  -1.477  1.00  0.00     0.019 C 
HETATM   35  C23 UNL     1      -8.401  -0.405  -0.240  1.00  0.00     0.019 C 
ENDBRANCH  27  32
BRANCH  27  36
HETATM   36  C24 UNL     1      -5.539   1.747  -1.547  1.00  0.00     0.415 C 
HETATM   37  F1  UNL     1      -4.200   1.628  -1.670  1.00  0.00    -0.166 F 
HETATM   38  F2  UNL     1      -5.731   2.935  -0.819  1.00  0.00    -0.166 F 
HETATM   39  F3  UNL     1      -6.063   1.913  -2.803  1.00  0.00    -0.166 F 
ENDBRANCH  27  36
ENDBRANCH  22  24
ENDBRANCH  20  21
ENDBRANCH   1  20
BRANCH   1  40
HETATM   40  O6  UNL     1       1.409  -0.774   1.993  1.00  0.00    -0.366 OA
HETATM   41  C29 UNL     1       0.978   0.426   2.550  1.00  0.00     0.204 C 
ENDBRANCH   1  40
TORSDOF 14
