REMARK  7 active torsions:
REMARK  status: ('A' for Active; 'I' for Inactive)
REMARK    1  A    between atoms: C2_2  and  N1_4 
REMARK    2  A    between atoms: C7_9  and  C8_10 
REMARK       I    between atoms: C8_10  and  N2_12 
REMARK    3  A    between atoms: N2_12  and  N3_14 
REMARK    4  A    between atoms: N3_14  and  C9_15 
REMARK    5  A    between atoms: N3_14  and  S1_18 
REMARK    6  A    between atoms: S1_18  and  N4_21 
REMARK    7  A    between atoms: N4_21  and  C13_23 
ROOT
HETATM    1  N3  UNL     1       0.049  -1.638  -0.599  1.00  0.00    -0.097 NA
ENDROOT
BRANCH   1   2
HETATM    2  N2  UNL     1       0.568  -0.427  -0.206  1.00  0.00    -0.272 N 
HETATM    3  C8  UNL     1       1.910  -0.014  -0.477  1.00  0.00     0.256 C 
HETATM    4  O2  UNL     1       2.637  -0.801  -1.115  1.00  0.00    -0.270 OA
ATOM      5  H2  UNL     1      -0.038   0.213   0.308  1.00  0.00     0.185 HD
BRANCH   3   6
HETATM    6  C7  UNL     1       2.478   1.284  -0.032  1.00  0.00     0.181 C 
HETATM    7  N1  UNL     1       3.900   1.129   0.275  1.00  0.00    -0.335 N 
HETATM    8  C4  UNL     1       4.594   1.255  -0.945  1.00  0.00     0.221 C 
HETATM    9  O1  UNL     1       5.780   0.844  -1.122  1.00  0.00    -0.273 OA
HETATM   10  C5  UNL     1       3.768   1.919  -1.969  1.00  0.00     0.105 C 
HETATM   11  C6  UNL     1       2.503   2.201  -1.221  1.00  0.00     0.044 C 
BRANCH   7  12
HETATM   12  C2  UNL     1       4.415   0.850   1.615  1.00  0.00     0.080 C 
HETATM   13  C1  UNL     1       4.912  -0.600   1.673  1.00  0.00     0.032 C 
HETATM   14  C3  UNL     1       5.540   1.710   2.043  1.00  0.00     0.032 C 
ENDBRANCH   7  12
ENDBRANCH   3   6
ENDBRANCH   1   2
BRANCH   1  15
HETATM   15  C9  UNL     1      -0.290  -1.722  -1.955  1.00  0.00     0.090 C 
HETATM   16  C10 UNL     1       0.497  -2.816  -2.683  1.00  0.00     0.029 C 
HETATM   17  C11 UNL     1      -0.149  -0.465  -2.775  1.00  0.00     0.029 C 
ENDBRANCH   1  15
BRANCH   1  18
HETATM   18  S1  UNL     1      -1.259  -2.021   0.460  1.00  0.00     0.318 S 
HETATM   19  O3  UNL     1      -1.297  -3.566   0.463  1.00  0.00    -0.187 OA
HETATM   20  O4  UNL     1      -0.829  -1.704   1.895  1.00  0.00    -0.187 OA
BRANCH  18  21
HETATM   21  N4  UNL     1      -2.743  -1.405   0.064  1.00  0.00    -0.296 N 
HETATM   22  C12 UNL     1      -3.619  -2.230  -0.636  1.00  0.00     0.164 C 
BRANCH  21  23
HETATM   23  C13 UNL     1      -3.315  -0.346   0.768  1.00  0.00     0.096 C 
HETATM   24  C14 UNL     1      -3.589   0.891  -0.068  1.00  0.00     0.026 C 
HETATM   25  C15 UNL     1      -4.034   1.994   0.841  1.00  0.00     0.002 C 
HETATM   26  C16 UNL     1      -4.260   1.532   2.246  1.00  0.00     0.000 C 
HETATM   27  C17 UNL     1      -5.055   0.275   2.371  1.00  0.00     0.002 C 
HETATM   28  C18 UNL     1      -4.643  -0.770   1.369  1.00  0.00     0.026 C 
ENDBRANCH  21  23
ENDBRANCH  18  21
ENDBRANCH   1  18
TORSDOF 7
