REMARK  6 active torsions:
REMARK  status: ('A' for Active; 'I' for Inactive)
REMARK    1  A    between atoms: S1_2  and  N1_5 
REMARK    2  A    between atoms: N1_5  and  C2_6 
REMARK    3  A    between atoms: N1_5  and  C14_23 
REMARK    4  A    between atoms: C2_6  and  C3_7 
REMARK       I    between atoms: C3_7  and  N2_9 
REMARK    5  A    between atoms: N2_9  and  C4_11 
REMARK    6  A    between atoms: N3_14  and  C7_15 
ROOT
HETATM    1  C3  UNL     1      -0.992  -0.758  -0.064  1.00  0.00     0.236 C 
HETATM    2  O3  UNL     1      -1.299  -1.981  -0.069  1.00  0.00    -0.272 OA
HETATM    3  N2  UNL     1       0.218  -0.291  -0.635  1.00  0.00    -0.346 N 
ATOM      4  H2  UNL     1       0.456   0.701  -0.626  1.00  0.00     0.163 HD
ENDROOT
BRANCH   1   5
HETATM    5  C2  UNL     1      -1.907   0.243   0.550  1.00  0.00     0.238 C 
BRANCH   5   6
HETATM    6  N1  UNL     1      -3.089  -0.302   1.102  1.00  0.00    -0.298 N 
BRANCH   6   7
HETATM    7  S1  UNL     1      -3.040  -0.761   2.717  1.00  0.00     0.225 S 
HETATM    8  C1  UNL     1      -2.705   0.572   3.832  1.00  0.00     0.186 C 
HETATM    9  O1  UNL     1      -4.354  -1.375   3.105  1.00  0.00    -0.206 OA
HETATM   10  O2  UNL     1      -1.979  -1.802   2.914  1.00  0.00    -0.206 OA
ENDBRANCH   6   7
BRANCH   6  11
HETATM   11  C14 UNL     1      -4.318   0.021   0.537  1.00  0.00     0.096 C 
HETATM   12  C15 UNL     1      -4.395   1.451   0.041  1.00  0.00     0.026 C 
HETATM   13  C16 UNL     1      -5.897   1.727  -0.136  1.00  0.00     0.002 C 
HETATM   14  C17 UNL     1      -6.305   0.947  -1.375  1.00  0.00     0.000 C 
HETATM   15  C18 UNL     1      -6.058  -0.510  -1.180  1.00  0.00     0.002 C 
HETATM   16  C19 UNL     1      -4.674  -0.843  -0.670  1.00  0.00     0.026 C 
ENDBRANCH   6  11
ENDBRANCH   5   6
ENDBRANCH   1   5
BRANCH   3  17
HETATM   17  C4  UNL     1       1.107  -1.269  -1.233  1.00  0.00     0.178 C 
HETATM   18  C5  UNL     1       1.488  -0.774  -2.606  1.00  0.00     0.054 C 
HETATM   19  C6  UNL     1       2.444   0.349  -2.271  1.00  0.00     0.129 C 
HETATM   20  N3  UNL     1       3.245  -0.211  -1.216  1.00  0.00    -0.346 N 
HETATM   21  C13 UNL     1       2.433  -1.157  -0.532  1.00  0.00     0.243 C 
HETATM   22  O4  UNL     1       2.706  -1.819   0.484  1.00  0.00    -0.271 OA
BRANCH  20  23
HETATM   23  C7  UNL     1       4.614   0.134  -0.919  1.00  0.00     0.087 C 
HETATM   24  C8  UNL     1       5.498  -1.058  -1.107  1.00  0.00     0.025 C 
HETATM   25  C9  UNL     1       6.475  -1.172   0.026  1.00  0.00     0.002 C 
HETATM   26  C10 UNL     1       7.152   0.189   0.221  1.00  0.00     0.000 C 
HETATM   27  C11 UNL     1       6.141   1.169   0.784  1.00  0.00     0.002 C 
HETATM   28  C12 UNL     1       4.757   0.651   0.497  1.00  0.00     0.025 C 
ENDBRANCH  20  23
ENDBRANCH   3  17
TORSDOF 6
