REMARK  6 active torsions:
REMARK  status: ('A' for Active; 'I' for Inactive)
REMARK    1  A    between atoms: N1_1  and  N2_4 
REMARK    2  A    between atoms: N3_6  and  C1_8 
REMARK    3  A    between atoms: C1_8  and  C2_9 
REMARK    4  A    between atoms: C4_11  and  O1_12 
REMARK    5  A    between atoms: C5_14  and  C6_15 
REMARK    6  A    between atoms: C6_15  and  O2_16 
ROOT
HETATM    1  C2  UNL     1       0.976  -0.268  -0.386  1.00  0.00     0.143 C 
HETATM    2  C3  UNL     1       0.575   1.096   0.067  1.00  0.00     0.068 C 
HETATM    3  C4  UNL     1      -0.946   1.001   0.076  1.00  0.00     0.151 C 
HETATM    4  C5  UNL     1      -1.150  -0.475   0.283  1.00  0.00     0.174 C 
HETATM    5  O3  UNL     1      -0.113  -1.092  -0.366  1.00  0.00    -0.374 OA
ENDROOT
BRANCH   1   6
HETATM    6  C1  UNL     1       2.068  -0.875   0.479  1.00  0.00     0.172 C 
BRANCH   6   7
HETATM    7  N3  UNL     1       3.249  -0.045   0.496  1.00  0.00    -0.320 N 
HETATM    8  N2  UNL     1       4.016  -0.113  -0.490  1.00  0.00    -0.254 N 
ATOM      9  H2  UNL     1       4.518  -0.992  -0.367  1.00  0.00     0.207 HD
ATOM     10  H3  UNL     1       3.450   0.573   1.282  1.00  0.00     0.181 HD
BRANCH   8  11
HETATM   11  N1  UNL     1       4.464   0.358  -1.536  1.00  0.00    -0.331 N 
ATOM     12  H12 UNL     1       3.943   1.230  -1.627  1.00  0.00     0.178 HD
ATOM     13  H11 UNL     1       5.089   0.303  -2.340  1.00  0.00     0.178 HD
ENDBRANCH   8  11
ENDBRANCH   6   7
ENDBRANCH   1   6
BRANCH   3  14
HETATM   14  O1  UNL     1      -1.402   1.396  -1.169  1.00  0.00    -0.393 OA
ATOM     15  H1  UNL     1      -2.350   1.337  -1.163  1.00  0.00     0.210 HD
ENDBRANCH   3  14
BRANCH   4  16
HETATM   16  C6  UNL     1      -2.450  -0.934  -0.384  1.00  0.00     0.198 C 
BRANCH  16  17
HETATM   17  O2  UNL     1      -3.554  -0.359   0.209  1.00  0.00    -0.398 OA
ATOM     18  H2  UNL     1      -4.360  -0.644  -0.205  1.00  0.00     0.209 HD
ENDBRANCH  16  17
ENDBRANCH   4  16
TORSDOF 6
