REMARK  6 active torsions:
REMARK  status: ('A' for Active; 'I' for Inactive)
REMARK    1  A    between atoms: C2_2  and  O2_4 
REMARK    2  A    between atoms: O2_4  and  C3_5 
REMARK    3  A    between atoms: C10_12  and  O3_13 
REMARK    4  A    between atoms: C12_16  and  O4_17 
REMARK    5  A    between atoms: C13_19  and  C14_20 
REMARK    6  A    between atoms: C14_20  and  O5_21 
ROOT
HETATM    1  C3  UNL     1       1.876   0.312  -0.069  1.00  0.00     0.156 C 
HETATM    2  C4  UNL     1       1.111   1.628  -0.205  1.00  0.00     0.039 C 
HETATM    3  C5  UNL     1       0.256   1.826   1.001  1.00  0.00     0.036 C 
HETATM    4  C6  UNL     1      -0.947   2.671   0.777  1.00  0.00    -0.087 C 
HETATM    5  C7  UNL     1      -0.809   4.121   1.185  1.00  0.00     0.043 C 
HETATM    6  C8  UNL     1      -2.079   2.281   0.271  1.00  0.00    -0.022 C 
HETATM    7  C9  UNL     1      -2.387   0.885  -0.186  1.00  0.00     0.059 C 
HETATM    8  C10 UNL     1      -2.708  -0.057   0.900  1.00  0.00     0.124 C 
HETATM    9  C11 UNL     1      -2.137  -1.418   0.824  1.00  0.00     0.066 C 
HETATM   10  C12 UNL     1      -2.002  -2.027  -0.518  1.00  0.00     0.151 C 
HETATM   11  C13 UNL     1      -0.572  -2.189  -0.985  1.00  0.00     0.173 C 
HETATM   12  O6  UNL     1       0.313  -1.487  -0.136  1.00  0.00    -0.379 OA
HETATM   13  C15 UNL     1       1.264  -0.794  -0.878  1.00  0.00     0.200 C 
ENDROOT
BRANCH   1  14
HETATM   14  O2  UNL     1       3.235   0.522  -0.377  1.00  0.00    -0.314 OA
BRANCH  14  15
HETATM   15  C2  UNL     1       4.245   0.334   0.552  1.00  0.00     0.255 C 
HETATM   16  C1  UNL     1       5.651   0.572   0.167  1.00  0.00     0.126 C 
HETATM   17  O1  UNL     1       3.916  -0.038   1.707  1.00  0.00    -0.266 OA
ENDBRANCH  14  15
ENDBRANCH   1  14
BRANCH  11  18
HETATM   18  C14 UNL     1      -0.112  -3.652  -0.888  1.00  0.00     0.198 C 
BRANCH  18  19
HETATM   19  O5  UNL     1      -0.875  -4.489  -1.664  1.00  0.00    -0.398 OA
ATOM     20  H5  UNL     1      -0.591  -5.393  -1.604  1.00  0.00     0.209 HD
ENDBRANCH  18  19
ENDBRANCH  11  18
BRANCH  10  21
HETATM   21  O4  UNL     1      -2.795  -1.419  -1.495  1.00  0.00    -0.393 OA
ATOM     22  H4  UNL     1      -2.708  -1.810  -2.356  1.00  0.00     0.210 HD
ENDBRANCH  10  21
BRANCH   8  23
HETATM   23  O3  UNL     1      -4.105  -0.187   1.095  1.00  0.00    -0.395 OA
ATOM     24  H3  UNL     1      -4.312  -0.795   1.795  1.00  0.00     0.210 HD
ENDBRANCH   8  23
TORSDOF 6
