REMARK  11 active torsions:
REMARK  status: ('A' for Active; 'I' for Inactive)
REMARK    1  A    between atoms: C2_2  and  N7_26 
REMARK    2  A    between atoms: N1_3  and  O1_5 
REMARK    3  A    between atoms: O1_5  and  C3_6 
REMARK    4  A    between atoms: C3_6  and  C4_8 
REMARK    5  A    between atoms: C5_11  and  N3_12 
REMARK    6  A    between atoms: N4_14  and  N5_16 
REMARK       I    between atoms: N5_16  and  C6_18 
REMARK    7  A    between atoms: C7_23  and  O5_24 
REMARK    8  A    between atoms: N7_26  and  N8_28 
REMARK    9  A    between atoms: N8_28  and  C8_30 
REMARK   10  A    between atoms: C9_33  and  N10_34 
REMARK   11  A    between atoms: N11_37  and  N12_38 
ROOT
HETATM    1  C1  UNL     1      -0.855   0.767  -0.023  1.00  0.00     0.092 C 
HETATM    2  C2  UNL     1      -1.176  -0.664  -0.253  1.00  0.00     0.112 C 
HETATM    3  N1  UNL     1      -0.275  -1.575  -0.130  1.00  0.00    -0.244 N 
ATOM      4  H1  UNL     1      -0.513  -2.554  -0.291  1.00  0.00     0.196 HD
ENDROOT
BRANCH   3   5
HETATM    5  O1  UNL     1       1.004  -1.228   0.218  1.00  0.00    -0.192 OA
BRANCH   5   6
HETATM    6  C3  UNL     1       2.042  -1.675  -0.578  1.00  0.00     0.336 C 
HETATM    7  O2  UNL     1       1.821  -2.377  -1.587  1.00  0.00    -0.255 OA
BRANCH   6   8
HETATM    8  C4  UNL     1       3.403  -1.318  -0.226  1.00  0.00     0.177 A 
HETATM    9  N2  UNL     1       3.828  -0.578   0.813  1.00  0.00    -0.180 N 
HETATM   10  C5  UNL     1       5.160  -0.483   0.782  1.00  0.00     0.700 A 
ATOM     11  H2  UNL     1       3.225  -0.154   1.518  1.00  0.00     0.184 HD
HETATM   12  N6  UNL     1       5.582  -1.170  -0.288  1.00  0.00    -0.167 N 
HETATM   13  C7  UNL     1       4.521  -1.685  -0.912  1.00  0.00     0.189 A 
ATOM     14  H6  UNL     1       6.554  -1.281  -0.578  1.00  0.00     0.186 HD
BRANCH  10  15
HETATM   15  N3  UNL     1       5.998   0.227   1.724  1.00  0.00    -0.117 N 
HETATM   16  N4  UNL     1       6.949   0.961   1.364  1.00  0.00    -0.224 N 
ATOM     17  H4  UNL     1       7.510   1.439   2.069  1.00  0.00     0.209 HD
ATOM     18  H3  UNL     1       5.808   0.126   2.721  1.00  0.00     0.207 HD
BRANCH  16  19
HETATM   19  N5  UNL     1       7.250   1.132   0.015  1.00  0.00    -0.229 N 
HETATM   20  C6  UNL     1       6.507   2.008  -0.823  1.00  0.00     0.304 C 
HETATM   21  O3  UNL     1       5.544   2.639  -0.291  1.00  0.00    -0.628 OA
HETATM   22  O4  UNL     1       6.785   2.192  -2.155  1.00  0.00    -0.628 OA
ATOM     23  H5  UNL     1       8.030   0.611  -0.386  1.00  0.00     0.194 HD
ENDBRANCH  16  19
ENDBRANCH  10  15
BRANCH  13  24
HETATM   24  O5  UNL     1       4.506  -2.474  -2.077  1.00  0.00    -0.344 OA
ATOM     25  H5  UNL     1       5.286  -2.730  -2.555  1.00  0.00     0.219 HD
ENDBRANCH  13  24
ENDBRANCH   6   8
ENDBRANCH   5   6
ENDBRANCH   3   5
BRANCH   2  26
HETATM   26  N7  UNL     1      -2.488  -1.046  -0.613  1.00  0.00    -0.286 N 
ATOM     27  H7  UNL     1      -2.815  -0.819  -1.552  1.00  0.00     0.188 HD
BRANCH  26  28
HETATM   28  N8  UNL     1      -3.359  -1.714   0.242  1.00  0.00    -0.278 N 
ATOM     29  H8  UNL     1      -3.139  -2.643   0.600  1.00  0.00     0.189 HD
BRANCH  28  30
HETATM   30  C8  UNL     1      -4.467  -1.108   0.569  1.00  0.00     0.183 A 
HETATM   31  N9  UNL     1      -4.773   0.123   0.105  1.00  0.00    -0.167 N 
HETATM   32  C9  UNL     1      -5.869   0.814   0.381  1.00  0.00     0.702 A 
ATOM     33  H9  UNL     1      -4.095   0.563  -0.518  1.00  0.00     0.186 HD
HETATM   34  N11 UNL     1      -6.889   0.445   1.166  1.00  0.00    -0.048 N 
HETATM   35  C10 UNL     1      -6.984  -0.721   1.829  1.00  0.00     0.327 A 
HETATM   36  O6  UNL     1      -7.988  -0.999   2.557  1.00  0.00    -0.257 OA
HETATM   37  S1  UNL     1      -5.654  -1.762   1.600  1.00  0.00     0.011 SA
BRANCH  32  38
HETATM   38  N10 UNL     1      -5.958   1.997  -0.184  1.00  0.00    -0.233 N 
ATOM     39 2H10 UNL     1      -5.181   2.278  -0.782  1.00  0.00     0.174 HD
ATOM     40 1H10 UNL     1      -6.802   2.529   0.029  1.00  0.00     0.174 HD
ENDBRANCH  32  38
BRANCH  34  41
HETATM   41  N12 UNL     1      -7.983   1.342   1.334  1.00  0.00    -0.321 N 
ATOM     42 2H12 UNL     1      -7.911   2.226   0.831  1.00  0.00     0.178 HD
ATOM     43 1H12 UNL     1      -8.760   1.061   1.932  1.00  0.00     0.178 HD
ENDBRANCH  34  41
ENDBRANCH  28  30
ENDBRANCH  26  28
ENDBRANCH   2  26
TORSDOF 11
