REMARK  10 active torsions:
REMARK  status: ('A' for Active; 'I' for Inactive)
REMARK    1  A    between atoms: C2_2  and  N1_3 
REMARK    2  A    between atoms: N3_8  and  C5_9 
REMARK    3  A    between atoms: C5_9  and  C6_10 
REMARK    4  A    between atoms: C6_10  and  N4_11 
REMARK    5  A    between atoms: C8_13  and  C9_14 
REMARK    6  A    between atoms: C9_14  and  N5_15 
REMARK    7  A    between atoms: N7_26  and  C18_27 
REMARK    8  A    between atoms: C18_27  and  C19_28 
REMARK    9  A    between atoms: C19_28  and  C20_29 
REMARK   10  A    between atoms: C20_29  and  N8_30 
ROOT
HETATM    1  N5  UNL     1       0.304   1.530   1.360  1.00  0.00    -0.331 N 
HETATM    2  C10 UNL     1       0.860   2.742   1.116  1.00  0.00     0.184 A 
HETATM    3  N6  UNL     1      -0.075   3.683   1.005  1.00  0.00    -0.349 N 
ATOM      4  H6  UNL     1       0.067   4.676   0.822  1.00  0.00     0.166 HD
HETATM    5  C11 UNL     1      -1.258   3.040   1.187  1.00  0.00     0.078 A 
HETATM    6  C12 UNL     1      -2.568   3.467   1.194  1.00  0.00     0.020 A 
HETATM    7  C13 UNL     1      -2.792   4.828   0.966  1.00  0.00     0.016 A 
HETATM    8  C14 UNL     1      -4.077   5.308   0.961  1.00  0.00     0.001 A 
HETATM    9  C15 UNL     1      -5.118   4.432   1.183  1.00  0.00     0.002 A 
HETATM   10  C16 UNL     1      -4.864   3.085   1.407  1.00  0.00     0.031 A 
HETATM   11  C17 UNL     1      -3.584   2.575   1.417  1.00  0.00     0.050 A 
HETATM   12  N7  UNL     1      -3.339   1.253   1.636  1.00  0.00    -0.312 N 
HETATM   13  C24 UNL     1      -2.068   0.808   1.635  1.00  0.00     0.277 A 
HETATM   14  O1  UNL     1      -1.784  -0.400   1.837  1.00  0.00    -0.265 OA
HETATM   15  C25 UNL     1      -1.009   1.679   1.412  1.00  0.00     0.132 A 
ENDROOT
BRANCH   1  16
HETATM   16  C9  UNL     1       1.075   0.330   1.497  1.00  0.00     0.190 C 
BRANCH  16  17
HETATM   17  C8  UNL     1       1.326  -0.218   0.128  1.00  0.00     0.062 A 
HETATM   18  C7  UNL     1       2.331   0.147  -0.749  1.00  0.00     0.140 A 
HETATM   19  N4  UNL     1       2.179  -0.614  -1.849  1.00  0.00    -0.285 N 
HETATM   20  N11 UNL     1       1.134  -1.420  -1.683  1.00  0.00    -0.241 N 
HETATM   21  N10 UNL     1       0.632  -1.175  -0.498  1.00  0.00    -0.287 N 
ATOM     22  H11 UNL     1       0.787  -2.104  -2.355  1.00  0.00     0.208 HD
ATOM     23  H10 UNL     1      -0.180  -1.651  -0.105  1.00  0.00     0.188 HD
BRANCH  19  24
HETATM   24  C6  UNL     1       2.973  -0.602  -3.030  1.00  0.00     0.171 C 
BRANCH  24  25
HETATM   25  C5  UNL     1       4.133  -1.523  -3.077  1.00  0.00     0.176 C 
BRANCH  25  26
HETATM   26  N3  UNL     1       5.112  -1.305  -2.036  1.00  0.00    -0.239 N 
HETATM   27  N2  UNL     1       6.138  -0.459  -2.044  1.00  0.00    -0.283 N 
HETATM   28  C3  UNL     1       6.830  -0.518  -0.893  1.00  0.00     0.098 A 
ATOM     29  H2  UNL     1       6.370   0.156  -2.824  1.00  0.00     0.188 HD
HETATM   30  N1  UNL     1       6.202  -1.433  -0.157  1.00  0.00    -0.287 N 
HETATM   31  C4  UNL     1       8.027   0.301  -0.595  1.00  0.00     0.091 C 
HETATM   32  C26 UNL     1       5.149  -1.921  -0.847  1.00  0.00     0.344 A 
HETATM   33  O2  UNL     1       4.335  -2.817  -0.433  1.00  0.00    -0.245 OA
BRANCH  30  34
HETATM   34  C2  UNL     1       6.574  -1.847   1.165  1.00  0.00     0.131 C 
HETATM   35  C1  UNL     1       5.888  -0.995   2.233  1.00  0.00     0.027 C 
ENDBRANCH  30  34
ENDBRANCH  25  26
ENDBRANCH  24  25
ENDBRANCH  19  24
ENDBRANCH  16  17
ENDBRANCH   1  16
BRANCH  12  36
HETATM   36  C18 UNL     1      -4.452   0.401   1.887  1.00  0.00     0.134 C 
BRANCH  36  37
HETATM   37  C19 UNL     1      -5.151  -0.149   0.675  1.00  0.00     0.050 C 
BRANCH  37  38
HETATM   38  C20 UNL     1      -4.233  -0.965  -0.150  1.00  0.00     0.276 C 
BRANCH  38  39
HETATM   39  N8  UNL     1      -4.857  -1.514  -1.340  1.00  0.00     0.115 N 
HETATM   40  C21 UNL     1      -5.850  -2.515  -1.050  1.00  0.00     0.302 C 
HETATM   41  C22 UNL     1      -5.050  -3.795  -0.963  1.00  0.00     0.264 C 
HETATM   42  N9  UNL     1      -4.069  -3.610  -2.016  1.00  0.00    -0.047 N 
HETATM   43  C23 UNL     1      -3.809  -2.206  -2.081  1.00  0.00     0.502 C 
ATOM     44  H92 UNL     1      -3.227  -4.172  -1.889  1.00  0.00     0.279 HD
ATOM     45  H91 UNL     1      -4.354  -4.011  -2.910  1.00  0.00     0.279 HD
ENDBRANCH  38  39
ENDBRANCH  37  38
ENDBRANCH  36  37
ENDBRANCH  12  36
TORSDOF 10
