REMARK  11 active torsions:
REMARK  status: ('A' for Active; 'I' for Inactive)
REMARK    1  A    between atoms: O1_2  and  C2_3 
REMARK    2  A    between atoms: C2_3  and  C3_5 
REMARK    3  A    between atoms: N1_9  and  C7_10 
REMARK    4  A    between atoms: C7_10  and  C8_11 
REMARK       I    between atoms: C8_11  and  N2_13 
REMARK    5  A    between atoms: N2_13  and  C9_15 
REMARK    6  A    between atoms: C9_15  and  C10_16 
REMARK    7  A    between atoms: C10_16  and  N3_17 
REMARK    8  A    between atoms: C12_19  and  C13_20 
REMARK    9  A    between atoms: C13_20  and  S1_21 
REMARK   10  A    between atoms: S1_21  and  C14_22 
REMARK   11  A    between atoms: N6_27  and  C15_28 
ROOT
HETATM    1  C14 UNL     1      -4.390  -2.300  -0.425  1.00  0.00     0.126 A 
HETATM    2  N4  UNL     1      -4.493  -1.609  -1.597  1.00  0.00    -0.276 N 
ATOM      3  H4  UNL     1      -4.012  -1.839  -2.466  1.00  0.00     0.189 HD
HETATM    4  N5  UNL     1      -5.307  -0.606  -1.423  1.00  0.00    -0.234 N 
ATOM      5  H5  UNL     1      -5.550   0.063  -2.154  1.00  0.00     0.209 HD
HETATM    6  N6  UNL     1      -5.781  -0.555  -0.191  1.00  0.00    -0.225 N 
HETATM    7  C21 UNL     1      -5.211  -1.615   0.447  1.00  0.00     0.172 A 
HETATM    8  C22 UNL     1      -5.437  -1.962   1.821  1.00  0.00     0.122 C 
HETATM    9  N9  UNL     1      -5.601  -2.246   2.930  1.00  0.00    -0.190 NA
ENDROOT
BRANCH   1  10
HETATM   10  S1  UNL     1      -3.401  -3.758  -0.136  1.00  0.00    -0.102 SA
BRANCH  10  11
HETATM   11  C13 UNL     1      -1.748  -3.336   0.414  1.00  0.00     0.141 C 
BRANCH  11  12
HETATM   12  C12 UNL     1      -1.008  -2.642  -0.666  1.00  0.00     0.054 A 
HETATM   13  C11 UNL     1      -0.937  -1.302  -0.930  1.00  0.00     0.139 A 
HETATM   14  N3  UNL     1      -0.150  -1.136  -2.005  1.00  0.00    -0.286 N 
HETATM   15  N11 UNL     1       0.259  -2.326  -2.404  1.00  0.00    -0.241 N 
HETATM   16  N10 UNL     1      -0.252  -3.237  -1.604  1.00  0.00    -0.288 N 
ATOM     17  H11 UNL     1       0.870  -2.509  -3.200  1.00  0.00     0.208 HD
ATOM     18  H10 UNL     1      -0.098  -4.242  -1.684  1.00  0.00     0.188 HD
BRANCH  14  19
HETATM   19  C10 UNL     1       0.204   0.121  -2.640  1.00  0.00     0.169 C 
BRANCH  19  20
HETATM   20  C9  UNL     1       1.462   0.723  -2.053  1.00  0.00     0.144 C 
BRANCH  20  21
HETATM   21  N2  UNL     1       2.612  -0.158  -2.207  1.00  0.00    -0.358 N 
HETATM   22  C8  UNL     1       3.867   0.264  -1.703  1.00  0.00     0.235 C 
HETATM   23  O3  UNL     1       3.999   1.374  -1.133  1.00  0.00    -0.272 OA
ATOM     24  H2  UNL     1       2.515  -1.062  -2.669  1.00  0.00     0.162 HD
BRANCH  22  25
HETATM   25  C7  UNL     1       5.034  -0.609  -1.850  1.00  0.00     0.230 C 
BRANCH  25  26
HETATM   26  N1  UNL     1       6.239  -0.042  -1.284  1.00  0.00    -0.357 N 
HETATM   27  C6  UNL     1       7.016   0.714  -2.071  1.00  0.00     0.091 A 
HETATM   28  C5  UNL     1       8.190   1.289  -1.587  1.00  0.00     0.018 A 
HETATM   29  C4  UNL     1       8.562   1.077  -0.272  1.00  0.00     0.020 A 
HETATM   30  C3  UNL     1       7.762   0.300   0.535  1.00  0.00     0.055 A 
HETATM   31  C23 UNL     1       6.624  -0.231  -0.011  1.00  0.00     0.108 A 
BRANCH  30  32
HETATM   32  C2  UNL     1       8.094   0.035   1.935  1.00  0.00     0.294 C 
HETATM   33  O2  UNL     1       7.332  -0.682   2.631  1.00  0.00    -0.259 OA
BRANCH  32  34
HETATM   34  O1  UNL     1       9.221   0.538   2.542  1.00  0.00    -0.322 OA
HETATM   35  C1  UNL     1       9.557   0.291   3.895  1.00  0.00     0.213 C 
ENDBRANCH  32  34
ENDBRANCH  30  32
ENDBRANCH  25  26
ENDBRANCH  22  25
ENDBRANCH  20  21
ENDBRANCH  19  20
ENDBRANCH  14  19
ENDBRANCH  11  12
ENDBRANCH  10  11
ENDBRANCH   1  10
BRANCH   6  36
HETATM   36  C15 UNL     1      -6.689   0.407   0.331  1.00  0.00     0.106 A 
HETATM   37  C16 UNL     1      -8.002   0.199   0.743  1.00  0.00     0.053 A 
HETATM   38  C17 UNL     1      -8.693  -1.128   0.700  1.00  0.00     0.072 C 
HETATM   39  N7  UNL     1      -8.482   1.375   1.162  1.00  0.00    -0.301 N 
HETATM   40  N8  UNL     1      -7.561   2.329   1.046  1.00  0.00    -0.299 N 
ATOM     41  H7  UNL     1      -9.425   1.521   1.521  1.00  0.00     0.187 HD
HETATM   42  C18 UNL     1      -7.745   3.721   1.408  1.00  0.00     0.177 C 
HETATM   43  C19 UNL     1      -6.475   1.754   0.545  1.00  0.00     0.055 A 
HETATM   44  C20 UNL     1      -5.197   2.462   0.252  1.00  0.00     0.072 C 
ENDBRANCH   6  36
TORSDOF 11
