REMARK  2 active torsions:
REMARK  status: ('A' for Active; 'I' for Inactive)
REMARK    1  A    between atoms: N2_3  and  C2_5 
REMARK    2  A    between atoms: C4_12  and  N5_13 
REMARK       I    between atoms: N5_13  and  C5_15 
REMARK       I    between atoms: C5_15  and  N6_16 
REMARK       I    between atoms: C5_15  and  N7_20 
ROOT
HETATM    1  N1  UNL     1      -0.562   1.960   3.463  1.00  0.00    -0.171 NA
HETATM    2  C1  UNL     1      -1.309   1.246   2.943  1.00  0.00     0.196 C 
HETATM    3  N2  UNL     1      -2.195   0.400   2.310  1.00  0.00    -0.125 N 
ATOM      4  H2  UNL     1      -3.119   0.234   2.709  1.00  0.00     0.197 HD
ENDROOT
BRANCH   3   5
HETATM    5  C2  UNL     1      -1.852  -0.177   1.219  1.00  0.00     0.709 A 
HETATM    6  N3  UNL     1      -2.728  -0.995   0.622  1.00  0.00    -0.139 N 
HETATM    7  C3  UNL     1      -2.385  -1.610  -0.525  1.00  0.00     0.352 A 
ATOM      8  H3  UNL     1      -3.648  -1.151   1.033  1.00  0.00     0.189 HD
HETATM    9  O1  UNL     1      -3.230  -2.371  -1.059  1.00  0.00    -0.246 OA
HETATM   10  N4  UNL     1      -1.158  -1.385  -1.047  1.00  0.00    -0.140 N 
HETATM   11  C4  UNL     1      -0.263  -0.572  -0.470  1.00  0.00     0.699 A 
ATOM     12  H4  UNL     1      -0.903  -1.854  -1.916  1.00  0.00     0.189 HD
HETATM   13  N8  UNL     1      -0.623   0.033   0.674  1.00  0.00    -0.021 N 
ATOM     14  H8  UNL     1       0.034   0.658   1.141  1.00  0.00     0.203 HD
BRANCH  11  15
HETATM   15  N5  UNL     1       0.877  -0.404  -1.015  1.00  0.00    -0.173 N 
HETATM   16  C5  UNL     1       1.941   0.415  -0.548  1.00  0.00     0.494 C 
HETATM   17  N6  UNL     1       3.194  -0.168  -0.987  1.00  0.00    -0.032 N 
HETATM   18  N7  UNL     1       1.803   1.793  -0.956  1.00  0.00    -0.032 N 
ATOM     19  H63 UNL     1       3.295  -1.142  -0.701  1.00  0.00     0.278 HD
ATOM     20  H62 UNL     1       3.226  -0.315  -1.996  1.00  0.00     0.278 HD
ATOM     21  H61 UNL     1       3.957   0.420  -0.652  1.00  0.00     0.278 HD
ATOM     22  H73 UNL     1       1.702   1.867  -1.968  1.00  0.00     0.278 HD
ATOM     23  H72 UNL     1       0.899   2.170  -0.672  1.00  0.00     0.278 HD
ATOM     24  H71 UNL     1       2.566   2.381  -0.621  1.00  0.00     0.278 HD
ATOM     25  H5  UNL     1       1.044  -0.914  -1.882  1.00  0.00     0.181 HD
ENDBRANCH  11  15
ENDBRANCH   3   5
TORSDOF 2
