REMARK  7 active torsions:
REMARK  status: ('A' for Active; 'I' for Inactive)
REMARK    1  A    between atoms: C3_3  and  C4_4 
REMARK    2  A    between atoms: C4_4  and  N1_5 
REMARK    3  A    between atoms: N1_5  and  N2_7 
REMARK    4  A    between atoms: C6_8  and  O1_9 
REMARK    5  A    between atoms: C8_12  and  O2_13 
REMARK    6  A    between atoms: O2_13  and  C9_14 
REMARK    7  A    between atoms: C15_23  and  O3_24 
ROOT
HETATM    1  N2  UNL     1       0.873   0.559   0.129  1.00  0.00    -0.211 N 
HETATM    2  C6  UNL     1       0.394   1.323   1.118  1.00  0.00     0.166 A 
HETATM    3  C7  UNL     1      -0.980   1.211   1.118  1.00  0.00     0.099 A 
HETATM    4  C8  UNL     1      -1.356   0.361   0.108  1.00  0.00     0.133 A 
HETATM    5  C15 UNL     1      -0.130  -0.036  -0.504  1.00  0.00     0.198 A 
ENDROOT
BRANCH   4   6
HETATM    6  O2  UNL     1      -2.546  -0.076  -0.309  1.00  0.00    -0.304 OA
BRANCH   6   7
HETATM    7  C9  UNL     1      -3.835   0.012  -0.049  1.00  0.00     0.101 A 
HETATM    8  C10 UNL     1      -4.390   0.757   0.982  1.00  0.00     0.063 A 
HETATM    9  C11 UNL     1      -5.762   0.765   1.150  1.00  0.00     0.038 A 
HETATM   10 CL1  UNL     1      -6.435   1.714   2.468  1.00  0.00    -0.084 Cl
HETATM   11  C12 UNL     1      -6.579   0.045   0.307  1.00  0.00     0.049 A 
HETATM   12  C13 UNL     1      -6.040  -0.705  -0.729  1.00  0.00     0.060 A 
HETATM   13 CL2  UNL     1      -7.080  -1.637  -1.818  1.00  0.00    -0.082 Cl
HETATM   14  C14 UNL     1      -4.692  -0.724  -0.907  1.00  0.00     0.089 A 
HETATM   15 CL3  UNL     1      -3.954  -1.663  -2.218  1.00  0.00    -0.080 Cl
ENDBRANCH   6   7
ENDBRANCH   4   6
BRANCH   5  16
HETATM   16  O3  UNL     1      -0.059  -0.913  -1.594  1.00  0.00    -0.343 OA
ATOM     17  H3  UNL     1      -0.777  -1.339  -2.047  1.00  0.00     0.219 HD
ENDBRANCH   5  16
BRANCH   2  18
HETATM   18  O1  UNL     1       1.173   2.100   1.998  1.00  0.00    -0.345 OA
ATOM     19  H1  UNL     1       0.833   2.642   2.700  1.00  0.00     0.219 HD
ENDBRANCH   2  18
BRANCH   1  20
HETATM   20  N1  UNL     1       2.241   0.411  -0.198  1.00  0.00    -0.318 N 
HETATM   21  C5  UNL     1       2.702   0.917  -1.460  1.00  0.00     0.172 C 
BRANCH  20  22
HETATM   22  C4  UNL     1       3.099  -0.249   0.737  1.00  0.00     0.170 C 
BRANCH  22  23
HETATM   23  C3  UNL     1       3.593  -1.577   0.308  1.00  0.00    -0.010 C 
HETATM   24  C2  UNL     1       4.887  -1.782   0.192  1.00  0.00    -0.033 C 
HETATM   25  C1  UNL     1       5.864  -0.715   0.480  1.00  0.00     0.036 C 
ENDBRANCH  22  23
ENDBRANCH  20  22
ENDBRANCH   1  20
TORSDOF 7
