REMARK  6 active torsions:
REMARK  status: ('A' for Active; 'I' for Inactive)
REMARK    1  A    between atoms: C2_2  and  N1_3 
REMARK    2  A    between atoms: C6_11  and  O1_12 
REMARK    3  A    between atoms: O1_12  and  C7_13 
REMARK    4  A    between atoms: C7_13  and  C8_14 
REMARK    5  A    between atoms: C8_14  and  C9_15 
REMARK    6  A    between atoms: C9_15  and  N3_16 
ROOT
HETATM    1  N1  UNL     1       3.678   0.193   0.037  1.00  0.00    -0.290 N 
HETATM    2  C3  UNL     1       3.180   1.255  -0.620  1.00  0.00     0.181 A 
HETATM    3  S1  UNL     1       4.210   2.086  -1.586  1.00  0.00    -0.040 SA
HETATM    4  N2  UNL     1       1.902   1.654  -0.519  1.00  0.00    -0.331 N 
ATOM      5  H2  UNL     1       1.589   2.469  -1.046  1.00  0.00     0.168 HD
HETATM    6  C4  UNL     1       1.014   0.988   0.276  1.00  0.00     0.076 A 
HETATM    7  C5  UNL     1      -0.294   1.404   0.372  1.00  0.00     0.097 A 
HETATM    8 CL1  UNL     1      -0.843   2.808  -0.531  1.00  0.00    -0.079 Cl
HETATM    9  C6  UNL     1      -1.186   0.698   1.198  1.00  0.00     0.116 A 
HETATM   10  C10 UNL     1      -0.685  -0.375   1.864  1.00  0.00     0.091 A 
HETATM   11 CL2  UNL     1      -1.700  -1.307   2.951  1.00  0.00    -0.079 Cl
HETATM   12  C11 UNL     1       0.637  -0.786   1.758  1.00  0.00     0.076 A 
HETATM   13 CL3  UNL     1       1.216  -2.166   2.634  1.00  0.00    -0.081 Cl
HETATM   14  C12 UNL     1       1.506  -0.105   0.958  1.00  0.00     0.084 A 
HETATM   15  C13 UNL     1       2.842  -0.493   0.831  1.00  0.00     0.264 A 
HETATM   16  O2  UNL     1       3.254  -1.497   1.470  1.00  0.00    -0.267 OA
ENDROOT
BRANCH   9  17
HETATM   17  O1  UNL     1      -2.468   1.106   1.295  1.00  0.00    -0.347 OA
BRANCH  17  18
HETATM   18  C7  UNL     1      -3.585   0.836   0.538  1.00  0.00     0.177 C 
BRANCH  18  19
HETATM   19  C8  UNL     1      -4.043  -0.593   0.444  1.00  0.00     0.054 C 
BRANCH  19  20
HETATM   20  C9  UNL     1      -5.259  -0.673  -0.475  1.00  0.00     0.231 C 
BRANCH  20  21
HETATM   21  N3  UNL     1      -4.973  -0.212  -1.793  1.00  0.00    -0.079 N 
ATOM     22  H33 UNL     1      -4.585   0.731  -1.777  1.00  0.00     0.274 HD
ATOM     23  H32 UNL     1      -4.177  -0.709  -2.192  1.00  0.00     0.274 HD
ATOM     24  H31 UNL     1      -5.786  -0.265  -2.407  1.00  0.00     0.274 HD
ENDBRANCH  20  21
ENDBRANCH  19  20
ENDBRANCH  18  19
ENDBRANCH  17  18
ENDBRANCH   9  17
BRANCH   1  25
HETATM   25  C2  UNL     1       5.084  -0.197  -0.111  1.00  0.00     0.130 C 
HETATM   26  C1  UNL     1       5.259  -1.170  -1.246  1.00  0.00     0.027 C 
ENDBRANCH   1  25
TORSDOF 6
