REMARK  8 active torsions:
REMARK  status: ('A' for Active; 'I' for Inactive)
REMARK    1  A    between atoms: N1_1  and  C1_5 
REMARK    2  A    between atoms: C1_5  and  C2_6 
REMARK    3  A    between atoms: C2_6  and  C3_7 
REMARK    4  A    between atoms: C3_7  and  N2_8 
REMARK    5  A    between atoms: N2_8  and  C4_10 
REMARK    6  A    between atoms: C4_10  and  C5_11 
REMARK    7  A    between atoms: C5_11  and  N3_12 
REMARK    8  A    between atoms: N3_12  and  C6_14 
ROOT
HETATM    1  C6  UNL     1      -1.896   0.198   0.060  1.00  0.00     0.681 A 
HETATM    2  N4  UNL     1      -2.443  -0.415   1.111  1.00  0.00    -0.154 N 
ATOM      3  H4  UNL     1      -1.814  -0.737   1.847  1.00  0.00     0.187 HD
HETATM    4  C7  UNL     1      -3.769  -0.643   1.278  1.00  0.00     0.288 A 
HETATM    5  O1  UNL     1      -4.199  -1.229   2.299  1.00  0.00    -0.265 OA
HETATM    6  C8  UNL     1      -4.601  -0.194   0.264  1.00  0.00     0.129 A 
HETATM    7  N5  UNL     1      -5.935  -0.258   0.110  1.00  0.00    -0.360 N 
ATOM      8  H5  UNL     1      -6.567  -0.684   0.788  1.00  0.00     0.165 HD
HETATM    9  C9  UNL     1      -6.336   0.302  -1.034  1.00  0.00     0.091 A 
HETATM   10  C10 UNL     1      -5.176   0.747  -1.639  1.00  0.00     0.049 A 
HETATM   11  C11 UNL     1      -4.076   0.445  -0.838  1.00  0.00     0.082 A 
HETATM   12  N6  UNL     1      -2.767   0.625  -0.919  1.00  0.00    -0.189 N 
ATOM     13  H6  UNL     1      -2.388   1.099  -1.739  1.00  0.00     0.184 HD
ENDROOT
BRANCH   1  14
HETATM   14  N3  UNL     1      -0.641   0.379  -0.138  1.00  0.00    -0.224 N 
ATOM     15  H3  UNL     1      -0.366   0.872  -0.987  1.00  0.00     0.177 HD
BRANCH  14  16
HETATM   16  C5  UNL     1       0.397  -0.054   0.733  1.00  0.00     0.157 C 
BRANCH  16  17
HETATM   17  C4  UNL     1       1.502  -0.776  -0.083  1.00  0.00     0.139 C 
BRANCH  17  18
HETATM   18  N2  UNL     1       2.117   0.073  -1.009  1.00  0.00    -0.401 N 
ATOM     19  H2  UNL     1       1.910  -0.045  -2.001  1.00  0.00     0.158 HD
BRANCH  18  20
HETATM   20  C3  UNL     1       3.008   1.080  -0.617  1.00  0.00     0.057 C 
BRANCH  20  21
HETATM   21  C2  UNL     1       4.395   0.701  -0.270  1.00  0.00     0.071 C 
BRANCH  21  22
HETATM   22  C1  UNL     1       4.602  -0.292   0.802  1.00  0.00     0.234 C 
BRANCH  22  23
HETATM   23  N1  UNL     1       6.058  -0.469   0.993  1.00  0.00    -0.079 N 
ATOM     24  H13 UNL     1       6.541  -0.716   0.129  1.00  0.00     0.274 HD
ATOM     25  H12 UNL     1       6.541   0.411   1.174  1.00  0.00     0.274 HD
ATOM     26  H11 UNL     1       6.201  -1.155   1.734  1.00  0.00     0.274 HD
ENDBRANCH  22  23
ENDBRANCH  21  22
ENDBRANCH  20  21
ENDBRANCH  18  20
ENDBRANCH  17  18
ENDBRANCH  16  17
ENDBRANCH  14  16
ENDBRANCH   1  14
TORSDOF 8
