REMARK  7 active torsions:
REMARK  status: ('A' for Active; 'I' for Inactive)
REMARK    1  A    between atoms: N1_2  and  C2_4 
REMARK    2  A    between atoms: C3_5  and  N2_6 
REMARK    3  A    between atoms: N2_6  and  N3_7 
REMARK    4  A    between atoms: C5_16  and  N7_17 
REMARK    5  A    between atoms: N7_17  and  O1_18 
REMARK    6  A    between atoms: C7_20  and  C8_21 
REMARK    7  A    between atoms: C8_21  and  N8_22 
ROOT
HETATM    1  C2  UNL     1      -1.037  -0.839  -0.581  1.00  0.00     0.125 C 
HETATM    2  C3  UNL     1      -1.689   0.487  -0.596  1.00  0.00     0.221 C 
HETATM    3  N4  UNL     1      -1.388   1.246   0.640  1.00  0.00    -0.343 N 
ATOM      4  H4  UNL     1      -2.157   1.741   1.092  1.00  0.00     0.164 HD
HETATM    5  C4  UNL     1      -0.089   1.333   1.246  1.00  0.00     0.186 C 
HETATM    6  N5  UNL     1       0.008   1.826   2.568  1.00  0.00    -0.064 NA
HETATM    7  N6  UNL     1       1.007   0.972   0.618  1.00  0.00    -0.344 N 
ATOM      8  H6  UNL     1       1.878   1.074   1.139  1.00  0.00     0.164 HD
HETATM    9  C5  UNL     1       1.126   0.447  -0.725  1.00  0.00     0.213 C 
HETATM   10  C7  UNL     1       0.421  -0.815  -1.005  1.00  0.00     0.077 C 
ENDROOT
BRANCH  10  11
HETATM   11  C8  UNL     1       1.083  -1.957  -0.275  1.00  0.00     0.239 C 
BRANCH  11  12
HETATM   12  N8  UNL     1       2.474  -2.129  -0.539  1.00  0.00    -0.079 N 
ATOM     13  H83 UNL     1       2.631  -2.218  -1.543  1.00  0.00     0.274 HD
ATOM     14  H82 UNL     1       2.975  -1.260  -0.355  1.00  0.00     0.274 HD
ATOM     15  H81 UNL     1       2.922  -2.901  -0.045  1.00  0.00     0.274 HD
ENDBRANCH  11  12
ENDBRANCH  10  11
BRANCH   1  16
HETATM   16  N1  UNL     1      -1.247  -1.625   0.570  1.00  0.00    -0.417 N 
HETATM   17  C1  UNL     1      -2.555  -2.125   0.854  1.00  0.00     0.140 C 
ATOM     18  H1  UNL     1      -0.470  -1.836   1.196  1.00  0.00     0.153 HD
ENDBRANCH   1  16
BRANCH   9  19
HETATM   19  N7  UNL     1       2.524   0.331  -1.077  1.00  0.00    -0.075 NA
BRANCH  19  20
HETATM   20  O1  UNL     1       3.079   1.569  -0.995  1.00  0.00    -0.289 OA
HETATM   21  C6  UNL     1       4.035   1.656  -0.001  1.00  0.00     0.231 C 
ENDBRANCH  19  20
ENDBRANCH   9  19
BRANCH   2  22
HETATM   22  N2  UNL     1      -3.117   0.391  -0.673  1.00  0.00    -0.120 NA
BRANCH  22  23
HETATM   23  N3  UNL     1      -3.698   1.652  -0.975  1.00  0.00    -0.346 N 
ATOM     24  H32 UNL     1      -3.156   2.505  -1.116  1.00  0.00     0.172 HD
ATOM     25  H31 UNL     1      -4.714   1.584  -1.030  1.00  0.00     0.172 HD
ENDBRANCH  22  23
ENDBRANCH   2  22
TORSDOF 7
