REMARK  11 active torsions:
REMARK  status: ('A' for Active; 'I' for Inactive)
REMARK    1  A    between atoms: C2_2  and  C3_3 
REMARK    2  A    between atoms: C3_3  and  C4_4 
REMARK    3  A    between atoms: C4_4  and  N1_5 
REMARK       I    between atoms: N1_5  and  C5_7 
REMARK    4  A    between atoms: C5_7  and  C6_9 
REMARK    5  A    between atoms: C6_9  and  N2_10 
REMARK    6  A    between atoms: N3_13  and  C8_14 
REMARK    7  A    between atoms: C8_14  and  C9_15 
REMARK    8  A    between atoms: C10_16  and  C11_17 
REMARK    9  A    between atoms: C11_17  and  N5_19 
REMARK   10  A    between atoms: N8_26  and  C13_27 
REMARK   11  A    between atoms: C17_43  and  N14_44 
ROOT
HETATM    1  N2  UNL     1       0.583  -0.328  -2.028  1.00  0.00    -0.284 N 
HETATM    2  C7  UNL     1      -0.352   0.567  -1.580  1.00  0.00     0.331 A 
HETATM    3  O2  UNL     1      -0.085   1.801  -1.445  1.00  0.00    -0.246 OA
HETATM    4  N3  UNL     1      -1.510  -0.025  -1.325  1.00  0.00    -0.277 N 
HETATM    5  C15 UNL     1      -1.283  -1.344  -1.629  1.00  0.00     0.144 A 
HETATM    6  N12 UNL     1      -2.080  -2.413  -1.596  1.00  0.00    -0.336 N 
ATOM      7  H12 UNL     1      -3.044  -2.304  -1.280  1.00  0.00     0.168 HD
HETATM    8  C16 UNL     1      -1.652  -3.617  -1.964  1.00  0.00     0.183 A 
HETATM    9  N13 UNL     1      -0.372  -3.819  -2.394  1.00  0.00    -0.337 N 
ATOM     10  H13 UNL     1      -0.064  -4.752  -2.670  1.00  0.00     0.168 HD
HETATM   11  C17 UNL     1       0.474  -2.789  -2.451  1.00  0.00     0.131 A 
HETATM   12  C18 UNL     1       0.011  -1.540  -2.065  1.00  0.00     0.128 A 
ENDROOT
BRANCH   4  13
HETATM   13  C8  UNL     1      -2.822   0.443  -0.929  1.00  0.00     0.197 C 
BRANCH  13  14
HETATM   14  C9  UNL     1      -3.015   0.796   0.473  1.00  0.00     0.087 A 
HETATM   15  C10 UNL     1      -2.844   2.061   0.984  1.00  0.00     0.116 A 
HETATM   16  N6  UNL     1      -3.011   1.919   2.342  1.00  0.00    -0.281 N 
HETATM   17  N7  UNL     1      -3.266   0.676   2.604  1.00  0.00    -0.234 N 
ATOM     18  H6  UNL     1      -2.945   2.669   3.030  1.00  0.00     0.188 HD
HETATM   19  N8  UNL     1      -3.280  -0.053   1.478  1.00  0.00    -0.221 N 
ATOM     20  H7  UNL     1      -3.433   0.303   3.538  1.00  0.00     0.209 HD
BRANCH  15  21
HETATM   21  C11 UNL     1      -2.692   3.388   0.405  1.00  0.00     0.142 C 
HETATM   22  N4  UNL     1      -2.470   4.529   1.235  1.00  0.00    -0.081 NA
BRANCH  21  23
HETATM   23  N5  UNL     1      -2.737   3.658  -0.852  1.00  0.00    -0.381 N 
HETATM   24  C12 UNL     1      -2.590   4.953  -1.440  1.00  0.00     0.147 C 
ATOM     25  H5  UNL     1      -2.892   2.876  -1.488  1.00  0.00     0.160 HD
ENDBRANCH  21  23
ENDBRANCH  15  21
BRANCH  19  26
HETATM   26  C13 UNL     1      -3.573  -1.451   1.517  1.00  0.00     0.196 A 
HETATM   27  N9  UNL     1      -4.640  -2.094   1.013  1.00  0.00    -0.220 N 
HETATM   28  O3  UNL     1      -4.512  -3.354   1.278  1.00  0.00    -0.153 OA
ATOM     29  H9  UNL     1      -5.416  -1.664   0.509  1.00  0.00     0.198 HD
HETATM   30  N10 UNL     1      -3.416  -3.586   1.932  1.00  0.00    -0.222 N 
HETATM   31  C14 UNL     1      -2.788  -2.413   2.107  1.00  0.00     0.169 A 
ATOM     32  H10 UNL     1      -3.090  -4.497   2.255  1.00  0.00     0.198 HD
HETATM   33  N11 UNL     1      -1.660  -2.273   2.723  1.00  0.00    -0.381 N 
ATOM     34 2H11 UNL     1      -1.183  -1.381   2.856  1.00  0.00     0.157 HD
ATOM     35 1H11 UNL     1      -1.078  -2.987   3.161  1.00  0.00     0.157 HD
ENDBRANCH  19  26
ENDBRANCH  13  14
ENDBRANCH   4  13
BRANCH   1  36
HETATM   36  C6  UNL     1       1.940   0.017  -2.382  1.00  0.00     0.237 C 
BRANCH  36  37
HETATM   37  C5  UNL     1       2.858  -0.107  -1.184  1.00  0.00     0.239 C 
HETATM   38  N1  UNL     1       2.433  -0.490   0.057  1.00  0.00    -0.336 N 
ATOM     39  H1  UNL     1       1.436  -0.698   0.108  1.00  0.00     0.168 HD
HETATM   40  O1  UNL     1       4.033   0.181  -1.470  1.00  0.00    -0.271 OA
BRANCH  38  41
HETATM   41  C4  UNL     1       3.111  -0.650   1.270  1.00  0.00     0.087 C 
BRANCH  41  42
HETATM   42  C3  UNL     1       3.755   0.449   1.989  1.00  0.00    -0.010 C 
BRANCH  42  43
HETATM   43  C2  UNL     1       4.925   1.173   1.438  1.00  0.00     0.024 C 
HETATM   44  C1  UNL     1       6.137   0.276   1.251  1.00  0.00     0.009 C 
ENDBRANCH  42  43
ENDBRANCH  41  42
ENDBRANCH  38  41
ENDBRANCH  36  37
ENDBRANCH   1  36
BRANCH  11  45
HETATM   45  N14 UNL     1       1.674  -2.956  -2.848  1.00  0.00    -0.383 N 
ATOM     46 2H14 UNL     1       2.015  -3.875  -3.132  1.00  0.00     0.157 HD
ATOM     47 1H14 UNL     1       2.321  -2.169  -2.892  1.00  0.00     0.157 HD
ENDBRANCH  11  45
TORSDOF 11
