REMARK  4 active torsions:
REMARK  status: ('A' for Active; 'I' for Inactive)
REMARK    1  A    between atoms: C2_2  and  O1_4 
REMARK    2  A    between atoms: O1_4  and  C4_5 
REMARK    3  A    between atoms: C8_11  and  N2_12 
REMARK    4  A    between atoms: C10_16  and  C11_17 
ROOT
HETATM    1  C4  UNL     1       3.636  -0.058   0.287  1.00  0.00     0.110 A 
HETATM    2  C5  UNL     1       2.645   0.201  -0.675  1.00  0.00     0.070 A 
HETATM    3  C6  UNL     1       1.308   0.132  -0.427  1.00  0.00     0.045 A 
HETATM    4  N1  UNL     1       0.363   0.378  -1.354  1.00  0.00    -0.352 N 
ATOM      5  H1  UNL     1       0.647   0.634  -2.300  1.00  0.00     0.166 HD
HETATM    6  C7  UNL     1      -0.945   0.294  -1.062  1.00  0.00     0.086 A 
HETATM    7  C8  UNL     1      -1.894   0.553  -2.041  1.00  0.00     0.057 A 
HETATM    8  C9  UNL     1      -3.220   0.453  -1.697  1.00  0.00     0.057 A 
HETATM    9  C10 UNL     1      -3.654   0.113  -0.443  1.00  0.00     0.019 A 
HETATM   10  N3  UNL     1      -2.705  -0.133   0.486  1.00  0.00    -0.357 N 
ATOM     11  H3  UNL     1      -2.993  -0.390   1.430  1.00  0.00     0.166 HD
HETATM   12  C15 UNL     1      -1.394  -0.050   0.205  1.00  0.00     0.062 A 
HETATM   13  C16 UNL     1      -0.414  -0.299   1.140  1.00  0.00     0.045 A 
HETATM   14  C17 UNL     1       0.929  -0.218   0.861  1.00  0.00    -0.004 A 
HETATM   15  C18 UNL     1       1.875  -0.475   1.818  1.00  0.00     0.059 A 
HETATM   16  C19 UNL     1       3.244  -0.398   1.544  1.00  0.00     0.150 A 
HETATM   17  F1  UNL     1       4.130  -0.671   2.559  1.00  0.00    -0.203 F 
ENDROOT
BRANCH   1  18
HETATM   18  O1  UNL     1       4.913   0.049  -0.099  1.00  0.00    -0.344 OA
BRANCH  18  19
HETATM   19  C2  UNL     1       6.150  -0.098   0.421  1.00  0.00     0.121 C 
HETATM   20  C1  UNL     1       6.896  -1.183  -0.370  1.00  0.00     0.040 C 
HETATM   21  C3  UNL     1       6.991   1.183   0.316  1.00  0.00     0.040 C 
ENDBRANCH  18  19
ENDBRANCH   1  18
BRANCH   7  22
HETATM   22  N2  UNL     1      -1.539   0.874  -3.230  1.00  0.00    -0.397 N 
ATOM     23  H22 UNL     1      -0.554   0.948  -3.485  1.00  0.00     0.156 HD
ATOM     24  H21 UNL     1      -2.236   1.064  -3.950  1.00  0.00     0.156 HD
ENDBRANCH   7  22
BRANCH   9  25
HETATM   25  C11 UNL     1      -5.045  -0.011  -0.004  1.00  0.00    -0.009 C 
HETATM   26  C12 UNL     1      -6.088   0.328  -0.990  1.00  0.00     0.021 C 
HETATM   27  C13 UNL     1      -5.258  -1.430   0.547  1.00  0.00     0.021 C 
HETATM   28  C14 UNL     1      -5.208   0.919   1.198  1.00  0.00     0.021 C 
ENDBRANCH   9  25
TORSDOF 4
