REMARK  5 active torsions:
REMARK  status: ('A' for Active; 'I' for Inactive)
REMARK    1  A    between atoms: O1_2  and  C2_3 
REMARK    2  A    between atoms: C10_14  and  C11_15 
REMARK    3  A    between atoms: C12_16  and  O3_17 
REMARK    4  A    between atoms: O3_17  and  C13_18 
REMARK    5  A    between atoms: C15_21  and  O5_22 
ROOT
HETATM    1  C2  UNL     1      -0.944   0.575  -0.454  1.00  0.00     0.146 C 
HETATM    2  C3  UNL     1      -1.995   0.187   0.538  1.00  0.00    -0.012 C 
HETATM    3  C4  UNL     1      -3.287   0.066  -0.232  1.00  0.00     0.021 C 
HETATM    4  C5  UNL     1      -3.493  -1.271  -0.835  1.00  0.00     0.103 C 
HETATM    5  C6  UNL     1      -2.282  -1.980  -1.296  1.00  0.00     0.217 C 
HETATM    6  O2  UNL     1      -2.624  -2.839  -2.142  1.00  0.00    -0.274 OA
HETATM    7  N1  UNL     1      -0.901  -1.888  -0.994  1.00  0.00    -0.355 N 
ATOM      8  H1  UNL     1      -0.359  -2.182  -1.807  1.00  0.00     0.162 HD
HETATM    9  C7  UNL     1       0.011  -1.516   0.082  1.00  0.00     0.101 C 
HETATM   10  C8  UNL     1      -0.723  -1.887   1.344  1.00  0.00     0.027 C 
HETATM   11  C9  UNL     1      -1.848  -0.920   1.473  1.00  0.00     0.014 C 
HETATM   12  C10 UNL     1       0.305  -0.026   0.121  1.00  0.00     0.052 C 
HETATM   13  C15 UNL     1       0.439   0.570   1.487  1.00  0.00     0.135 C 
HETATM   14  C16 UNL     1      -0.580   1.501   1.979  1.00  0.00     0.034 C 
HETATM   15  C17 UNL     1      -1.987   1.430   1.453  1.00  0.00     0.014 C 
ENDROOT
BRANCH  12  16
HETATM   16  C11 UNL     1       1.498   0.196  -0.729  1.00  0.00     0.015 C 
HETATM   17  C12 UNL     1       2.684  -0.192  -0.348  1.00  0.00     0.142 C 
BRANCH  17  18
HETATM   18  O3  UNL     1       3.829   0.007  -1.135  1.00  0.00    -0.292 OA
BRANCH  18  19
HETATM   19  C13 UNL     1       5.057  -0.412  -0.706  1.00  0.00     0.259 C 
HETATM   20  C14 UNL     1       6.324  -0.248  -1.466  1.00  0.00     0.126 C 
HETATM   21  O4  UNL     1       5.135  -0.983   0.419  1.00  0.00    -0.265 OA
ENDBRANCH  18  19
ENDBRANCH  17  18
ENDBRANCH  12  16
BRANCH   1  22
HETATM   22  O1  UNL     1      -0.735   1.971  -0.512  1.00  0.00    -0.389 OA
HETATM   23  C1  UNL     1      -0.924   2.537  -1.734  1.00  0.00     0.202 C 
ENDBRANCH   1  22
BRANCH  13  24
HETATM   24  O5  UNL     1       1.652   1.324   1.440  1.00  0.00    -0.394 OA
ATOM     25  H5  UNL     1       1.737   1.702   2.307  1.00  0.00     0.210 HD
ENDBRANCH  13  24
TORSDOF 5
