REMARK  7 active torsions:
REMARK  status: ('A' for Active; 'I' for Inactive)
REMARK    1  A    between atoms: N1_1  and  C1_5 
REMARK    2  A    between atoms: C1_5  and  C2_6 
REMARK    3  A    between atoms: C2_6  and  N2_7 
REMARK    4  A    between atoms: N2_7  and  C3_10 
REMARK    5  A    between atoms: N3_13  and  C6_14 
REMARK    6  A    between atoms: C6_14  and  C7_15 
REMARK    7  A    between atoms: C7_15  and  N4_16 
ROOT
HETATM    1  C3  UNL     1      -1.047  -0.292  -0.125  1.00  0.00     0.189 C 
HETATM    2  C4  UNL     1      -0.096  -0.280  -1.304  1.00  0.00     0.063 C 
HETATM    3  C5  UNL     1       1.136   0.547  -0.994  1.00  0.00     0.274 C 
HETATM    4  N3  UNL     1       1.943  -0.020   0.025  1.00  0.00     0.090 N 
HETATM    5  C8  UNL     1       1.124  -0.791   0.927  1.00  0.00     0.274 C 
HETATM    6  C9  UNL     1      -0.211  -0.124   1.127  1.00  0.00     0.063 C 
ENDROOT
BRANCH   1   7
HETATM    7  N2  UNL     1      -1.950   0.831  -0.300  1.00  0.00    -0.069 N 
ATOM      8  H22 UNL     1      -2.287   0.879  -1.262  1.00  0.00     0.277 HD
ATOM      9  H21 UNL     1      -1.442   1.715  -0.256  1.00  0.00     0.277 HD
BRANCH   7  10
HETATM   10  C2  UNL     1      -3.049   0.826   0.627  1.00  0.00     0.260 C 
BRANCH  10  11
HETATM   11  C1  UNL     1      -4.027  -0.290   0.331  1.00  0.00     0.257 C 
BRANCH  11  12
HETATM   12  N1  UNL     1      -5.125  -0.291   1.288  1.00  0.00    -0.078 N 
ATOM     13  H13 UNL     1      -4.786  -0.333   2.249  1.00  0.00     0.274 HD
ATOM     14  H12 UNL     1      -5.590   0.616   1.327  1.00  0.00     0.274 HD
ATOM     15  H11 UNL     1      -5.784  -1.043   1.088  1.00  0.00     0.274 HD
ENDBRANCH  11  12
ENDBRANCH  10  11
ENDBRANCH   7  10
ENDBRANCH   1   7
BRANCH   4  16
HETATM   16  C6  UNL     1       3.091  -0.707  -0.469  1.00  0.00     0.299 C 
BRANCH  16  17
HETATM   17  C7  UNL     1       4.078   0.254  -1.078  1.00  0.00     0.259 C 
BRANCH  17  18
HETATM   18  N4  UNL     1       4.497   1.217  -0.067  1.00  0.00    -0.078 N 
ATOM     19  H43 UNL     1       3.706   1.696   0.363  1.00  0.00     0.274 HD
ATOM     20  H42 UNL     1       4.864   0.764   0.770  1.00  0.00     0.274 HD
ATOM     21  H41 UNL     1       5.165   1.868  -0.479  1.00  0.00     0.274 HD
ENDBRANCH  17  18
ENDBRANCH  16  17
ENDBRANCH   4  16
TORSDOF 7
