REMARK  3 active torsions:
REMARK  status: ('A' for Active; 'I' for Inactive)
REMARK    1  A    between atoms: N1_1  and  C1_4 
REMARK    2  A    between atoms: C3_9  and  C4_10 
REMARK    3  A    between atoms: C6_12  and  O1_13 
ROOT
HETATM    1  C1  UNL     1       5.314   0.026   0.183  1.00  0.00     0.143 A 
HETATM    2  N2  UNL     1       4.344   0.701  -0.436  1.00  0.00    -0.330 N 
ATOM      3  H2  UNL     1       4.555   1.494  -1.042  1.00  0.00     0.168 HD
HETATM    4  C2  UNL     1       3.098   0.305  -0.235  1.00  0.00     0.093 A 
HETATM    5  S1  UNL     1       1.508   0.768  -0.742  1.00  0.00    -0.074 SA
HETATM    6  C3  UNL     1       0.590  -0.415   0.111  1.00  0.00    -0.000 A 
HETATM    7  C9  UNL     1       1.567  -1.123   0.756  1.00  0.00     0.037 A 
HETATM    8  C10 UNL     1       2.841  -0.728   0.557  1.00  0.00     0.043 A 
HETATM    9  S3  UNL     1       4.433  -1.164   1.043  1.00  0.00    -0.052 SA
ENDROOT
BRANCH   6  10
HETATM   10  C4  UNL     1      -0.904  -0.610   0.131  1.00  0.00     0.089 C 
HETATM   11  C5  UNL     1      -1.555   0.615   0.687  1.00  0.00     0.052 C 
HETATM   12  C6  UNL     1      -2.905   0.890   0.056  1.00  0.00     0.120 C 
HETATM   13  C7  UNL     1      -3.710  -0.365  -0.125  1.00  0.00     0.042 C 
HETATM   14  C8  UNL     1      -3.340  -1.119  -1.388  1.00  0.00     0.077 C 
HETATM   15  S2  UNL     1      -1.516  -1.007  -1.529  1.00  0.00    -0.159 SA
BRANCH  12  16
HETATM   16  O1  UNL     1      -3.589   1.748   0.930  1.00  0.00    -0.396 OA
ATOM     17  H1  UNL     1      -4.435   1.920   0.534  1.00  0.00     0.210 HD
ENDBRANCH  12  16
ENDBRANCH   6  10
BRANCH   1  18
HETATM   18  N1  UNL     1       6.613   0.212   0.151  1.00  0.00    -0.380 N 
ATOM     19  H12 UNL     1       7.138   0.921  -0.361  1.00  0.00     0.158 HD
ATOM     20  H11 UNL     1       7.355  -0.304   0.624  1.00  0.00     0.158 HD
ENDBRANCH   1  18
TORSDOF 3
