REMARK  4 active torsions:
REMARK  status: ('A' for Active; 'I' for Inactive)
REMARK    1  A    between atoms: C1_2  and  N1_3 
REMARK    2  A    between atoms: C1_2  and  N3_13 
REMARK    3  A    between atoms: N1_3  and  C2_5 
REMARK    4  A    between atoms: C2_5  and  C3_6 
ROOT
HETATM    1  S1  UNL     1       1.542   2.726  -1.886  1.00  0.00    -0.041 SA
HETATM    2  C1  UNL     1       1.266   1.318  -1.010  1.00  0.00     0.169 C 
ENDROOT
BRANCH   2   3
HETATM    3  N1  UNL     1      -0.074   1.060  -0.722  1.00  0.00    -0.367 N 
ATOM      4  H1  UNL     1      -0.723   1.753  -1.094  1.00  0.00     0.161 HD
BRANCH   3   5
HETATM    5  C2  UNL     1      -0.696   0.006  -0.004  1.00  0.00     0.126 C 
BRANCH   5   6
HETATM    6  C3  UNL     1      -2.210   0.060  -0.055  1.00  0.00     0.006 C 
HETATM    7  C4  UNL     1      -2.743  -1.131   0.738  1.00  0.00     0.025 C 
HETATM    8  C5  UNL     1      -4.245  -1.105   0.515  1.00  0.00     0.114 C 
HETATM    9  N2  UNL     1      -4.781   0.087   1.081  1.00  0.00    -0.421 N 
HETATM   10  C6  UNL     1      -4.249   1.320   0.612  1.00  0.00     0.114 C 
ATOM     11  H2  UNL     1      -5.513   0.058   1.791  1.00  0.00     0.153 HD
HETATM   12  C7  UNL     1      -2.729   1.336   0.554  1.00  0.00     0.025 C 
ENDBRANCH   5   6
ENDBRANCH   3   5
ENDBRANCH   2   3
BRANCH   2  13
HETATM   13  N3  UNL     1       2.428   0.590  -0.684  1.00  0.00    -0.355 N 
HETATM   14  C8  UNL     1       2.373  -0.629   0.055  1.00  0.00     0.152 C 
HETATM   15  C9  UNL     1       3.695  -1.227   0.441  1.00  0.00     0.252 C 
HETATM   16  N4  UNL     1       4.850  -0.447   0.141  1.00  0.00    -0.072 N 
HETATM   17  C10 UNL     1       4.811   0.170  -1.151  1.00  0.00     0.252 C 
ATOM     18  H42 UNL     1       5.011   0.250   0.868  1.00  0.00     0.277 HD
ATOM     19  H41 UNL     1       5.698  -1.004   0.248  1.00  0.00     0.277 HD
HETATM   20  C11 UNL     1       3.695   1.156  -1.158  1.00  0.00     0.152 C 
ENDBRANCH   2  13
TORSDOF 4
