REMARK  13 active torsions:
REMARK  status: ('A' for Active; 'I' for Inactive)
REMARK    1  A    between atoms: C2_2  and  C3_3 
REMARK    2  A    between atoms: C2_2  and  C19_30 
REMARK    3  A    between atoms: C3_3  and  C4_4 
REMARK    4  A    between atoms: C4_4  and  O1_5 
REMARK    5  A    between atoms: C4_4  and  C5_7 
REMARK    6  A    between atoms: C6_8  and  C7_9 
REMARK    7  A    between atoms: C8_11  and  C9_12 
REMARK    8  A    between atoms: C10_13  and  C11_14 
REMARK    9  A    between atoms: C14_17  and  N1_18 
REMARK   10  A    between atoms: C16_22  and  N2_23 
REMARK   11  A    between atoms: C18_27  and  O7_28 
REMARK   12  A    between atoms: C19_30  and  O8_31 
REMARK   13  A    between atoms: C19_30  and  C20_33 
ROOT
HETATM    1  C7  UNL     1      -0.056   2.247  -0.032  1.00  0.00     0.109 A 
HETATM    2  O2  UNL     1      -1.349   2.171   0.115  1.00  0.00    -0.308 OA
HETATM    3  C8  UNL     1      -1.943   3.305   0.224  1.00  0.00     0.079 A 
HETATM    4  C17 UNL     1      -0.911   4.265   0.138  1.00  0.00     0.076 A 
HETATM    5  C18 UNL     1       0.272   3.597  -0.023  1.00  0.00     0.102 A 
ENDROOT
BRANCH   3   6
HETATM    6  C9  UNL     1      -3.358   3.626   0.400  1.00  0.00     0.038 C 
HETATM    7  C10 UNL     1      -4.271   2.735   0.562  1.00  0.00     0.017 C 
BRANCH   7   8
HETATM    8  C11 UNL     1      -4.075   1.301   0.613  1.00  0.00    -0.003 A 
HETATM    9  C12 UNL     1      -4.548   0.532  -0.462  1.00  0.00     0.016 A 
HETATM   10  C13 UNL     1      -4.464  -0.815  -0.490  1.00  0.00     0.037 A 
HETATM   11  C14 UNL     1      -3.899  -1.510   0.558  1.00  0.00     0.105 A 
HETATM   12  C15 UNL     1      -3.436  -0.774   1.613  1.00  0.00     0.073 A 
HETATM   13  C16 UNL     1      -3.521   0.624   1.651  1.00  0.00     0.115 A 
BRANCH  11  14
HETATM   14  N1  UNL     1      -3.805  -2.939   0.532  1.00  0.00    -0.116 N 
HETATM   15  O3  UNL     1      -3.309  -3.588   1.451  1.00  0.00    -0.532 OA
HETATM   16  O4  UNL     1      -4.293  -3.589  -0.565  1.00  0.00    -0.532 OA
ENDBRANCH  11  14
BRANCH  13  17
HETATM   17  N2  UNL     1      -3.088   1.283   2.829  1.00  0.00    -0.115 N 
HETATM   18  O5  UNL     1      -2.186   0.795   3.566  1.00  0.00    -0.532 OA
HETATM   19  O6  UNL     1      -3.604   2.477   3.251  1.00  0.00    -0.532 OA
ENDBRANCH  13  17
ENDBRANCH   7   8
ENDBRANCH   3   6
BRANCH   1  20
HETATM   20  C6  UNL     1       0.871   1.135  -0.179  1.00  0.00     0.038 C 
HETATM   21  C5  UNL     1       0.402  -0.092  -0.161  1.00  0.00     0.007 C 
BRANCH  21  22
HETATM   22  C4  UNL     1       1.225  -1.314  -0.299  1.00  0.00     0.141 C 
BRANCH  22  23
HETATM   23  C3  UNL     1       2.675  -0.892  -0.371  1.00  0.00     0.043 C 
BRANCH  23  24
HETATM   24  C2  UNL     1       3.603  -2.083  -0.422  1.00  0.00     0.020 C 
HETATM   25  C1  UNL     1       3.252  -2.886  -1.658  1.00  0.00     0.013 C 
BRANCH  24  26
HETATM   26  C19 UNL     1       5.047  -1.655  -0.568  1.00  0.00     0.183 C 
BRANCH  26  27
HETATM   27  O8  UNL     1       5.893  -2.753  -0.673  1.00  0.00    -0.388 OA
ATOM     28  H8  UNL     1       6.800  -2.484  -0.765  1.00  0.00     0.210 HD
ENDBRANCH  26  27
BRANCH  26  29
HETATM   29  C20 UNL     1       5.504  -0.798   0.527  1.00  0.00     0.263 C 
HETATM   30  O9  UNL     1       6.477  -1.088   1.177  1.00  0.00    -0.304 OA
ENDBRANCH  26  29
ENDBRANCH  24  26
ENDBRANCH  23  24
ENDBRANCH  22  23
BRANCH  22  31
HETATM   31  O1  UNL     1       1.018  -2.089   0.864  1.00  0.00    -0.392 OA
ATOM     32  H1  UNL     1       0.107  -2.354   0.909  1.00  0.00     0.210 HD
ENDBRANCH  22  31
ENDBRANCH  21  22
ENDBRANCH   1  20
BRANCH   5  33
HETATM   33  O7  UNL     1       1.566   4.131  -0.154  1.00  0.00    -0.358 OA
ATOM     34  H7  UNL     1       1.790   5.054  -0.148  1.00  0.00     0.217 HD
ENDBRANCH   5  33
TORSDOF 13
