REMARK  3 active torsions:
REMARK  status: ('A' for Active; 'I' for Inactive)
REMARK    1  A    between atoms: C1_2  and  C2_4 
REMARK    2  A    between atoms: C2_4  and  C3_5 
REMARK    3  A    between atoms: C3_5  and  C4_6 
ROOT
HETATM    1  C4  UNL     1       1.136   0.236  -0.645  1.00  0.00     0.010 C 
HETATM    2  C5  UNL     1       0.752  -1.235  -0.220  1.00  0.00     0.007 C 
HETATM    3  C6  UNL     1      -0.642  -1.433  -0.138  1.00  0.00     0.000 C 
HETATM    4  C7  UNL     1      -1.810  -2.047   0.387  1.00  0.00     0.000 C 
HETATM    5  C8  UNL     1      -3.001  -1.080   0.044  1.00  0.00     0.000 C 
HETATM    6  C9  UNL     1      -3.082   0.149   0.830  1.00  0.00     0.005 C 
HETATM    7  C10 UNL     1      -3.199   1.512   0.124  1.00  0.00     0.066 C 
HETATM    8  C11 UNL     1      -1.966   2.136  -0.282  1.00  0.00     0.306 C 
HETATM    9  F1  UNL     1      -1.549   2.099   1.064  1.00  0.00    -0.220 F 
HETATM   10  O3  UNL     1      -0.669   2.231  -0.608  1.00  0.00    -0.356 OA
HETATM   11  C12 UNL     1       0.130   1.184  -0.372  1.00  0.00     0.176 C 
ENDROOT
BRANCH   1  12
HETATM   12  C3  UNL     1       2.413   0.593   0.129  1.00  0.00     0.017 C 
BRANCH  12  13
HETATM   13  C2  UNL     1       3.509  -0.374  -0.233  1.00  0.00     0.113 C 
BRANCH  13  14
HETATM   14  C1  UNL     1       4.734  -0.011   0.525  1.00  0.00     0.172 C 
HETATM   15  O1  UNL     1       4.867  -0.294   1.741  1.00  0.00    -0.648 OA
HETATM   16  O2  UNL     1       5.786   0.660  -0.093  1.00  0.00    -0.648 OA
ENDBRANCH  13  14
ENDBRANCH  12  13
ENDBRANCH   1  12
TORSDOF 3
