REMARK  9 active torsions:
REMARK  status: ('A' for Active; 'I' for Inactive)
REMARK    1  A    between atoms: N1_3  and  C3_4 
REMARK    2  A    between atoms: N1_3  and  C7_12 
REMARK    3  A    between atoms: C3_4  and  C4_5 
REMARK    4  A    between atoms: C4_5  and  C5_6 
REMARK    5  A    between atoms: C5_6  and  C6_7 
REMARK    6  A    between atoms: C6_7  and  N2_8 
REMARK    7  A    between atoms: C7_12  and  C8_13 
REMARK    8  A    between atoms: C13_19  and  C14_20 
REMARK    9  A    between atoms: C16_22  and  C17_23 
ROOT
HETATM    1  C1  UNL     1       1.872  -3.514   0.245  1.00  0.00     0.116 C 
HETATM    2  C2  UNL     1       1.649  -2.321   0.423  1.00  0.00    -0.102 C 
HETATM    3  N1  UNL     1       1.426  -0.923   0.626  1.00  0.00    -0.254 NA
ENDROOT
BRANCH   3   4
HETATM    4  C3  UNL     1       2.743  -0.264   0.607  1.00  0.00     0.104 C 
BRANCH   4   5
HETATM    5  C4  UNL     1       3.624  -0.689  -0.507  1.00  0.00     0.017 C 
BRANCH   5   6
HETATM    6  C5  UNL     1       4.974   0.020  -0.469  1.00  0.00     0.028 C 
BRANCH   6   7
HETATM    7  C6  UNL     1       4.834   1.527  -0.558  1.00  0.00     0.229 C 
BRANCH   7   8
HETATM    8  N2  UNL     1       6.129   2.167  -0.530  1.00  0.00    -0.079 N 
ATOM      9  H23 UNL     1       6.671   1.886   0.288  1.00  0.00     0.274 HD
ATOM     10  H22 UNL     1       6.746   1.802  -1.256  1.00  0.00     0.274 HD
ATOM     11  H21 UNL     1       6.035   3.181  -0.590  1.00  0.00     0.274 HD
ENDBRANCH   7   8
ENDBRANCH   6   7
ENDBRANCH   5   6
ENDBRANCH   4   5
ENDBRANCH   3   4
BRANCH   3  12
HETATM   12  C7  UNL     1       0.741  -0.435  -0.535  1.00  0.00     0.109 C 
BRANCH  12  13
HETATM   13  C8  UNL     1      -0.711  -0.602  -0.607  1.00  0.00     0.014 C 
HETATM   14  C9  UNL     1      -1.312  -1.952  -0.536  1.00  0.00     0.014 C 
HETATM   15  C10 UNL     1      -2.795  -1.587  -0.444  1.00  0.00     0.023 C 
HETATM   16  C11 UNL     1      -3.369  -1.506  -1.818  1.00  0.00     0.034 C 
HETATM   17  C13 UNL     1      -2.872  -0.170   0.090  1.00  0.00     0.074 C 
HETATM   18  C12 UNL     1      -3.803  -0.067  -1.944  1.00  0.00     0.169 C 
HETATM   19  O1  UNL     1      -3.153   0.653  -0.957  1.00  0.00    -0.379 OA
HETATM   20  C16 UNL     1      -1.449   0.113   0.556  1.00  0.00     0.090 C 
BRANCH  17  21
HETATM   21  C14 UNL     1      -3.907  -0.052   1.162  1.00  0.00     0.035 C 
HETATM   22  C15 UNL     1      -4.088   1.315   1.742  1.00  0.00     0.008 C 
ENDBRANCH  17  21
BRANCH  20  23
HETATM   23  C17 UNL     1      -1.106   1.546   0.538  1.00  0.00     0.094 C 
HETATM   24  N3  UNL     1      -1.030   2.163  -0.598  1.00  0.00    -0.391 N 
ATOM     25  H32 UNL     1      -1.198   1.674  -1.477  1.00  0.00     0.157 HD
ATOM     26  H31 UNL     1      -0.793   3.155  -0.610  1.00  0.00     0.157 HD
HETATM   27  N4  UNL     1      -0.873   2.226   1.760  1.00  0.00    -0.088 NA
ENDBRANCH  20  23
ENDBRANCH  12  13
ENDBRANCH   3  12
TORSDOF 9
