REMARK  7 active torsions:
REMARK  status: ('A' for Active; 'I' for Inactive)
REMARK    1  A    between atoms: C2_2  and  O2_4 
REMARK    2  A    between atoms: O2_4  and  C3_5 
REMARK    3  A    between atoms: C5_7  and  C6_8 
REMARK    4  A    between atoms: C6_8  and  O3_9 
REMARK    5  A    between atoms: C7_11  and  O4_12 
REMARK    6  A    between atoms: C11_18  and  N2_19 
REMARK    7  A    between atoms: N2_19  and  C12_21 
ROOT
HETATM    1  C3  UNL     1      -0.665   1.043   0.332  1.00  0.00     0.168 C 
HETATM    2  C4  UNL     1      -1.317   0.372   1.533  1.00  0.00     0.046 C 
HETATM    3  C5  UNL     1      -2.434  -0.550   1.102  1.00  0.00     0.071 C 
HETATM    4  C7  UNL     1      -1.894  -1.515   0.117  1.00  0.00     0.363 C 
HETATM    5  N1  UNL     1      -0.585  -1.308  -0.352  1.00  0.00     0.126 N 
HETATM    6  C8  UNL     1      -0.252  -2.172  -1.458  1.00  0.00     0.276 C 
HETATM    7  C9  UNL     1       1.227  -2.175  -1.774  1.00  0.00     0.032 C 
HETATM    8  C10 UNL     1       1.779  -0.766  -1.858  1.00  0.00     0.029 C 
HETATM    9  C11 UNL     1       1.385  -0.069  -0.599  1.00  0.00     0.113 C 
HETATM   10  C15 UNL     1      -0.153   0.014  -0.644  1.00  0.00     0.277 C 
ENDROOT
BRANCH   9  11
HETATM   11  N2  UNL     1       2.033   1.104  -0.237  1.00  0.00    -0.411 N 
ATOM     12  H2  UNL     1       1.570   2.012  -0.271  1.00  0.00     0.154 HD
BRANCH  11  13
HETATM   13  C12 UNL     1       3.382   0.959   0.184  1.00  0.00     0.077 A 
HETATM   14  C13 UNL     1       3.719   0.253   1.454  1.00  0.00     0.027 A 
HETATM   15  C14 UNL     1       4.097  -0.312   0.118  1.00  0.00     0.027 A 
ENDBRANCH  11  13
ENDBRANCH   9  11
BRANCH   1  16
HETATM   16  O2  UNL     1      -1.493   1.994  -0.257  1.00  0.00    -0.314 OA
BRANCH  16  17
HETATM   17  C2  UNL     1      -1.279   3.344  -0.332  1.00  0.00     0.255 C 
HETATM   18  C1  UNL     1      -2.186   4.327  -0.967  1.00  0.00     0.126 C 
HETATM   19  O1  UNL     1      -0.233   3.792   0.177  1.00  0.00    -0.266 OA
ENDBRANCH  16  17
ENDBRANCH   1  16
BRANCH   4  20
HETATM   20  O4  UNL     1      -2.785  -1.599  -0.974  1.00  0.00    -0.367 OA
ATOM     21  H4  UNL     1      -2.439  -2.218  -1.606  1.00  0.00     0.212 HD
ENDBRANCH   4  20
BRANCH   3  22
HETATM   22  C6  UNL     1      -2.967  -1.241   2.329  1.00  0.00     0.173 C 
BRANCH  22  23
HETATM   23  O3  UNL     1      -1.893  -1.952   2.880  1.00  0.00    -0.400 OA
ATOM     24  H3  UNL     1      -2.229  -2.388   3.654  1.00  0.00     0.209 HD
ENDBRANCH  22  23
ENDBRANCH   3  22
TORSDOF 7
