REMARK  3 active torsions:
REMARK  status: ('A' for Active; 'I' for Inactive)
REMARK    1  A    between atoms: C3_3  and  O1_4 
REMARK    2  A    between atoms: C3_3  and  C4_6 
REMARK    3  A    between atoms: C4_6  and  N1_7 
ROOT
HETATM    1  C1  UNL     1       1.040  -1.557   1.050  1.00  0.00     0.043 C 
HETATM    2  C2  UNL     1       1.403  -0.118   0.804  1.00  0.00     0.224 C 
HETATM    3  C3  UNL     1       0.213   0.704   0.291  1.00  0.00     0.134 C 
HETATM    4  C10 UNL     1       0.817   0.395  -1.037  1.00  0.00     0.279 C 
HETATM    5  N2  UNL     1       2.097   0.104  -0.416  1.00  0.00    -0.057 N 
HETATM    6  C11 UNL     1       3.049   1.192  -0.432  1.00  0.00     0.238 C 
HETATM    7  C12 UNL     1       4.263   0.541   0.229  1.00  0.00     0.029 C 
HETATM    8  C13 UNL     1       4.164  -0.885  -0.231  1.00  0.00     0.029 C 
HETATM    9  C14 UNL     1       2.851  -0.962  -0.978  1.00  0.00     0.238 C 
ENDROOT
BRANCH   3  10
HETATM   10  O1  UNL     1       0.364   2.011   0.742  1.00  0.00    -0.384 OA
ATOM     11  H1  UNL     1      -0.373   2.520   0.424  1.00  0.00     0.210 HD
ENDBRANCH   3  10
BRANCH   3  12
HETATM   12  C4  UNL     1      -1.041   0.043   0.681  1.00  0.00     0.278 C 
BRANCH  12  13
HETATM   13  N1  UNL     1      -2.262   0.624   0.261  1.00  0.00    -0.064 N 
HETATM   14  C5  UNL     1      -2.334   2.055   0.360  1.00  0.00     0.272 C 
HETATM   15  C6  UNL     1      -2.593   0.260  -1.101  1.00  0.00     0.263 C 
HETATM   16  C7  UNL     1      -3.013  -1.172  -1.237  1.00  0.00     0.195 C 
HETATM   17  O2  UNL     1      -4.103  -1.426  -0.384  1.00  0.00    -0.388 OA
HETATM   18  C8  UNL     1      -3.601  -1.325   0.918  1.00  0.00     0.195 C 
HETATM   19  C9  UNL     1      -3.310   0.129   1.173  1.00  0.00     0.263 C 
ENDBRANCH  12  13
ENDBRANCH   3  12
TORSDOF 3
