REMARK  1 active torsions:
REMARK  status: ('A' for Active; 'I' for Inactive)
REMARK    1  A    between atoms: C5_9  and  C6_10 
ROOT
HETATM    1  C1  UNL     1      -2.861  -1.548   0.697  1.00  0.00     0.039 C 
HETATM    2  C2  UNL     1      -2.869  -0.046   0.572  1.00  0.00     0.046 C 
HETATM    3  C3  UNL     1      -4.252   0.532   0.473  1.00  0.00     0.039 C 
HETATM    4  N1  UNL     1      -2.064   0.600   1.592  1.00  0.00    -0.364 N 
ATOM      5  H1  UNL     1      -2.415   1.045   2.440  1.00  0.00     0.162 HD
HETATM    6  C4  UNL     1      -0.681   0.503   1.196  1.00  0.00     0.128 A 
HETATM    7  N2  UNL     1       0.599   0.504   1.577  1.00  0.00    -0.326 N 
ATOM      8  H2  UNL     1       0.918   0.612   2.540  1.00  0.00     0.169 HD
HETATM    9  C5  UNL     1       1.407   0.344   0.518  1.00  0.00     0.126 A 
HETATM   10  N4  UNL     1       0.604   0.243  -0.534  1.00  0.00    -0.340 N 
ATOM     11  H4  UNL     1       0.925   0.113  -1.493  1.00  0.00     0.167 HD
HETATM   12  C10 UNL     1      -0.696   0.335  -0.168  1.00  0.00     0.075 A 
HETATM   13  C11 UNL     1      -2.112   0.323  -0.680  1.00  0.00     0.173 C 
HETATM   14  C12 UNL     1      -2.192  -0.722  -1.694  1.00  0.00     0.072 C 
HETATM   15  N5  UNL     1      -2.245  -1.565  -2.488  1.00  0.00    -0.196 NA
ENDROOT
BRANCH   9  16
HETATM   16  C6  UNL     1       2.880   0.307   0.637  1.00  0.00     0.073 A 
HETATM   17  S1  UNL     1       3.831   0.448   2.059  1.00  0.00    -0.096 SA
HETATM   18  C7  UNL     1       5.381   0.308   1.370  1.00  0.00     0.052 A 
HETATM   19  C8  UNL     1       5.118   0.152   0.034  1.00  0.00     0.035 A 
HETATM   20  C9  UNL     1       3.817   0.153  -0.334  1.00  0.00     0.067 A 
HETATM   21  N3  UNL     1       3.460  -0.008  -1.741  1.00  0.00    -0.101 NA
ENDBRANCH   9  16
TORSDOF 1
