REMARK  9 active torsions:
REMARK  status: ('A' for Active; 'I' for Inactive)
REMARK    1  A    between atoms: C8_8  and  O1_9 
REMARK    2  A    between atoms: C9_11  and  C10_12 
REMARK    3  A    between atoms: C10_12  and  O2_13 
REMARK    4  A    between atoms: C10_12  and  C15_31 
REMARK    5  A    between atoms: O2_13  and  C11_14 
REMARK    6  A    between atoms: C11_14  and  C12_16 
REMARK    7  A    between atoms: C12_16  and  C13_21 
REMARK    8  A    between atoms: N1_17  and  O4_19 
REMARK    9  A    between atoms: C14_25  and  N3_26 
ROOT
HETATM    1  C10 UNL     1       1.215   1.060   1.187  1.00  0.00     0.257 C 
ENDROOT
BRANCH   1   2
HETATM    2  C9  UNL     1      -0.138   0.738   0.715  1.00  0.00     0.016 A 
HETATM    3  C8  UNL     1      -0.422  -0.399  -0.039  1.00  0.00     0.082 A 
HETATM    4  C6  UNL     1      -1.721  -0.709  -0.510  1.00  0.00    -0.015 A 
HETATM    5  C5  UNL     1      -2.730   0.169  -0.194  1.00  0.00     0.013 A 
HETATM    6  C7  UNL     1      -1.966  -1.915  -1.282  1.00  0.00     0.052 C 
HETATM    7  C3  UNL     1      -4.027  -0.075  -0.624  1.00  0.00    -0.036 A 
HETATM    8  C17 UNL     1      -2.468   1.318   0.564  1.00  0.00     0.091 A 
HETATM    9  C2  UNL     1      -4.985   0.887  -0.244  1.00  0.00     0.020 A 
HETATM   10  C4  UNL     1      -4.381  -1.220  -1.412  1.00  0.00     0.050 C 
HETATM   11  C1  UNL     1      -6.367   0.642  -0.688  1.00  0.00     0.055 C 
HETATM   12  C18 UNL     1      -4.660   1.972   0.488  1.00  0.00     0.294 A 
HETATM   13  O7  UNL     1      -3.431   2.151   0.863  1.00  0.00    -0.274 OA
HETATM   14  O8  UNL     1      -5.571   2.808   0.801  1.00  0.00    -0.259 OA
HETATM   15  C16 UNL     1      -1.178   1.568   0.995  1.00  0.00     0.051 A 
BRANCH   3  16
HETATM   16  O1  UNL     1       0.580  -1.234  -0.335  1.00  0.00    -0.359 OA
ATOM     17  H1  UNL     1       1.451  -1.026  -0.019  1.00  0.00     0.217 HD
ENDBRANCH   3  16
ENDBRANCH   1   2
BRANCH   1  18
HETATM   18  O2  UNL     1       2.088  -0.088   1.081  1.00  0.00    -0.297 OA
BRANCH  18  19
HETATM   19  C11 UNL     1       3.252   0.007   0.315  1.00  0.00     0.317 C 
HETATM   20  O3  UNL     1       3.450   1.108  -0.258  1.00  0.00    -0.257 OA
BRANCH  19  21
HETATM   21  C12 UNL     1       4.199  -1.062   0.160  1.00  0.00     0.175 C 
HETATM   22  N1  UNL     1       4.074  -2.215   0.749  1.00  0.00    -0.260 N 
ATOM     23  H1  UNL     1       4.771  -2.946   0.609  1.00  0.00     0.194 HD
BRANCH  22  24
HETATM   24  O4  UNL     1       3.000  -2.430   1.554  1.00  0.00    -0.289 OA
ATOM     25  H4  UNL     1       2.909  -3.272   1.984  1.00  0.00     0.244 HD
ENDBRANCH  22  24
BRANCH  21  26
HETATM   26  C13 UNL     1       5.400  -0.948  -0.683  1.00  0.00     0.164 A 
HETATM   27  N2  UNL     1       6.332  -1.924  -0.868  1.00  0.00    -0.239 N 
HETATM   28  O5  UNL     1       7.267  -1.553  -1.650  1.00  0.00    -0.199 OA
ATOM     29  H2  UNL     1       6.287  -2.845  -0.431  1.00  0.00     0.196 HD
HETATM   30  C14 UNL     1       7.010  -0.332  -2.019  1.00  0.00     0.242 A 
HETATM   31  N4  UNL     1       5.842   0.074  -1.427  1.00  0.00    -0.303 N 
ATOM     32  H4  UNL     1       5.394   0.984  -1.533  1.00  0.00     0.171 HD
BRANCH  30  33
HETATM   33  N3  UNL     1       7.724   0.374  -2.803  1.00  0.00    -0.364 N 
ATOM     34  H32 UNL     1       8.593   0.072  -3.243  1.00  0.00     0.159 HD
ATOM     35  H31 UNL     1       7.523   1.331  -3.092  1.00  0.00     0.159 HD
ENDBRANCH  30  33
ENDBRANCH  21  26
ENDBRANCH  19  21
ENDBRANCH  18  19
ENDBRANCH   1  18
BRANCH   1  36
HETATM   36  C15 UNL     1       1.283   1.451   2.613  1.00  0.00     0.265 C 
HETATM   37  N5  UNL     1       0.686   2.596   3.194  1.00  0.00    -0.059 NA
HETATM   38  O6  UNL     1       1.945   0.692   3.413  1.00  0.00    -0.274 OA
ENDBRANCH   1  36
TORSDOF 9
