REMARK  14 active torsions:
REMARK  status: ('A' for Active; 'I' for Inactive)
REMARK    1  A    between atoms: C2_2  and  O1_3 
REMARK    2  A    between atoms: O1_3  and  C3_4 
REMARK    3  A    between atoms: C3_4  and  O3_6 
REMARK    4  A    between atoms: O3_6  and  C4_7 
REMARK    5  A    between atoms: C5_8  and  C6_9 
REMARK    6  A    between atoms: C6_9  and  O5_11 
REMARK    7  A    between atoms: C8_13  and  O6_14 
REMARK    8  A    between atoms: C8_13  and  C9_16 
REMARK    9  A    between atoms: C10_17  and  O7_18 
REMARK   10  A    between atoms: C12_21  and  O8_22 
REMARK   11  A    between atoms: C14_25  and  O9_26 
REMARK   12  A    between atoms: C16_29  and  O10_30 
REMARK   13  A    between atoms: C16_29  and  C17_32 
REMARK   14  A    between atoms: C17_32  and  O12_34 
ROOT
HETATM    1  C4  UNL     1       0.771   0.490  -0.043  1.00  0.00     0.119 C 
HETATM    2  C5  UNL     1       0.150  -0.467   0.620  1.00  0.00     0.089 C 
HETATM    3  C8  UNL     1      -1.239  -0.075   0.920  1.00  0.00     0.129 C 
HETATM    4  C15 UNL     1      -1.237   1.419   0.736  1.00  0.00     0.104 C 
HETATM    5  C16 UNL     1      -0.101   1.642  -0.225  1.00  0.00     0.198 C 
ENDROOT
BRANCH   3   6
HETATM    6  O6  UNL     1      -1.378  -0.310   2.328  1.00  0.00    -0.379 OA
ATOM      7  H6  UNL     1      -2.273  -0.057   2.521  1.00  0.00     0.211 HD
ENDBRANCH   3   6
BRANCH   3   8
HETATM    8  C9  UNL     1      -2.328  -0.728   0.202  1.00  0.00     0.047 A 
HETATM    9  C10 UNL     1      -3.625  -0.319   0.632  1.00  0.00     0.080 A 
HETATM   10  C11 UNL     1      -4.729  -0.836   0.022  1.00  0.00     0.073 A 
HETATM   11  C12 UNL     1      -4.624  -1.750  -1.008  1.00  0.00     0.071 A 
HETATM   12  C13 UNL     1      -3.372  -2.131  -1.410  1.00  0.00     0.073 A 
HETATM   13  C14 UNL     1      -2.202  -1.618  -0.804  1.00  0.00     0.080 A 
BRANCH   9  14
HETATM   14  O7  UNL     1      -3.768   0.593   1.659  1.00  0.00    -0.360 OA
ATOM     15  H7  UNL     1      -4.632   0.865   1.945  1.00  0.00     0.217 HD
ENDBRANCH   9  14
BRANCH  11  16
HETATM   16  O8  UNL     1      -5.772  -2.261  -1.611  1.00  0.00    -0.361 OA
ATOM     17  H8  UNL     1      -5.700  -2.890  -2.320  1.00  0.00     0.217 HD
ENDBRANCH  11  16
BRANCH  13  18
HETATM   18  O9  UNL     1      -0.973  -2.038  -1.267  1.00  0.00    -0.360 OA
ATOM     19  H9  UNL     1      -0.884  -2.665  -1.975  1.00  0.00     0.217 HD
ENDBRANCH  13  18
ENDBRANCH   3   8
BRANCH   2  20
HETATM   20  C6  UNL     1       0.762  -1.767   0.997  1.00  0.00     0.294 C 
HETATM   21  O4  UNL     1       1.940  -2.066   0.679  1.00  0.00    -0.259 OA
BRANCH  20  22
HETATM   22  O5  UNL     1       0.074  -2.726   1.725  1.00  0.00    -0.323 OA
HETATM   23  C7  UNL     1       0.667  -3.961   2.085  1.00  0.00     0.213 C 
ENDBRANCH  20  22
ENDBRANCH   2  20
BRANCH   1  24
HETATM   24  O3  UNL     1       2.114   0.344  -0.474  1.00  0.00    -0.255 OA
BRANCH  24  25
HETATM   25  C3  UNL     1       3.177   0.741   0.323  1.00  0.00     0.411 C 
HETATM   26  O2  UNL     1       2.919   1.238   1.444  1.00  0.00    -0.229 OA
BRANCH  25  27
HETATM   27  O1  UNL     1       4.498   0.618  -0.053  1.00  0.00    -0.298 OA
BRANCH  27  28
HETATM   28  C2  UNL     1       5.554   1.050   0.820  1.00  0.00     0.176 C 
HETATM   29  C1  UNL     1       6.893   0.818   0.201  1.00  0.00     0.034 C 
ENDBRANCH  27  28
ENDBRANCH  25  27
ENDBRANCH  24  25
ENDBRANCH   1  24
BRANCH   5  30
HETATM   30  O10 UNL     1       0.634   2.749   0.351  1.00  0.00    -0.373 OA
ATOM     31  H10 UNL     1       0.065   3.501   0.232  1.00  0.00     0.211 HD
ENDBRANCH   5  30
BRANCH   5  32
HETATM   32  C17 UNL     1      -0.481   2.004  -1.582  1.00  0.00     0.300 C 
HETATM   33  O11 UNL     1      -1.102   1.300  -2.399  1.00  0.00    -0.261 OA
BRANCH  32  34
HETATM   34  O12 UNL     1      -0.136   3.286  -2.097  1.00  0.00    -0.324 OA
HETATM   35  C18 UNL     1      -0.484   3.682  -3.410  1.00  0.00     0.213 C 
ENDBRANCH  32  34
ENDBRANCH   5  32
TORSDOF 14
