REMARK  6 active torsions:
REMARK  status: ('A' for Active; 'I' for Inactive)
REMARK    1  A    between atoms: C2_2  and  N1_3 
REMARK       I    between atoms: N1_3  and  C4_5 
REMARK       I    between atoms: C4_5  and  N2_7 
REMARK    2  A    between atoms: N2_7  and  C5_9 
REMARK    3  A    between atoms: C5_9  and  C6_10 
REMARK    4  A    between atoms: C9_13  and  C10_14 
REMARK       I    between atoms: C10_14  and  N3_16 
REMARK    5  A    between atoms: N3_16  and  C11_18 
REMARK    6  A    between atoms: C12_23  and  C13_24 
ROOT
HETATM    1  C10 UNL     1      -0.967   1.557  -0.827  1.00  0.00     0.227 C 
HETATM    2  O2  UNL     1      -1.513   2.222  -1.728  1.00  0.00    -0.273 OA
HETATM    3  N3  UNL     1      -1.530   1.430   0.470  1.00  0.00    -0.306 N 
ATOM      4  H3  UNL     1      -1.001   1.725   1.291  1.00  0.00     0.171 HD
ENDROOT
BRANCH   1   5
HETATM    5  C9  UNL     1       0.329   0.877  -1.146  1.00  0.00     0.078 C 
HETATM    6  C8  UNL     1       1.469   1.832  -1.030  1.00  0.00     0.014 C 
HETATM    7  C7  UNL     1       2.755   1.214  -0.530  1.00  0.00     0.007 C 
HETATM    8  C6  UNL     1       2.855  -0.260  -0.739  1.00  0.00     0.003 C 
HETATM    9  C20 UNL     1       1.647  -1.056  -0.380  1.00  0.00     0.007 C 
HETATM   10  C19 UNL     1       0.429  -0.267  -0.142  1.00  0.00     0.014 C 
BRANCH   8  11
HETATM   11  C5  UNL     1       3.998  -0.819   0.051  1.00  0.00     0.129 C 
BRANCH  11  12
HETATM   12  N2  UNL     1       5.285  -0.299  -0.302  1.00  0.00    -0.343 N 
HETATM   13  C4  UNL     1       6.395  -0.806   0.408  1.00  0.00     0.317 C 
HETATM   14  N1  UNL     1       7.712  -0.413   0.160  1.00  0.00    -0.339 N 
HETATM   15  O1  UNL     1       6.188  -1.669   1.312  1.00  0.00    -0.247 OA
HETATM   16  C3  UNL     1       8.816  -1.032   0.937  1.00  0.00     0.154 C 
ATOM     17  H2  UNL     1       5.394   0.405  -1.032  1.00  0.00     0.164 HD
BRANCH  14  18
HETATM   18  C2  UNL     1       8.098   0.574  -0.819  1.00  0.00     0.122 C 
HETATM   19  C1  UNL     1       8.220   1.956  -0.231  1.00  0.00     0.026 C 
ENDBRANCH  14  18
ENDBRANCH  11  12
ENDBRANCH   8  11
ENDBRANCH   1   5
BRANCH   3  20
HETATM   20  C11 UNL     1      -2.733   0.931   0.606  1.00  0.00     0.167 A 
HETATM   21  N4  UNL     1      -3.440   0.723   1.719  1.00  0.00    -0.279 N 
HETATM   22  N5  UNL     1      -4.603   0.227   1.614  1.00  0.00    -0.295 N 
ATOM     23  H4  UNL     1      -3.054   0.958   2.633  1.00  0.00     0.189 HD
HETATM   24  C12 UNL     1      -5.118  -0.079   0.459  1.00  0.00     0.078 A 
ATOM     25  H5  UNL     1      -5.150   0.063   2.459  1.00  0.00     0.187 HD
HETATM   26  S1  UNL     1      -3.824   0.376  -0.602  1.00  0.00    -0.037 SA
BRANCH  24  27
HETATM   27  C13 UNL     1      -6.462  -0.672   0.102  1.00  0.00     0.011 C 
HETATM   28  C14 UNL     1      -6.096  -1.846  -0.822  1.00  0.00     0.022 C 
HETATM   29  C15 UNL     1      -7.227   0.366  -0.629  1.00  0.00     0.042 C 
HETATM   30  C16 UNL     1      -8.711   0.389  -0.358  1.00  0.00     0.168 C 
HETATM   31  O3  UNL     1      -9.038   0.052   0.940  1.00  0.00    -0.391 OA
HETATM   32  C17 UNL     1      -8.612  -1.280   1.101  1.00  0.00     0.168 C 
HETATM   33  C18 UNL     1      -7.111  -1.226   1.318  1.00  0.00     0.042 C 
ENDBRANCH  24  27
ENDBRANCH   3  20
TORSDOF 6
