REMARK  7 active torsions:
REMARK  status: ('A' for Active; 'I' for Inactive)
REMARK    1  A    between atoms: C2_2  and  C3_3 
REMARK    2  A    between atoms: C6_6  and  O1_7 
REMARK    3  A    between atoms: O1_7  and  C7_8 
REMARK       I    between atoms: C7_8  and  N1_10 
REMARK    4  A    between atoms: N1_10  and  C8_12 
REMARK    5  A    between atoms: N2_17  and  C13_18 
REMARK    6  A    between atoms: C13_18  and  C14_19 
REMARK    7  A    between atoms: C25_31  and  O4_32 
ROOT
HETATM    1  C3  UNL     1       0.975  -2.671   0.405  1.00  0.00     0.002 C 
HETATM    2  C4  UNL     1       1.922  -3.187  -0.705  1.00  0.00     0.022 C 
HETATM    3  C5  UNL     1       1.485  -1.393   0.867  1.00  0.00     0.049 C 
HETATM    4  C6  UNL     1       1.523  -0.202  -0.022  1.00  0.00     0.142 C 
HETATM    5  C11 UNL     1       0.219   0.115  -0.597  1.00  0.00     0.069 A 
HETATM    6  C12 UNL     1      -0.668   1.228  -0.551  1.00  0.00     0.248 A 
HETATM    7  N2  UNL     1      -1.983   1.119  -1.146  1.00  0.00     0.096 N 
HETATM    8  C17 UNL     1      -2.425  -0.242  -1.013  1.00  0.00     0.284 C 
HETATM    9  C18 UNL     1      -1.799  -0.774   0.285  1.00  0.00     0.009 C 
HETATM   10  C19 UNL     1      -2.804  -0.377   1.384  1.00  0.00     0.020 C 
HETATM   11  C20 UNL     1      -1.993   0.246   2.483  1.00  0.00     0.080 C 
HETATM   12  C21 UNL     1      -0.744   0.728   1.781  1.00  0.00     0.139 C 
HETATM   13  O3  UNL     1       0.019   1.466   2.386  1.00  0.00    -0.297 OA
HETATM   14  C22 UNL     1      -0.728   0.181   0.487  1.00  0.00     0.070 A 
HETATM   15  C23 UNL     1      -1.555  -2.194   0.369  1.00  0.00     0.023 C 
HETATM   16  C24 UNL     1      -2.738  -2.875  -0.363  1.00  0.00     0.013 C 
HETATM   17  C25 UNL     1      -0.365  -2.908  -0.103  1.00  0.00     0.134 C 
ENDROOT
BRANCH   4  18
HETATM   18  O1  UNL     1       2.187   0.912   0.519  1.00  0.00    -0.298 OA
BRANCH  18  19
HETATM   19  C7  UNL     1       3.376   1.445   0.136  1.00  0.00     0.361 C 
HETATM   20  O2  UNL     1       3.899   0.831  -0.819  1.00  0.00    -0.238 OA
HETATM   21  N1  UNL     1       4.017   2.570   0.703  1.00  0.00    -0.332 N 
ATOM     22  H1  UNL     1       3.553   3.041   1.480  1.00  0.00     0.165 HD
BRANCH  21  23
HETATM   23  C8  UNL     1       5.274   3.093   0.259  1.00  0.00     0.086 A 
HETATM   24  C9  UNL     1       5.365   4.601   0.181  1.00  0.00     0.027 A 
HETATM   25  C10 UNL     1       6.181   3.831   1.141  1.00  0.00     0.027 A 
ENDBRANCH  21  23
ENDBRANCH  18  19
ENDBRANCH   4  18
BRANCH   1  26
HETATM   26  C2  UNL     1       1.274  -3.628   1.546  1.00  0.00    -0.025 C 
HETATM   27  C1  UNL     1       2.447  -3.866   2.044  1.00  0.00     0.008 C 
ENDBRANCH   1  26
BRANCH  17  28
HETATM   28  O4  UNL     1      -0.431  -3.278  -1.484  1.00  0.00    -0.394 OA
ATOM     29  H4  UNL     1      -1.307  -3.433  -1.816  1.00  0.00     0.210 HD
ENDBRANCH  17  28
BRANCH   7  30
HETATM   30  C13 UNL     1      -2.868   2.140  -0.874  1.00  0.00     0.277 C 
BRANCH  30  31
HETATM   31  C14 UNL     1      -4.191   1.863  -1.586  1.00  0.00     0.014 A 
HETATM   32  C15 UNL     1      -4.248   1.735  -3.049  1.00  0.00     0.007 A 
HETATM   33  C16 UNL     1      -4.815   2.957  -2.410  1.00  0.00     0.007 A 
ENDBRANCH  30  31
ENDBRANCH   7  30
TORSDOF 7
