REMARK  17 active torsions:
REMARK  status: ('A' for Active; 'I' for Inactive)
REMARK    1  A    between atoms: C2_2  and  C3_3 
REMARK    2  A    between atoms: C3_3  and  C4_4 
REMARK    3  A    between atoms: C4_4  and  C5_5 
REMARK    4  A    between atoms: C5_5  and  C6_6 
REMARK    5  A    between atoms: C6_6  and  C7_7 
REMARK    6  A    between atoms: C9_12  and  C10_13 
REMARK    7  A    between atoms: C10_13  and  C11_14 
REMARK    8  A    between atoms: C11_14  and  C12_15 
REMARK    9  A    between atoms: C14_19  and  C15_20 
REMARK   10  A    between atoms: C15_20  and  C16_21 
REMARK   11  A    between atoms: C18_25  and  N3_26 
REMARK   12  A    between atoms: N3_26  and  N4_27 
REMARK   13  A    between atoms: C19_30  and  C20_31 
REMARK   14  A    between atoms: C20_31  and  C21_32 
REMARK   15  A    between atoms: C21_32  and  C22_33 
REMARK   16  A    between atoms: C22_33  and  C23_34 
REMARK   17  A    between atoms: C23_34  and  N5_35 
ROOT
HETATM    1  C7  UNL     1       1.371  -0.456   0.003  1.00  0.00     0.176 C 
HETATM    2  N1  UNL     1       1.342   0.398  -1.163  1.00  0.00    -0.346 N 
ATOM      3  H1  UNL     1       1.847   0.119  -2.004  1.00  0.00     0.163 HD
HETATM    4  C8  UNL     1       0.619   1.621  -1.151  1.00  0.00     0.240 C 
HETATM    5  O1  UNL     1       0.859   2.445  -2.082  1.00  0.00    -0.271 OA
HETATM    6  C9  UNL     1      -0.382   2.001  -0.143  1.00  0.00     0.169 C 
HETATM    7  N2  UNL     1      -1.541   1.228  -0.208  1.00  0.00    -0.404 N 
ATOM      8  H2  UNL     1      -2.068   1.009   0.637  1.00  0.00     0.154 HD
HETATM    9  C14 UNL     1      -1.972   0.752  -1.474  1.00  0.00     0.093 C 
HETATM   10  C17 UNL     1      -2.684  -0.579  -1.191  1.00  0.00     0.097 C 
HETATM   11  C18 UNL     1      -1.745  -1.703  -1.069  1.00  0.00     0.110 C 
HETATM   12  C19 UNL     1      -1.206  -2.210   0.202  1.00  0.00     0.147 C 
HETATM   13  N6  UNL     1       0.156  -2.714   0.023  1.00  0.00    -0.348 N 
ATOM     14  H6  UNL     1       0.362  -3.688   0.245  1.00  0.00     0.163 HD
HETATM   15  C24 UNL     1       1.203  -1.867  -0.457  1.00  0.00     0.241 C 
HETATM   16  O4  UNL     1       2.044  -2.292  -1.309  1.00  0.00    -0.271 OA
ENDROOT
BRANCH  12  17
HETATM   17  C20 UNL     1      -2.082  -3.243   0.862  1.00  0.00     0.032 C 
BRANCH  17  18
HETATM   18  C21 UNL     1      -2.305  -4.457   0.025  1.00  0.00     0.004 C 
BRANCH  18  19
HETATM   19  C22 UNL     1      -3.188  -5.471   0.700  1.00  0.00     0.027 C 
BRANCH  19  20
HETATM   20  C23 UNL     1      -2.593  -5.951   2.003  1.00  0.00     0.229 C 
BRANCH  20  21
HETATM   21  N5  UNL     1      -3.448  -6.934   2.644  1.00  0.00    -0.079 N 
ATOM     22  H53 UNL     1      -4.395  -6.578   2.774  1.00  0.00     0.274 HD
ATOM     23  H52 UNL     1      -3.657  -7.712   2.019  1.00  0.00     0.274 HD
ATOM     24  H51 UNL     1      -3.046  -7.258   3.524  1.00  0.00     0.274 HD
ENDBRANCH  20  21
ENDBRANCH  19  20
ENDBRANCH  18  19
ENDBRANCH  17  18
ENDBRANCH  12  17
BRANCH  11  25
HETATM   25  N3  UNL     1      -1.373  -2.272  -2.121  1.00  0.00    -0.340 NA
BRANCH  25  26
HETATM   26  N4  UNL     1      -0.952  -2.834  -3.151  1.00  0.00    -0.280 N 
ATOM     27  H42 UNL     1      -0.211  -2.567  -2.503  1.00  0.00     0.191 HD
ATOM     28  H41 UNL     1      -0.649  -3.297  -4.008  1.00  0.00     0.191 HD
ENDBRANCH  25  26
ENDBRANCH  11  25
BRANCH   9  29
HETATM   29  C15 UNL     1      -2.984   1.653  -2.118  1.00  0.00     0.138 C 
BRANCH  29  30
HETATM   30  C16 UNL     1      -3.456   1.205  -3.436  1.00  0.00     0.174 C 
HETATM   31  O2  UNL     1      -4.348   1.939  -3.978  1.00  0.00    -0.648 OA
HETATM   32  O3  UNL     1      -3.053   0.108  -4.138  1.00  0.00    -0.648 OA
ENDBRANCH  29  30
ENDBRANCH   9  29
BRANCH   1  33
HETATM   33  C6  UNL     1       2.563  -0.232   0.866  1.00  0.00     0.035 C 
BRANCH  33  34
HETATM   34  C5  UNL     1       3.883  -0.463   0.207  1.00  0.00     0.002 C 
BRANCH  34  35
HETATM   35  C4  UNL     1       5.017  -0.195   1.196  1.00  0.00     0.000 C 
BRANCH  35  36
HETATM   36  C3  UNL     1       4.986   1.232   1.701  1.00  0.00    -0.000 C 
BRANCH  36  37
HETATM   37  C2  UNL     1       5.127   2.231   0.602  1.00  0.00    -0.005 C 
HETATM   38  C1  UNL     1       6.420   2.094  -0.166  1.00  0.00     0.005 C 
ENDBRANCH  36  37
ENDBRANCH  35  36
ENDBRANCH  34  35
ENDBRANCH  33  34
ENDBRANCH   1  33
BRANCH   6  39
HETATM   39  C10 UNL     1      -0.627   3.507  -0.186  1.00  0.00     0.034 C 
BRANCH  39  40
HETATM   40  C11 UNL     1      -1.649   3.892   0.841  1.00  0.00     0.002 C 
BRANCH  40  41
HETATM   41  C12 UNL     1      -1.868   5.388   0.772  1.00  0.00    -0.004 C 
HETATM   42  C13 UNL     1      -0.567   6.102   1.052  1.00  0.00     0.005 C 
ENDBRANCH  40  41
ENDBRANCH  39  40
ENDBRANCH   6  39
TORSDOF 17
