REMARK  10 active torsions:
REMARK  status: ('A' for Active; 'I' for Inactive)
REMARK    1  A    between atoms: C2_2  and  C3_3 
REMARK    2  A    between atoms: C3_3  and  C4_4 
REMARK    3  A    between atoms: N1_5  and  C5_6 
REMARK    4  A    between atoms: C5_6  and  C6_7 
REMARK    5  A    between atoms: C6_7  and  C7_8 
REMARK    6  A    between atoms: C7_8  and  C8_9 
REMARK    7  A    between atoms: C8_9  and  N2_10 
REMARK    8  A    between atoms: C13_15  and  C14_16 
REMARK    9  A    between atoms: C14_16  and  N4_20 
REMARK       I    between atoms: N5_25  and  C18_27 
REMARK   10  A    between atoms: N8_32  and  N9_33 
ROOT
HETATM    1  C4  UNL     1       2.334   0.851  -0.702  1.00  0.00     0.047 A 
HETATM    2  N1  UNL     1       2.570   0.086   0.281  1.00  0.00    -0.184 N 
HETATM    3  C17 UNL     1       3.379  -1.023  -0.267  1.00  0.00     0.707 A 
HETATM    4  N5  UNL     1       3.814  -1.990   0.418  1.00  0.00    -0.162 N 
ATOM      5  H5  UNL     1       3.581  -1.986   1.411  1.00  0.00     0.187 HD
HETATM    6  C18 UNL     1       4.591  -3.080  -0.045  1.00  0.00     0.202 C 
HETATM    7  N6  UNL     1       4.019  -4.252  -0.561  1.00  0.00    -0.063 NA
HETATM    8  N7  UNL     1       5.887  -2.970   0.026  1.00  0.00    -0.368 N 
ATOM      9  H7  UNL     1       6.325  -2.129   0.402  1.00  0.00     0.161 HD
HETATM   10  C19 UNL     1       6.687  -4.087  -0.450  1.00  0.00     0.148 C 
HETATM   11  N8  UNL     1       3.561  -0.799  -1.641  1.00  0.00    -0.102 N 
HETATM   12  C20 UNL     1       2.970   0.284  -1.950  1.00  0.00     0.160 A 
ENDROOT
BRANCH   2  13
HETATM   13  C5  UNL     1       2.293   0.084   1.679  1.00  0.00     0.147 C 
BRANCH  13  14
HETATM   14  C6  UNL     1       1.120   0.807   2.223  1.00  0.00     0.022 C 
BRANCH  14  15
HETATM   15  C7  UNL     1      -0.195   0.297   1.714  1.00  0.00     0.022 C 
BRANCH  15  16
HETATM   16  C8  UNL     1      -1.337   1.110   2.341  1.00  0.00     0.128 C 
BRANCH  16  17
HETATM   17  N2  UNL     1      -2.578   0.564   1.808  1.00  0.00    -0.365 N 
HETATM   18  C9  UNL     1      -3.171  -0.455   2.458  1.00  0.00     0.097 A 
HETATM   19  C10 UNL     1      -4.353  -1.016   1.973  1.00  0.00    -0.045 A 
HETATM   20  C11 UNL     1      -5.004  -2.142   2.682  1.00  0.00     0.049 C 
HETATM   21  C12 UNL     1      -4.876  -0.484   0.817  1.00  0.00     0.024 A 
HETATM   22  C13 UNL     1      -4.277   0.569   0.134  1.00  0.00     0.023 A 
HETATM   23  C16 UNL     1      -3.105   1.065   0.686  1.00  0.00     0.105 A 
BRANCH  22  24
HETATM   24  C14 UNL     1      -4.837   1.127  -1.091  1.00  0.00     0.105 C 
HETATM   25  N3  UNL     1      -4.227   2.102  -1.653  1.00  0.00    -0.385 N 
ATOM     26  H32 UNL     1      -3.369   2.497  -1.267  1.00  0.00     0.157 HD
ATOM     27  H31 UNL     1      -4.619   2.492  -2.510  1.00  0.00     0.157 HD
BRANCH  24  28
HETATM   28  N4  UNL     1      -6.031   0.577  -1.628  1.00  0.00    -0.380 N 
HETATM   29  C15 UNL     1      -7.327   1.083  -1.175  1.00  0.00     0.147 C 
ATOM     30  H4  UNL     1      -5.985  -0.166  -2.325  1.00  0.00     0.160 HD
ENDBRANCH  24  28
ENDBRANCH  22  24
ENDBRANCH  16  17
ENDBRANCH  15  16
ENDBRANCH  14  15
ENDBRANCH  13  14
ENDBRANCH   2  13
BRANCH   1  31
HETATM   31  C3  UNL     1       1.617   2.147  -0.759  1.00  0.00     0.059 C 
BRANCH  31  32
HETATM   32  C2  UNL     1       2.571   3.234  -1.288  1.00  0.00     0.002 C 
HETATM   33  C1  UNL     1       1.792   4.526  -1.327  1.00  0.00     0.005 C 
ENDBRANCH  31  32
ENDBRANCH   1  31
BRANCH  11  34
HETATM   34  N9  UNL     1       4.291  -1.669  -2.496  1.00  0.00    -0.325 N 
ATOM     35  H92 UNL     1       4.765  -2.538  -2.248  1.00  0.00     0.178 HD
ATOM     36  H91 UNL     1       4.423  -1.506  -3.494  1.00  0.00     0.178 HD
ENDBRANCH  11  34
TORSDOF 10
