REMARK  9 active torsions:
REMARK  status: ('A' for Active; 'I' for Inactive)
REMARK    1  A    between atoms: N1_8  and  C8_9 
REMARK    2  A    between atoms: C8_9  and  C9_10 
REMARK    3  A    between atoms: C9_10  and  C10_11 
REMARK    4  A    between atoms: C10_11  and  C11_12 
REMARK    5  A    between atoms: C11_12  and  C12_13 
REMARK    6  A    between atoms: C12_13  and  C13_14 
REMARK    7  A    between atoms: C13_14  and  N2_15 
REMARK    8  A    between atoms: C16_18  and  N3_19 
REMARK    9  A    between atoms: N3_19  and  C17_21 
ROOT
HETATM    1  N2  UNL     1       2.789  -1.037   1.697  1.00  0.00    -0.353 N 
HETATM    2  C14 UNL     1       3.088  -1.021   0.363  1.00  0.00     0.095 A 
HETATM    3  C15 UNL     1       4.119  -0.245  -0.106  1.00  0.00     0.066 A 
HETATM    4  C16 UNL     1       4.833   0.505   0.797  1.00  0.00     0.108 A 
HETATM    5  N7  UNL     1       4.527   0.479   2.110  1.00  0.00    -0.338 N 
ATOM      6  H7  UNL     1       5.063   1.040   2.772  1.00  0.00     0.168 HD
HETATM    7  C21 UNL     1       3.515  -0.287   2.543  1.00  0.00     0.184 A 
ENDROOT
BRANCH   1   8
HETATM    8  C13 UNL     1       1.706  -1.867   2.105  1.00  0.00     0.129 C 
BRANCH   8   9
HETATM    9  C12 UNL     1       0.363  -1.113   2.077  1.00  0.00     0.020 C 
BRANCH   9  10
HETATM   10  C11 UNL     1      -0.650  -2.107   2.525  1.00  0.00     0.002 C 
BRANCH  10  11
HETATM   11  C10 UNL     1      -2.045  -1.746   2.715  1.00  0.00     0.002 C 
BRANCH  11  12
HETATM   12  C9  UNL     1      -2.885  -1.226   1.633  1.00  0.00     0.020 C 
BRANCH  12  13
HETATM   13  C8  UNL     1      -2.592   0.083   1.019  1.00  0.00     0.128 C 
BRANCH  13  14
HETATM   14  N1  UNL     1      -3.588   0.411  -0.030  1.00  0.00    -0.359 N 
HETATM   15  C6  UNL     1      -4.695   1.111   0.239  1.00  0.00     0.013 A 
HETATM   16  C4  UNL     1      -5.632   1.402  -0.746  1.00  0.00    -0.039 A 
HETATM   17  C7  UNL     1      -4.954   1.615   1.591  1.00  0.00     0.069 C 
HETATM   18  C3  UNL     1      -5.374   0.938  -2.018  1.00  0.00     0.016 A 
HETATM   19  C5  UNL     1      -6.848   2.183  -0.402  1.00  0.00     0.050 C 
HETATM   20  C2  UNL     1      -4.249   0.220  -2.320  1.00  0.00    -0.046 A 
HETATM   21  C1  UNL     1      -4.009  -0.260  -3.700  1.00  0.00     0.049 C 
HETATM   22  C22 UNL     1      -3.368  -0.027  -1.288  1.00  0.00     0.097 A 
ENDBRANCH  13  14
ENDBRANCH  12  13
ENDBRANCH  11  12
ENDBRANCH  10  11
ENDBRANCH   9  10
ENDBRANCH   8   9
ENDBRANCH   1   8
BRANCH   4  23
HETATM   23  N3  UNL     1       5.799   1.234   0.368  1.00  0.00    -0.327 N 
ATOM     24  H3  UNL     1       6.339   1.797   1.025  1.00  0.00     0.169 HD
BRANCH  23  25
HETATM   25  C17 UNL     1       6.120   1.262  -1.006  1.00  0.00     0.139 A 
HETATM   26  C18 UNL     1       7.098   0.817  -1.777  1.00  0.00     0.125 A 
HETATM   27  N4  UNL     1       8.242   0.216  -2.163  1.00  0.00    -0.302 N 
HETATM   28  C20 UNL     1       6.532   1.321  -2.922  1.00  0.00     0.142 A 
HETATM   29  C19 UNL     1       8.405   0.329  -3.497  1.00  0.00     0.326 A 
ATOM     30  H4  UNL     1       8.892  -0.257  -1.535  1.00  0.00     0.171 HD
HETATM   31  O1  UNL     1       9.356  -0.110  -4.211  1.00  0.00    -0.247 OA
HETATM   32  N5  UNL     1       7.351   1.007  -3.948  1.00  0.00    -0.292 N 
ATOM     33  H5  UNL     1       7.187   1.253  -4.924  1.00  0.00     0.172 HD
HETATM   34  N6  UNL     1       5.570   1.767  -2.217  1.00  0.00    -0.325 N 
ATOM     35  H6  UNL     1       4.723   2.290  -2.438  1.00  0.00     0.169 HD
ENDBRANCH  23  25
ENDBRANCH   4  23
TORSDOF 9
