REMARK  12 active torsions:
REMARK  status: ('A' for Active; 'I' for Inactive)
REMARK    1  A    between atoms: C2_2  and  C3_3 
REMARK    2  A    between atoms: C3_3  and  C4_4 
REMARK    3  A    between atoms: C4_4  and  C5_5 
REMARK    4  A    between atoms: C6_6  and  C7_7 
REMARK    5  A    between atoms: C7_7  and  O1_8 
REMARK    6  A    between atoms: C7_7  and  C8_10 
REMARK    7  A    between atoms: C13_15  and  O2_16 
REMARK    8  A    between atoms: C13_15  and  C14_18 
REMARK    9  A    between atoms: C19_23  and  C20_24 
REMARK   10  A    between atoms: C20_24  and  C21_25 
REMARK   11  A    between atoms: C21_25  and  C22_26 
REMARK       I    between atoms: C22_26  and  N1_28 
REMARK   12  A    between atoms: N1_28  and  C23_30 
ROOT
HETATM    1  C4  UNL     1      -0.334  -1.648  -0.532  1.00  0.00     0.072 C 
HETATM    2  C16 UNL     1      -0.832  -0.375   0.111  1.00  0.00     0.038 C 
HETATM    3  C17 UNL     1      -0.978   0.725  -0.955  1.00  0.00     0.037 C 
HETATM    4  C18 UNL     1      -2.293   0.506  -1.612  1.00  0.00    -0.074 C 
HETATM    5  C19 UNL     1      -3.249   1.439  -1.639  1.00  0.00    -0.023 C 
HETATM    6  C24 UNL     1      -2.541  -0.799  -2.267  1.00  0.00     0.109 C 
HETATM    7  S1  UNL     1      -1.012  -1.773  -2.193  1.00  0.00    -0.142 SA
ENDROOT
BRANCH   1   8
HETATM    8  C3  UNL     1      -0.665  -2.812   0.331  1.00  0.00     0.033 C 
BRANCH   8   9
HETATM    9  C2  UNL     1      -2.102  -3.058   0.598  1.00  0.00    -0.002 C 
HETATM   10  C1  UNL     1      -2.164  -4.307   1.495  1.00  0.00     0.005 C 
ENDBRANCH   8   9
ENDBRANCH   1   8
BRANCH   1  11
HETATM   11  C5  UNL     1       1.142  -1.576  -0.684  1.00  0.00    -0.083 C 
HETATM   12  C6  UNL     1       2.340  -1.516  -0.823  1.00  0.00    -0.073 C 
BRANCH  12  13
HETATM   13  C7  UNL     1       3.788  -1.444  -1.016  1.00  0.00     0.201 C 
BRANCH  13  14
HETATM   14  O1  UNL     1       4.242  -2.393  -1.923  1.00  0.00    -0.383 OA
ATOM     15  H1  UNL     1       5.183  -2.346  -2.048  1.00  0.00     0.211 HD
ENDBRANCH  13  14
BRANCH  13  16
HETATM   16  C8  UNL     1       4.533  -1.575   0.302  1.00  0.00     0.027 C 
HETATM   17  C9  UNL     1       4.067  -0.408   1.203  1.00  0.00     0.016 C 
HETATM   18  C10 UNL     1       5.397  -0.004   1.746  1.00  0.00     0.028 A 
HETATM   19  C11 UNL     1       6.044   0.144   0.309  1.00  0.00     0.028 A 
HETATM   20  C13 UNL     1       6.354   0.957   1.405  1.00  0.00     0.066 A 
HETATM   21  C12 UNL     1       6.016  -1.309   0.045  1.00  0.00     0.016 C 
BRANCH  20  22
HETATM   22  O2  UNL     1       7.655   0.859   1.946  1.00  0.00    -0.389 OA
ATOM     23  H2  UNL     1       8.305   1.512   1.714  1.00  0.00     0.210 HD
ENDBRANCH  20  22
BRANCH  20  24
HETATM   24  C14 UNL     1       5.913   2.428   1.415  1.00  0.00     0.034 C 
HETATM   25  C15 UNL     1       7.109   3.275   1.015  1.00  0.00     0.008 C 
ENDBRANCH  20  24
ENDBRANCH  13  16
ENDBRANCH  12  13
ENDBRANCH   1  11
BRANCH   5  26
HETATM   26  C20 UNL     1      -4.553   1.200  -2.299  1.00  0.00     0.037 C 
BRANCH  26  27
HETATM   27  C21 UNL     1      -5.689   1.376  -1.294  1.00  0.00     0.107 C 
BRANCH  27  28
HETATM   28  C22 UNL     1      -5.669   2.762  -0.809  1.00  0.00     0.236 C 
HETATM   29  O3  UNL     1      -4.991   3.674  -1.375  1.00  0.00    -0.273 OA
HETATM   30  N1  UNL     1      -6.412   3.139   0.317  1.00  0.00    -0.157 N 
ATOM     31  H1  UNL     1      -6.118   3.974   0.824  1.00  0.00     0.187 HD
BRANCH  30  32
HETATM   32  C23 UNL     1      -7.427   2.511   0.749  1.00  0.00     0.716 A 
HETATM   33  N2  UNL     1      -8.039   1.415   0.314  1.00  0.00    -0.115 N 
HETATM   34  N3  UNL     1      -9.046   1.167   1.104  1.00  0.00    -0.213 N 
ATOM     35  H2  UNL     1      -7.767   0.862  -0.499  1.00  0.00     0.207 HD
HETATM   36  N4  UNL     1      -9.098   2.079   2.040  1.00  0.00    -0.213 N 
ATOM     37  H3  UNL     1      -9.692   0.384   1.007  1.00  0.00     0.210 HD
HETATM   38  N5  UNL     1      -8.110   2.916   1.840  1.00  0.00    -0.115 N 
ATOM     39  H4  UNL     1      -9.785   2.130   2.792  1.00  0.00     0.210 HD
ATOM     40  H5  UNL     1      -7.894   3.733   2.411  1.00  0.00     0.207 HD
ENDBRANCH  30  32
ENDBRANCH  27  28
ENDBRANCH  26  27
ENDBRANCH   5  26
TORSDOF 12
