REMARK  3 active torsions:
REMARK  status: ('A' for Active; 'I' for Inactive)
REMARK    1  A    between atoms: O1_1  and  C1_3 
REMARK    2  A    between atoms: C1_3  and  C2_4 
REMARK    3  A    between atoms: C5_7  and  N1_8 
ROOT
HETATM    1  C2  UNL     1       1.889   0.372  -0.306  1.00  0.00     0.011 C 
HETATM    2  C3  UNL     1       2.023  -1.041  -0.826  1.00  0.00     0.009 C 
HETATM    3  C4  UNL     1       0.754  -1.713  -0.375  1.00  0.00     0.025 C 
HETATM    4  C5  UNL     1       0.061  -0.771   0.582  1.00  0.00     0.079 C 
HETATM    5  C10 UNL     1       1.161   0.121   1.016  1.00  0.00     0.031 C 
ENDROOT
BRANCH   4   6
HETATM    6  N1  UNL     1      -1.060  -0.119   0.000  1.00  0.00    -0.404 N 
HETATM    7  C6  UNL     1      -2.123  -0.970  -0.409  1.00  0.00     0.143 C 
HETATM    8  C7  UNL     1      -3.489  -0.549   0.105  1.00  0.00     0.187 C 
HETATM    9  O2  UNL     1      -3.785   0.772  -0.105  1.00  0.00    -0.388 OA
HETATM   10  C8  UNL     1      -2.682   1.597  -0.217  1.00  0.00     0.187 C 
HETATM   11  C9  UNL     1      -1.513   1.071   0.628  1.00  0.00     0.143 C 
ENDBRANCH   4   6
BRANCH   1  12
HETATM   12  C1  UNL     1       3.224   0.984   0.045  1.00  0.00     0.168 C 
BRANCH  12  13
HETATM   13  O1  UNL     1       4.082   1.049  -1.039  1.00  0.00    -0.400 OA
ATOM     14  H1  UNL     1       4.922   1.434  -0.818  1.00  0.00     0.209 HD
ENDBRANCH  12  13
ENDBRANCH   1  12
TORSDOF 3
