REMARK  1 active torsions:
REMARK  status: ('A' for Active; 'I' for Inactive)
REMARK    1  A    between atoms: C5_10  and  C6_11 
ROOT
HETATM    1  C1  UNL     1      -3.755  -1.692   0.488  1.00  0.00     0.070 C 
HETATM    2  C2  UNL     1      -3.012  -0.395   0.344  1.00  0.00     0.036 A 
HETATM    3  N1  UNL     1      -3.552   0.847   0.374  1.00  0.00    -0.301 N 
ATOM      4  H1  UNL     1      -4.544   1.050   0.500  1.00  0.00     0.187 HD
HETATM    5  N2  UNL     1      -2.613   1.750   0.218  1.00  0.00    -0.280 N 
HETATM    6  C3  UNL     1      -2.751   3.193   0.188  1.00  0.00     0.179 C 
HETATM    7  C4  UNL     1      -1.421   1.127   0.080  1.00  0.00     0.135 A 
HETATM    8  N3  UNL     1      -0.098   1.273  -0.103  1.00  0.00    -0.339 N 
ATOM      9  H3  UNL     1       0.375   2.172  -0.198  1.00  0.00     0.167 HD
HETATM   10  C5  UNL     1       0.534   0.059  -0.146  1.00  0.00     0.057 A 
HETATM   11  C12 UNL     1      -0.430  -0.889   0.017  1.00  0.00    -0.018 A 
HETATM   12  C13 UNL     1      -0.403  -2.367   0.124  1.00  0.00     0.052 C 
HETATM   13  C14 UNL     1      -1.661  -0.214   0.158  1.00  0.00     0.041 A 
ENDROOT
BRANCH  10  14
HETATM   14  C6  UNL     1       1.994  -0.093  -0.237  1.00  0.00     0.075 A 
HETATM   15  C7  UNL     1       2.811   0.856   0.383  1.00  0.00     0.173 A 
HETATM   16  F1  UNL     1       2.244   1.809   1.154  1.00  0.00    -0.202 F 
HETATM   17  C8  UNL     1       4.174   0.848   0.273  1.00  0.00     0.197 A 
HETATM   18  F2  UNL     1       4.944   1.804   0.901  1.00  0.00    -0.199 F 
HETATM   19  C9  UNL     1       4.788  -0.129  -0.476  1.00  0.00     0.199 A 
HETATM   20  F3  UNL     1       6.142  -0.129  -0.580  1.00  0.00    -0.199 F 
HETATM   21  C10 UNL     1       4.019  -1.076  -1.100  1.00  0.00     0.197 A 
HETATM   22  F4  UNL     1       4.615  -2.039  -1.837  1.00  0.00    -0.199 F 
HETATM   23  C11 UNL     1       2.616  -1.064  -0.985  1.00  0.00     0.173 A 
HETATM   24  F5  UNL     1       1.968  -2.013  -1.697  1.00  0.00    -0.202 F 
ENDBRANCH  10  14
TORSDOF 1
