REMARK  1 active torsions:
REMARK  status: ('A' for Active; 'I' for Inactive)
REMARK    1  A    between atoms: C8_13  and  C9_14 
ROOT
HETATM    1  O1  UNL     1      -3.548  -0.038   2.573  1.00  0.00    -0.291 OA
HETATM    2  C1  UNL     1      -2.976   0.279   1.483  1.00  0.00     0.177 C 
HETATM    3  C2  UNL     1      -3.843   0.603   0.326  1.00  0.00     0.085 C 
HETATM    4  C3  UNL     1      -3.423  -0.338  -0.784  1.00  0.00     0.008 C 
HETATM    5  C4  UNL     1      -2.137   0.049  -1.412  1.00  0.00     0.005 C 
HETATM    6  C5  UNL     1      -0.910  -0.548  -0.802  1.00  0.00     0.043 C 
HETATM    7  C6  UNL     1      -0.621  -0.126   0.567  1.00  0.00     0.003 A 
HETATM    8  C7  UNL     1      -1.529   0.268   1.571  1.00  0.00     0.102 A 
HETATM    9  N1  UNL     1      -0.795   0.627   2.619  1.00  0.00    -0.296 N 
ATOM     10  H1  UNL     1      -1.167   0.964   3.507  1.00  0.00     0.187 HD
HETATM   11  N2  UNL     1       0.485   0.483   2.340  1.00  0.00    -0.299 N 
ATOM     12  H2  UNL     1       1.248   0.693   2.984  1.00  0.00     0.187 HD
HETATM   13  C8  UNL     1       0.648   0.011   1.060  1.00  0.00     0.073 A 
ENDROOT
BRANCH  13  14
HETATM   14  C9  UNL     1       1.987  -0.142   0.512  1.00  0.00     0.076 A 
HETATM   15  C10 UNL     1       2.421  -1.141  -0.319  1.00  0.00     0.173 A 
HETATM   16  F1  UNL     1       1.665  -2.224  -0.581  1.00  0.00    -0.202 F 
HETATM   17  C11 UNL     1       3.685  -1.152  -0.884  1.00  0.00     0.197 A 
HETATM   18  F2  UNL     1       4.084  -2.150  -1.703  1.00  0.00    -0.199 F 
HETATM   19  C12 UNL     1       4.578  -0.147  -0.633  1.00  0.00     0.199 A 
HETATM   20  F3  UNL     1       5.825  -0.082  -1.142  1.00  0.00    -0.199 F 
HETATM   21  C13 UNL     1       4.173   0.880   0.206  1.00  0.00     0.197 A 
HETATM   22  F4  UNL     1       5.040   1.898   0.479  1.00  0.00    -0.199 F 
HETATM   23  C14 UNL     1       2.921   0.879   0.757  1.00  0.00     0.173 A 
HETATM   24  F5  UNL     1       2.575   1.910   1.533  1.00  0.00    -0.202 F 
ENDBRANCH  13  14
TORSDOF 1
