REMARK  13 active torsions:
REMARK  status: ('A' for Active; 'I' for Inactive)
REMARK    1  A    between atoms: C2_2  and  C4_4 
REMARK    2  A    between atoms: C4_4  and  C5_5 
REMARK    3  A    between atoms: C5_5  and  C6_6 
REMARK    4  A    between atoms: C5_5  and  N4_28 
REMARK       I    between atoms: C6_6  and  N1_8 
REMARK    5  A    between atoms: C10_12  and  C11_13 
REMARK       I    between atoms: C11_13  and  N2_15 
REMARK    6  A    between atoms: N2_15  and  C12_17 
REMARK    7  A    between atoms: C12_17  and  C13_18 
REMARK    8  A    between atoms: C12_17  and  C16_25 
REMARK       I    between atoms: C13_18  and  N3_20 
REMARK    9  A    between atoms: N3_20  and  C14_22 
REMARK   10  A    between atoms: C14_22  and  C15_23 
REMARK   11  A    between atoms: C20_30  and  C21_31 
REMARK       I    between atoms: C21_31  and  N5_33 
REMARK   12  A    between atoms: N5_33  and  C22_35 
REMARK   13  A    between atoms: C26_39  and  C27_40 
ROOT
HETATM    1  C5  UNL     1       1.439  -1.134  -0.819  1.00  0.00     0.179 C 
ENDROOT
BRANCH   1   2
HETATM    2  C4  UNL     1       2.269  -2.353  -0.725  1.00  0.00     0.039 C 
BRANCH   2   3
HETATM    3  C2  UNL     1       2.011  -3.540  -1.532  1.00  0.00    -0.020 C 
HETATM    4  C1  UNL     1       0.711  -4.246  -1.373  1.00  0.00     0.009 C 
HETATM    5  C3  UNL     1       3.089  -4.570  -1.130  1.00  0.00     0.009 C 
ENDBRANCH   2   3
ENDBRANCH   1   2
BRANCH   1   6
HETATM    6  C6  UNL     1      -0.004  -1.299  -0.519  1.00  0.00     0.243 C 
HETATM    7  O1  UNL     1      -0.351  -1.405   0.683  1.00  0.00    -0.271 OA
HETATM    8  N1  UNL     1      -1.033  -1.339  -1.490  1.00  0.00    -0.337 N 
HETATM    9  C7  UNL     1      -0.866  -1.197  -2.943  1.00  0.00     0.127 C 
HETATM   10  C10 UNL     1      -2.450  -1.522  -1.216  1.00  0.00     0.179 C 
HETATM   11  C8  UNL     1      -2.021  -1.980  -3.538  1.00  0.00     0.022 C 
HETATM   12  C9  UNL     1      -3.117  -1.735  -2.539  1.00  0.00     0.037 C 
BRANCH  10  13
HETATM   13  C11 UNL     1      -3.019  -0.388  -0.474  1.00  0.00     0.241 C 
HETATM   14  O2  UNL     1      -2.291   0.578  -0.165  1.00  0.00    -0.271 OA
HETATM   15  N2  UNL     1      -4.379  -0.373  -0.103  1.00  0.00    -0.346 N 
ATOM     16  H2  UNL     1      -4.966  -1.167  -0.358  1.00  0.00     0.163 HD
BRANCH  15  17
HETATM   17  C12 UNL     1      -4.986   0.748   0.641  1.00  0.00     0.180 C 
BRANCH  17  18
HETATM   18  C13 UNL     1      -6.099   1.299  -0.138  1.00  0.00     0.240 C 
HETATM   19  O3  UNL     1      -6.433   0.655  -1.200  1.00  0.00    -0.271 OA
HETATM   20  N3  UNL     1      -6.802   2.462   0.194  1.00  0.00    -0.359 N 
ATOM     21  H3  UNL     1      -6.533   2.974   1.034  1.00  0.00     0.162 HD
BRANCH  20  22
HETATM   22  C14 UNL     1      -7.898   2.969  -0.609  1.00  0.00     0.133 C 
BRANCH  22  23
HETATM   23  C15 UNL     1      -7.525   3.337  -2.004  1.00  0.00     0.104 C 
HETATM   24 BR1  UNL     1      -9.070   4.006  -2.979  1.00  0.00    -0.095 Br
ENDBRANCH  22  23
ENDBRANCH  20  22
ENDBRANCH  17  18
BRANCH  17  25
HETATM   25  C16 UNL     1      -5.481   0.207   1.967  1.00  0.00     0.009 C 
HETATM   26  C17 UNL     1      -6.526  -0.864   1.788  1.00  0.00     0.012 C 
HETATM   27  C18 UNL     1      -5.967   1.263   2.899  1.00  0.00     0.012 C 
ENDBRANCH  17  25
ENDBRANCH  15  17
ENDBRANCH  10  13
ENDBRANCH   1   6
BRANCH   1  28
HETATM   28  N4  UNL     1       1.999  -0.085   0.084  1.00  0.00    -0.338 N 
HETATM   29  C19 UNL     1       2.086  -0.277   1.506  1.00  0.00     0.141 C 
HETATM   30  C20 UNL     1       3.139   0.537   2.195  1.00  0.00     0.097 C 
HETATM   31  C25 UNL     1       3.126   1.977   1.790  1.00  0.00     0.030 C 
HETATM   32  C26 UNL     1       3.269   2.107   0.316  1.00  0.00     0.082 C 
HETATM   33  C30 UNL     1       2.465   1.150  -0.449  1.00  0.00     0.225 C 
HETATM   34  O5  UNL     1       2.168   1.426  -1.632  1.00  0.00    -0.273 OA
BRANCH  30  35
HETATM   35  C21 UNL     1       4.472  -0.033   2.280  1.00  0.00     0.223 C 
HETATM   36  O4  UNL     1       4.936  -0.237   3.471  1.00  0.00    -0.273 OA
HETATM   37  N5  UNL     1       5.350  -0.403   1.256  1.00  0.00    -0.357 N 
ATOM     38  H5  UNL     1       5.053  -0.271   0.289  1.00  0.00     0.162 HD
BRANCH  37  39
HETATM   39  C22 UNL     1       6.663  -0.966   1.506  1.00  0.00     0.076 C 
HETATM   40  C23 UNL     1       6.894  -2.241   0.758  1.00  0.00     0.032 C 
HETATM   41  C24 UNL     1       7.715   0.103   1.182  1.00  0.00     0.032 C 
ENDBRANCH  37  39
ENDBRANCH  30  35
BRANCH  32  42
HETATM   42  C27 UNL     1       2.966   3.548  -0.033  1.00  0.00    -0.010 C 
HETATM   43  C28 UNL     1       3.065   3.867  -1.482  1.00  0.00     0.010 C 
HETATM   44  C29 UNL     1       3.939   4.418   0.732  1.00  0.00     0.010 C 
ENDBRANCH  32  42
ENDBRANCH   1  28
TORSDOF 13
