REMARK  3 active torsions:
REMARK  status: ('A' for Active; 'I' for Inactive)
REMARK    1  A    between atoms: C2_2  and  N1_3 
REMARK    2  A    between atoms: C8_12  and  N3_13 
REMARK    3  A    between atoms: C13_23  and  N6_24 
ROOT
HETATM    1  C1  UNL     1       0.780   0.939  -0.653  1.00  0.00     0.097 A 
HETATM    2  C2  UNL     1       1.153  -0.343  -0.396  1.00  0.00     0.122 A 
HETATM    3  N2  UNL     1       0.170  -1.245  -0.125  1.00  0.00    -0.177 N 
ATOM      4  H2  UNL     1       0.444  -2.208   0.069  1.00  0.00     0.186 HD
HETATM    5  C8  UNL     1      -1.138  -0.944  -0.097  1.00  0.00     0.683 A 
HETATM    6  N5  UNL     1      -1.456   0.343  -0.360  1.00  0.00    -0.177 N 
ATOM      7  H5  UNL     1      -2.443   0.600  -0.347  1.00  0.00     0.186 HD
HETATM    8  C13 UNL     1      -0.577   1.293  -0.633  1.00  0.00     0.122 A 
ENDROOT
BRANCH   5   9
HETATM    9  N3  UNL     1      -2.137  -1.915   0.189  1.00  0.00    -0.214 N 
HETATM   10  C9  UNL     1      -3.539  -1.578   0.223  1.00  0.00     0.168 C 
HETATM   11  C10 UNL     1      -4.288  -2.417   1.204  1.00  0.00     0.252 C 
HETATM   12  N4  UNL     1      -3.946  -3.809   1.208  1.00  0.00    -0.072 N 
HETATM   13  C11 UNL     1      -2.989  -4.136   0.181  1.00  0.00     0.252 C 
ATOM     14  H42 UNL     1      -3.618  -4.106   2.127  1.00  0.00     0.277 HD
ATOM     15  H41 UNL     1      -4.778  -4.394   1.137  1.00  0.00     0.277 HD
HETATM   16  C12 UNL     1      -1.744  -3.279   0.452  1.00  0.00     0.168 C 
ENDBRANCH   5   9
BRANCH   2  17
HETATM   17  N1  UNL     1       2.512  -0.739  -0.414  1.00  0.00    -0.365 N 
HETATM   18  C3  UNL     1       3.495   0.187  -0.919  1.00  0.00     0.126 C 
HETATM   19  C4  UNL     1       4.023   0.907   0.332  1.00  0.00     0.046 C 
HETATM   20  C5  UNL     1       4.592  -0.202   1.216  1.00  0.00     0.169 C 
HETATM   21  O1  UNL     1       5.076  -1.232   0.457  1.00  0.00    -0.389 OA
HETATM   22  C6  UNL     1       4.268  -2.303   0.246  1.00  0.00     0.187 C 
HETATM   23  C7  UNL     1       2.816  -2.073   0.095  1.00  0.00     0.150 C 
ENDBRANCH   2  17
BRANCH   8  24
HETATM   24  N6  UNL     1      -0.899   2.638  -0.905  1.00  0.00    -0.363 N 
HETATM   25  C14 UNL     1       0.136   3.623  -1.122  1.00  0.00     0.150 C 
HETATM   26  C15 UNL     1      -0.548   4.986  -1.082  1.00  0.00     0.187 C 
HETATM   27  O2  UNL     1      -1.446   5.072  -2.124  1.00  0.00    -0.388 OA
HETATM   28  C16 UNL     1      -2.337   4.035  -2.188  1.00  0.00     0.187 C 
HETATM   29  C17 UNL     1      -2.275   3.116  -0.988  1.00  0.00     0.150 C 
ENDBRANCH   8  24
TORSDOF 3
