REMARK  3 active torsions:
REMARK  status: ('A' for Active; 'I' for Inactive)
REMARK    1  A    between atoms: C2_2  and  N1_3 
REMARK    2  A    between atoms: C7_11  and  N3_12 
REMARK    3  A    between atoms: C12_22  and  N6_23 
ROOT
HETATM    1  C1  UNL     1       1.131   0.857   0.682  1.00  0.00     0.097 A 
HETATM    2  C2  UNL     1      -0.109   1.424   0.471  1.00  0.00     0.122 A 
HETATM    3  N2  UNL     1      -1.087   0.619   0.044  1.00  0.00    -0.177 N 
ATOM      4  H2  UNL     1      -2.006   1.031  -0.114  1.00  0.00     0.186 HD
HETATM    5  C7  UNL     1      -0.941  -0.707  -0.193  1.00  0.00     0.683 A 
HETATM    6  N5  UNL     1       0.289  -1.203   0.029  1.00  0.00    -0.177 N 
ATOM      7  H5  UNL     1       0.435  -2.198  -0.141  1.00  0.00     0.186 HD
HETATM    8  C12 UNL     1       1.337  -0.486   0.457  1.00  0.00     0.122 A 
ENDROOT
BRANCH   5   9
HETATM    9  N3  UNL     1      -2.017  -1.512  -0.646  1.00  0.00    -0.214 N 
HETATM   10  C8  UNL     1      -3.304  -0.922  -0.864  1.00  0.00     0.168 C 
HETATM   11  C9  UNL     1      -4.457  -1.767  -0.452  1.00  0.00     0.252 C 
HETATM   12  N4  UNL     1      -4.056  -3.094  -0.093  1.00  0.00    -0.072 N 
HETATM   13  C10 UNL     1      -3.134  -3.576  -1.132  1.00  0.00     0.252 C 
ATOM     14  H42 UNL     1      -3.660  -3.149   0.846  1.00  0.00     0.277 HD
ATOM     15  H41 UNL     1      -4.847  -3.721   0.058  1.00  0.00     0.277 HD
HETATM   16  C11 UNL     1      -1.817  -2.912  -0.885  1.00  0.00     0.168 C 
ENDBRANCH   5   9
BRANCH   2  17
HETATM   17  N1  UNL     1      -0.363   2.806   0.691  1.00  0.00    -0.363 N 
HETATM   18  C3  UNL     1      -1.720   3.315   0.446  1.00  0.00     0.150 C 
HETATM   19  C4  UNL     1      -1.600   4.464  -0.532  1.00  0.00     0.187 C 
HETATM   20  O1  UNL     1      -0.743   5.420   0.014  1.00  0.00    -0.388 OA
HETATM   21  C5  UNL     1       0.547   4.945   0.159  1.00  0.00     0.187 C 
HETATM   22  C6  UNL     1       0.591   3.767   1.136  1.00  0.00     0.150 C 
ENDBRANCH   2  17
BRANCH   8  23
HETATM   23  N6  UNL     1       2.574  -1.143   0.648  1.00  0.00    -0.363 N 
HETATM   24  C13 UNL     1       3.796  -0.513   1.099  1.00  0.00     0.150 C 
HETATM   25  C14 UNL     1       4.839  -0.875   0.030  1.00  0.00     0.187 C 
HETATM   26  O2  UNL     1       5.039  -2.228   0.127  1.00  0.00    -0.388 OA
HETATM   27  C15 UNL     1       3.946  -2.990  -0.229  1.00  0.00     0.187 C 
HETATM   28  C16 UNL     1       2.661  -2.563   0.380  1.00  0.00     0.150 C 
ENDBRANCH   8  23
TORSDOF 3
