REMARK  0 active torsions:
REMARK  status: ('A' for Active; 'I' for Inactive)
ROOT
HETATM    1  C1  UNL     1      -1.011   3.381   0.059  1.00  0.00     0.018 C 
HETATM    2  C2  UNL     1      -1.041   2.176   0.085  1.00  0.00    -0.077 C 
HETATM    3  C3  UNL     1      -1.065   0.729   0.095  1.00  0.00     0.029 A 
HETATM    4  C4  UNL     1      -2.202  -0.007   0.201  1.00  0.00     0.021 A 
HETATM    5  C5  UNL     1      -2.148  -1.384   0.203  1.00  0.00     0.004 A 
HETATM    6  C6  UNL     1      -0.960  -2.059   0.100  1.00  0.00     0.030 A 
HETATM    7  C7  UNL     1       0.224  -1.317  -0.010  1.00  0.00     0.043 A 
HETATM    8  N1  UNL     1       1.410  -1.971  -0.114  1.00  0.00    -0.365 N 
ATOM      9  H1  UNL     1       1.439  -2.991  -0.112  1.00  0.00     0.165 HD
HETATM   10  C8  UNL     1       2.550  -1.254  -0.220  1.00  0.00     0.088 A 
HETATM   11  C9  UNL     1       2.541   0.124  -0.226  1.00  0.00     0.018 A 
HETATM   12  C10 UNL     1       1.343   0.790  -0.122  1.00  0.00     0.016 A 
HETATM   13  C11 UNL     1       0.161   0.059  -0.012  1.00  0.00     0.009 A 
ENDROOT
TORSDOF 0
