REMARK  4 active torsions:
REMARK  status: ('A' for Active; 'I' for Inactive)
REMARK    1  A    between atoms: C2_2  and  C3_3 
REMARK    2  A    between atoms: C8_9  and  C9_10 
REMARK    3  A    between atoms: C11_12  and  O2_13 
REMARK    4  A    between atoms: C15_19  and  O4_20 
ROOT
HETATM    1  C3  UNL     1       0.368   0.129  -0.511  1.00  0.00    -0.004 C 
HETATM    2  C4  UNL     1      -0.477  -0.878  -0.419  1.00  0.00    -0.051 C 
HETATM    3  C5  UNL     1       0.028  -2.160   0.138  1.00  0.00     0.038 C 
HETATM    4  C6  UNL     1      -0.914  -3.316  -0.183  1.00  0.00     0.030 C 
HETATM    5  C7  UNL     1      -2.305  -2.789   0.170  1.00  0.00     0.169 C 
HETATM    6  O1  UNL     1      -2.625  -1.899  -0.822  1.00  0.00    -0.379 OA
HETATM    7  C8  UNL     1      -1.906  -0.747  -0.858  1.00  0.00     0.179 C 
ENDROOT
BRANCH   1   8
HETATM    8  C2  UNL     1       1.768   0.226  -0.153  1.00  0.00     0.035 C 
HETATM    9  C1  UNL     1       1.981  -0.208   1.291  1.00  0.00     0.027 C 
HETATM   10  C13 UNL     1       2.214   1.703  -0.154  1.00  0.00     0.023 C 
HETATM   11  C14 UNL     1       3.584   1.872  -0.749  1.00  0.00     0.033 C 
HETATM   12  C15 UNL     1       4.611   0.917  -0.232  1.00  0.00     0.125 C 
HETATM   13  C16 UNL     1       4.131  -0.521  -0.479  1.00  0.00     0.111 C 
HETATM   14  C17 UNL     1       2.728  -0.461  -1.043  1.00  0.00     0.141 C 
HETATM   15  O5  UNL     1       2.533  -0.952  -2.110  1.00  0.00    -0.297 OA
BRANCH  12  16
HETATM   16  O4  UNL     1       5.784   1.140  -0.952  1.00  0.00    -0.395 OA
ATOM     17  H4  UNL     1       6.437   0.533  -0.623  1.00  0.00     0.210 HD
ENDBRANCH  12  16
ENDBRANCH   1   8
BRANCH   7  18
HETATM   18  C9  UNL     1      -2.632   0.341  -0.151  1.00  0.00     0.157 C 
HETATM   19  C10 UNL     1      -4.026   0.572  -0.696  1.00  0.00     0.068 C 
HETATM   20  C11 UNL     1      -4.530   1.571   0.344  1.00  0.00     0.144 C 
HETATM   21  C12 UNL     1      -3.702   1.185   1.546  1.00  0.00     0.200 C 
HETATM   22  O3  UNL     1      -2.904   0.118   1.172  1.00  0.00    -0.380 OA
BRANCH  20  23
HETATM   23  O2  UNL     1      -4.138   2.830  -0.108  1.00  0.00    -0.393 OA
ATOM     24  H2  UNL     1      -4.451   3.451   0.539  1.00  0.00     0.210 HD
ENDBRANCH  20  23
ENDBRANCH   7  18
TORSDOF 4
