REMARK  13 active torsions:
REMARK  status: ('A' for Active; 'I' for Inactive)
REMARK    1  A    between atoms: C2_2  and  C3_3 
REMARK    2  A    between atoms: C3_3  and  O1_4 
REMARK    3  A    between atoms: O1_4  and  C4_5 
REMARK    4  A    between atoms: C6_9  and  N2_10 
REMARK       I    between atoms: N3_13  and  C9_14 
REMARK    5  A    between atoms: C9_14  and  C10_16 
REMARK    6  A    between atoms: C10_16  and  C11_17 
REMARK    7  A    between atoms: C10_16  and  N4_23 
REMARK    8  A    between atoms: C11_17  and  C12_18 
REMARK    9  A    between atoms: C12_18  and  C13_19 
REMARK       I    between atoms: N4_23  and  C17_25 
REMARK   10  A    between atoms: C17_25  and  C18_27 
REMARK   11  A    between atoms: C18_27  and  N5_28 
REMARK       I    between atoms: N5_28  and  C19_30 
REMARK   12  A    between atoms: C19_30  and  O5_32 
REMARK   13  A    between atoms: O5_32  and  C20_33 
ROOT
HETATM    1  C10 UNL     1      -1.216  -1.129   0.987  1.00  0.00     0.176 C 
ENDROOT
BRANCH   1   2
HETATM    2  C9  UNL     1       0.195  -1.219   1.361  1.00  0.00     0.242 C 
HETATM    3  N3  UNL     1       1.272  -1.551   0.496  1.00  0.00    -0.347 N 
HETATM    4  C8  UNL     1       2.614  -1.696   1.054  1.00  0.00     0.146 C 
HETATM    5  C25 UNL     1       1.136  -1.722  -0.947  1.00  0.00     0.146 C 
HETATM    6  C7  UNL     1       3.647  -1.816  -0.050  1.00  0.00     0.161 C 
HETATM    7  N2  UNL     1       3.352  -0.758  -0.995  1.00  0.00    -0.214 N 
HETATM    8  C26 UNL     1       2.046  -0.677  -1.592  1.00  0.00     0.161 C 
HETATM    9  O2  UNL     1       0.483  -0.976   2.588  1.00  0.00    -0.271 OA
BRANCH   7  10
HETATM   10  C6  UNL     1       4.350   0.192  -1.317  1.00  0.00     0.680 A 
HETATM   11  N1  UNL     1       5.596   0.112  -0.782  1.00  0.00    -0.199 N 
HETATM   12  C5  UNL     1       6.546   1.004  -1.069  1.00  0.00     0.144 A 
ATOM     13  H1  UNL     1       5.812  -0.652  -0.142  1.00  0.00     0.183 HD
HETATM   14  C4  UNL     1       6.308   2.073  -1.942  1.00  0.00     0.100 A 
HETATM   15  C27 UNL     1       5.035   2.112  -2.458  1.00  0.00     0.144 A 
HETATM   16  N7  UNL     1       4.097   1.205  -2.154  1.00  0.00    -0.199 N 
ATOM     17  H7  UNL     1       3.169   1.288  -2.570  1.00  0.00     0.183 HD
BRANCH  14  18
HETATM   18  O1  UNL     1       7.325   2.925  -2.172  1.00  0.00    -0.348 OA
BRANCH  18  19
HETATM   19  C3  UNL     1       7.507   4.047  -2.928  1.00  0.00     0.175 C 
BRANCH  19  20
HETATM   20  C2  UNL     1       7.339   3.867  -4.412  1.00  0.00     0.022 C 
HETATM   21  C1  UNL     1       8.341   2.852  -4.930  1.00  0.00     0.007 C 
ENDBRANCH  19  20
ENDBRANCH  18  19
ENDBRANCH  14  18
ENDBRANCH   7  10
ENDBRANCH   1   2
BRANCH   1  22
HETATM   22  C11 UNL     1      -1.967  -2.398   1.506  1.00  0.00     0.035 C 
BRANCH  22  23
HETATM   23  C12 UNL     1      -1.311  -3.581   0.877  1.00  0.00     0.011 C 
BRANCH  23  24
HETATM   24  C13 UNL     1      -1.957  -4.883   1.281  1.00  0.00    -0.051 C 
HETATM   25  C14 UNL     1      -1.931  -5.123   2.771  1.00  0.00     0.014 C 
HETATM   26  C15 UNL     1      -1.125  -6.005   0.663  1.00  0.00     0.014 C 
HETATM   27  C16 UNL     1      -3.362  -5.012   0.741  1.00  0.00     0.014 C 
ENDBRANCH  23  24
ENDBRANCH  22  23
ENDBRANCH   1  22
BRANCH   1  28
HETATM   28  N4  UNL     1      -1.856   0.022   1.656  1.00  0.00    -0.344 N 
HETATM   29  C17 UNL     1      -2.936   0.701   1.083  1.00  0.00     0.275 C 
HETATM   30  O3  UNL     1      -3.362   0.304  -0.016  1.00  0.00    -0.269 OA
ATOM     31  H4  UNL     1      -1.500   0.330   2.561  1.00  0.00     0.163 HD
BRANCH  29  32
HETATM   32  C18 UNL     1      -3.552   1.848   1.765  1.00  0.00     0.282 C 
HETATM   33  C22 UNL     1      -3.048   2.095   3.149  1.00  0.00     0.074 C 
HETATM   34  C23 UNL     1      -1.819   2.933   2.998  1.00  0.00     0.032 C 
HETATM   35  C24 UNL     1      -1.736   3.189   1.499  1.00  0.00     0.236 C 
HETATM   36  N6  UNL     1      -3.092   3.039   1.025  1.00  0.00    -0.039 N 
ATOM     37  H62 UNL     1      -3.190   2.980   0.011  1.00  0.00     0.280 HD
ATOM     38  H61 UNL     1      -3.679   3.866   1.132  1.00  0.00     0.280 HD
BRANCH  32  39
HETATM   39  N5  UNL     1      -5.007   1.844   1.745  1.00  0.00    -0.296 N 
HETATM   40  C19 UNL     1      -5.824   1.941   0.626  1.00  0.00     0.362 C 
HETATM   41  O4  UNL     1      -5.412   2.055  -0.550  1.00  0.00    -0.238 OA
ATOM     42  H5  UNL     1      -5.476   1.761   2.647  1.00  0.00     0.167 HD
BRANCH  40  43
HETATM   43  O5  UNL     1      -7.224   1.913   0.818  1.00  0.00    -0.304 OA
BRANCH  43  44
HETATM   44  C20 UNL     1      -8.043   2.015  -0.315  1.00  0.00     0.176 C 
HETATM   45  C21 UNL     1      -7.819   3.326  -1.000  1.00  0.00     0.034 C 
ENDBRANCH  43  44
ENDBRANCH  40  43
ENDBRANCH  32  39
ENDBRANCH  29  32
ENDBRANCH   1  28
TORSDOF 13
