REMARK  11 active torsions:
REMARK  status: ('A' for Active; 'I' for Inactive)
REMARK    1  A    between atoms: C3_5  and  C4_6 
REMARK    2  A    between atoms: N4_14  and  C7_15 
REMARK    3  A    between atoms: C7_15  and  C8_16 
REMARK    4  A    between atoms: C8_16  and  O2_17 
REMARK    5  A    between atoms: C8_16  and  N5_19 
REMARK       I    between atoms: N5_19  and  C9_21 
REMARK    6  A    between atoms: C9_21  and  C10_23 
REMARK    7  A    between atoms: C10_23  and  O4_24 
REMARK    8  A    between atoms: C10_23  and  C11_26 
REMARK    9  A    between atoms: C11_26  and  O5_29 
REMARK   10  A    between atoms: C14_31  and  N6_32 
REMARK   11  A    between atoms: C16_40  and  N10_41 
ROOT
HETATM    1  C4  UNL     1      -2.727   0.458  -0.602  1.00  0.00     0.166 A 
HETATM    2  N2  UNL     1      -2.108  -0.509  -1.281  1.00  0.00    -0.170 N 
ATOM      3  H2  UNL     1      -2.257  -0.726  -2.267  1.00  0.00     0.186 HD
HETATM    4  C5  UNL     1      -1.242  -1.165  -0.450  1.00  0.00     0.724 A 
HETATM    5  N3  UNL     1      -0.399  -2.194  -0.637  1.00  0.00    -0.138 N 
ATOM      6  H3  UNL     1      -0.318  -2.643  -1.549  1.00  0.00     0.189 HD
HETATM    7  C6  UNL     1       0.348  -2.625   0.424  1.00  0.00     0.355 A 
HETATM    8  O1  UNL     1       1.129  -3.584   0.248  1.00  0.00    -0.245 OA
HETATM    9  N4  UNL     1       0.268  -2.060   1.634  1.00  0.00    -0.126 N 
HETATM   10  C14 UNL     1      -0.585  -1.032   1.790  1.00  0.00     0.718 A 
HETATM   11  N7  UNL     1      -1.349  -0.574   0.749  1.00  0.00     0.092 N 
HETATM   12  N8  UNL     1      -2.246   0.405   0.652  1.00  0.00    -0.247 N 
ATOM     13  H8  UNL     1      -2.526   1.022   1.414  1.00  0.00     0.190 HD
ENDROOT
BRANCH   9  14
HETATM   14  C7  UNL     1       1.072  -2.524   2.708  1.00  0.00     0.206 C 
BRANCH  14  15
HETATM   15  C8  UNL     1       2.360  -1.817   2.946  1.00  0.00     0.239 C 
BRANCH  15  16
HETATM   16  O2  UNL     1       3.048  -2.379   4.052  1.00  0.00    -0.375 OA
ATOM     17  H2  UNL     1       3.870  -1.928   4.204  1.00  0.00     0.212 HD
ENDBRANCH  15  16
BRANCH  15  18
HETATM   18  N5  UNL     1       3.269  -1.913   1.827  1.00  0.00    -0.331 N 
HETATM   19  C9  UNL     1       3.808  -0.789   1.165  1.00  0.00     0.251 C 
HETATM   20  O3  UNL     1       3.477   0.352   1.567  1.00  0.00    -0.270 OA
ATOM     21  H5  UNL     1       3.535  -2.841   1.498  1.00  0.00     0.165 HD
BRANCH  19  22
HETATM   22  C10 UNL     1       4.732  -0.960   0.038  1.00  0.00     0.243 C 
BRANCH  22  23
HETATM   23  O4  UNL     1       4.861  -2.325  -0.216  1.00  0.00    -0.383 OA
ATOM     24  H4  UNL     1       5.459  -2.436  -0.946  1.00  0.00     0.210 HD
ENDBRANCH  22  23
BRANCH  22  25
HETATM   25  C11 UNL     1       4.302  -0.285  -1.238  1.00  0.00     0.085 C 
HETATM   26  C12 UNL     1       3.050  -0.929  -1.789  1.00  0.00     0.049 C 
HETATM   27  C13 UNL     1       4.152   1.198  -1.091  1.00  0.00     0.049 C 
BRANCH  25  28
HETATM   28  O5  UNL     1       5.304  -0.532  -2.186  1.00  0.00    -0.388 OA
ATOM     29  H5  UNL     1       5.033  -0.106  -2.991  1.00  0.00     0.210 HD
ENDBRANCH  25  28
ENDBRANCH  22  25
ENDBRANCH  19  22
ENDBRANCH  15  18
ENDBRANCH  14  15
ENDBRANCH   9  14
BRANCH  10  30
HETATM   30  N6  UNL     1      -0.731  -0.411   2.907  1.00  0.00    -0.232 N 
ATOM     31  H62 UNL     1      -0.162  -0.752   3.682  1.00  0.00     0.174 HD
ATOM     32  H61 UNL     1      -1.378   0.369   3.025  1.00  0.00     0.174 HD
ENDBRANCH  10  30
BRANCH   1  33
HETATM   33  C3  UNL     1      -3.727   1.420  -1.043  1.00  0.00     0.108 A 
HETATM   34  N1  UNL     1      -4.258   2.344  -0.228  1.00  0.00    -0.342 N 
HETATM   35  C2  UNL     1      -5.169   3.235  -0.591  1.00  0.00     0.079 A 
ATOM     36  H1  UNL     1      -3.938   2.362   0.740  1.00  0.00     0.167 HD
HETATM   37  C1  UNL     1      -5.724   4.244   0.374  1.00  0.00     0.089 C 
HETATM   38  N11 UNL     1      -5.596   3.216  -1.868  1.00  0.00    -0.331 N 
HETATM   39  C16 UNL     1      -5.133   2.339  -2.762  1.00  0.00     0.127 A 
ATOM     40  H11 UNL     1      -6.298   3.895  -2.163  1.00  0.00     0.168 HD
HETATM   41  C15 UNL     1      -4.176   1.411  -2.362  1.00  0.00     0.120 A 
HETATM   42  N9  UNL     1      -3.635   0.444  -3.260  1.00  0.00    -0.096 NA
BRANCH  39  43
HETATM   43  N10 UNL     1      -5.545   2.328  -3.978  1.00  0.00    -0.384 N 
ATOM     44 2H10 UNL     1      -5.191   1.658  -4.661  1.00  0.00     0.157 HD
ATOM     45 1H10 UNL     1      -6.246   3.008  -4.271  1.00  0.00     0.157 HD
ENDBRANCH  39  43
ENDBRANCH   1  33
TORSDOF 11
