REMARK  9 active torsions:
REMARK  status: ('A' for Active; 'I' for Inactive)
REMARK    1  A    between atoms: O1_2  and  N1_3 
REMARK    2  A    between atoms: C2_5  and  C3_6 
REMARK    3  A    between atoms: C2_5  and  N2_18 
REMARK    4  A    between atoms: C3_6  and  C4_7 
REMARK    5  A    between atoms: C7_11  and  O2_12 
REMARK    6  A    between atoms: N2_18  and  C11_20 
REMARK    7  A    between atoms: C11_20  and  C13_22 
REMARK    8  A    between atoms: C13_22  and  O3_23 
REMARK    9  A    between atoms: N3_25  and  O4_27 
ROOT
HETATM    1  N1  UNL     1      -1.801  -1.442   1.305  1.00  0.00    -0.255 N 
ATOM      2  H1  UNL     1      -2.715  -1.001   1.409  1.00  0.00     0.195 HD
HETATM    3  C2  UNL     1      -1.096  -1.174   0.259  1.00  0.00     0.102 C 
ENDROOT
BRANCH   3   4
HETATM    4  C3  UNL     1       0.218  -1.806   0.108  1.00  0.00     0.118 C 
BRANCH   4   5
HETATM    5  C4  UNL     1       1.367  -0.880   0.145  1.00  0.00    -0.031 A 
HETATM    6  C5  UNL     1       1.255   0.456   0.406  1.00  0.00     0.031 A 
HETATM    7  C6  UNL     1       2.384   1.281   0.435  1.00  0.00     0.046 A 
HETATM    8 BR1  UNL     1       2.212   3.140   0.801  1.00  0.00    -0.048 Br
HETATM    9  C7  UNL     1       3.638   0.772   0.202  1.00  0.00     0.104 A 
HETATM   10  C9  UNL     1       3.752  -0.573  -0.061  1.00  0.00     0.063 A 
HETATM   11 BR2  UNL     1       5.487  -1.269  -0.381  1.00  0.00    -0.047 Br
HETATM   12  C10 UNL     1       2.624  -1.383  -0.088  1.00  0.00     0.037 A 
HETATM   13 BR3  UNL     1       2.873  -3.230  -0.460  1.00  0.00    -0.049 Br
BRANCH   9  14
HETATM   14  O2  UNL     1       4.721   1.626   0.242  1.00  0.00    -0.353 OA
HETATM   15  C8  UNL     1       5.253   2.344  -0.826  1.00  0.00     0.210 C 
ENDBRANCH   9  14
ENDBRANCH   4   5
ENDBRANCH   3   4
BRANCH   3  16
HETATM   16  N2  UNL     1      -1.614  -0.280  -0.704  1.00  0.00    -0.366 N 
ATOM     17  H2  UNL     1      -1.092  -0.180  -1.575  1.00  0.00     0.161 HD
BRANCH  16  18
HETATM   18  C11 UNL     1      -2.820   0.507  -0.563  1.00  0.00     0.155 C 
HETATM   19  C12 UNL     1      -2.792   1.484   0.565  1.00  0.00     0.041 C 
BRANCH  18  20
HETATM   20  C13 UNL     1      -3.281   1.048  -1.852  1.00  0.00     0.158 C 
HETATM   21  N3  UNL     1      -3.375   2.273  -2.115  1.00  0.00    -0.249 N 
ATOM     22  H3  UNL     1      -3.711   2.482  -3.055  1.00  0.00     0.196 HD
BRANCH  20  23
HETATM   23  O3  UNL     1      -3.631   0.123  -2.834  1.00  0.00    -0.347 OA
ATOM     24  H3  UNL     1      -3.929   0.472  -3.666  1.00  0.00     0.219 HD
ENDBRANCH  20  23
BRANCH  21  25
HETATM   25  O4  UNL     1      -3.105   3.357  -1.360  1.00  0.00    -0.288 OA
ATOM     26  H4  UNL     1      -3.176   4.283  -1.559  1.00  0.00     0.244 HD
ENDBRANCH  21  25
ENDBRANCH  18  20
ENDBRANCH  16  18
ENDBRANCH   3  16
BRANCH   1  27
HETATM   27  O1  UNL     1      -1.371  -2.288   2.270  1.00  0.00    -0.284 OA
HETATM   28  C1  UNL     1      -1.681  -3.639   2.426  1.00  0.00     0.237 C 
ENDBRANCH   1  27
TORSDOF 9
