REMARK  11 active torsions:
REMARK  status: ('A' for Active; 'I' for Inactive)
REMARK    1  A    between atoms: N1_2  and  S1_4 
REMARK    2  A    between atoms: S1_4  and  C2_7 
REMARK    3  A    between atoms: C4_9  and  C5_10 
REMARK    4  A    between atoms: N4_15  and  C6_16 
REMARK    5  A    between atoms: C6_16  and  C7_17 
REMARK    6  A    between atoms: C7_17  and  O3_18 
REMARK    7  A    between atoms: C7_17  and  C8_20 
REMARK    8  A    between atoms: C8_20  and  N5_21 
REMARK    9  A    between atoms: C12_28  and  C13_29 
REMARK   10  A    between atoms: C13_29  and  N7_30 
REMARK   11  A    between atoms: N10_35  and  O5_37 
ROOT
HETATM    1  C7  UNL     1      -1.006  -1.546   0.471  1.00  0.00     0.157 C 
ENDROOT
BRANCH   1   2
HETATM    2  C6  UNL     1      -0.519  -0.139   0.585  1.00  0.00     0.204 C 
BRANCH   2   3
HETATM    3  N4  UNL     1       0.842  -0.092   0.001  1.00  0.00    -0.215 N 
HETATM    4  N3  UNL     1       1.179   0.150  -1.249  1.00  0.00    -0.224 N 
HETATM    5  N2  UNL     1       2.488   0.108  -1.393  1.00  0.00    -0.268 N 
ATOM      6  H3  UNL     1       0.518   0.343  -2.001  1.00  0.00     0.210 HD
HETATM    7  C5  UNL     1       3.006  -0.171  -0.192  1.00  0.00     0.148 A 
ATOM      8  H2  UNL     1       3.008   0.260  -2.257  1.00  0.00     0.190 HD
HETATM    9  N11 UNL     1       1.974  -0.290   0.653  1.00  0.00    -0.266 N 
ATOM     10  H11 UNL     1       2.050  -0.501   1.648  1.00  0.00     0.190 HD
BRANCH   7  11
HETATM   11  C4  UNL     1       4.460  -0.311   0.103  1.00  0.00     0.019 A 
HETATM   12  C3  UNL     1       5.438  -0.170  -0.816  1.00  0.00     0.048 A 
HETATM   13  C2  UNL     1       6.726  -0.330  -0.392  1.00  0.00     0.120 A 
HETATM   14  S2  UNL     1       6.555  -0.671   1.263  1.00  0.00    -0.087 SA
HETATM   15  C15 UNL     1       4.857  -0.604   1.385  1.00  0.00     0.066 A 
BRANCH  13  16
HETATM   16  S1  UNL     1       8.209  -0.210  -1.341  1.00  0.00     0.265 S 
HETATM   17  O1  UNL     1       7.833   0.136  -2.732  1.00  0.00    -0.200 OA
HETATM   18  O2  UNL     1       8.966  -1.498  -1.318  1.00  0.00    -0.200 OA
BRANCH  16  19
HETATM   19  N1  UNL     1       9.155   1.040  -0.655  1.00  0.00    -0.319 N 
HETATM   20  C1  UNL     1       8.493   2.312  -0.706  1.00  0.00     0.159 C 
ATOM     21  H1  UNL     1      10.083   0.897  -0.256  1.00  0.00     0.171 HD
ENDBRANCH  16  19
ENDBRANCH  13  16
ENDBRANCH   7  11
ENDBRANCH   2   3
ENDBRANCH   1   2
BRANCH   1  22
HETATM   22  O3  UNL     1      -0.034  -2.314   1.203  1.00  0.00    -0.392 OA
ATOM     23  H3  UNL     1      -0.344  -3.209   1.130  1.00  0.00     0.210 HD
ENDBRANCH   1  22
BRANCH   1  24
HETATM   24  C8  UNL     1      -2.288  -1.865   1.138  1.00  0.00     0.160 C 
BRANCH  24  25
HETATM   25  N5  UNL     1      -3.493  -1.287   0.663  1.00  0.00    -0.335 N 
HETATM   26  C9  UNL     1      -4.254  -1.912  -0.372  1.00  0.00     0.237 C 
HETATM   27  O4  UNL     1      -3.675  -2.527  -1.289  1.00  0.00    -0.272 OA
HETATM   28  C10 UNL     1      -5.739  -1.859  -0.402  1.00  0.00     0.217 C 
HETATM   29  N6  UNL     1      -6.271  -0.803   0.408  1.00  0.00    -0.411 N 
HETATM   30  C11 UNL     1      -5.510  -0.491   1.590  1.00  0.00     0.147 C 
ATOM     31  H6  UNL     1      -7.128  -0.307   0.164  1.00  0.00     0.153 HD
HETATM   32  C12 UNL     1      -4.070  -0.087   1.219  1.00  0.00     0.174 C 
BRANCH  32  33
HETATM   33  C13 UNL     1      -4.074   1.090   0.359  1.00  0.00     0.128 C 
HETATM   34  N10 UNL     1      -3.493   2.215   0.707  1.00  0.00    -0.255 N 
ATOM     35  H10 UNL     1      -3.525   3.009   0.068  1.00  0.00     0.195 HD
BRANCH  33  36
HETATM   36  N7  UNL     1      -4.704   1.124  -0.911  1.00  0.00    -0.319 N 
HETATM   37  C14 UNL     1      -4.184   1.503  -2.002  1.00  0.00     0.202 C 
HETATM   38  N8  UNL     1      -2.849   1.970  -2.135  1.00  0.00    -0.066 NA
HETATM   39  N9  UNL     1      -5.019   1.452  -3.177  1.00  0.00    -0.066 NA
ATOM     40  H7  UNL     1      -5.674   0.812  -0.950  1.00  0.00     0.169 HD
ENDBRANCH  33  36
BRANCH  34  41
HETATM   41  O5  UNL     1      -2.843   2.350   1.909  1.00  0.00    -0.288 OA
ATOM     42  H5  UNL     1      -2.423   3.164   2.161  1.00  0.00     0.244 HD
ENDBRANCH  34  41
ENDBRANCH  32  33
ENDBRANCH  24  25
ENDBRANCH   1  24
TORSDOF 11
