REMARK  12 active torsions:
REMARK  status: ('A' for Active; 'I' for Inactive)
REMARK    1  A    between atoms: N1_1  and  C1_4 
REMARK    2  A    between atoms: N3_7  and  C2_8 
REMARK    3  A    between atoms: C2_8  and  O1_9 
REMARK    4  A    between atoms: C2_8  and  C3_11 
REMARK    5  A    between atoms: C3_11  and  O2_12 
REMARK    6  A    between atoms: C3_11  and  C4_14 
REMARK    7  A    between atoms: C4_14  and  O3_15 
REMARK    8  A    between atoms: C5_17  and  N4_18 
REMARK    9  A    between atoms: N4_18  and  N5_20 
REMARK   10  A    between atoms: C6_22  and  C7_23 
REMARK   11  A    between atoms: C11_27  and  N6_28 
REMARK   12  A    between atoms: N7_32  and  N8_33 
ROOT
HETATM    1  C1  UNL     1      -2.168   2.728  -0.040  1.00  0.00     0.727 A 
HETATM    2  N2  UNL     1      -3.118   2.020  -0.654  1.00  0.00    -0.107 N 
ATOM      3  H2  UNL     1      -3.996   2.393  -1.014  1.00  0.00     0.207 HD
HETATM    4  N3  UNL     1      -2.730   0.737  -0.721  1.00  0.00    -0.047 N 
HETATM    5  C5  UNL     1      -1.523   0.699  -0.129  1.00  0.00     0.756 A 
HETATM    6  N7  UNL     1      -1.152   1.942   0.306  1.00  0.00     0.087 N 
ENDROOT
BRANCH   5   7
HETATM    7  N4  UNL     1      -0.777  -0.330   0.035  1.00  0.00    -0.128 N 
ATOM      8  H4  UNL     1      -1.097  -1.237  -0.305  1.00  0.00     0.205 HD
BRANCH   7   9
HETATM    9  N5  UNL     1       0.450  -0.239   0.662  1.00  0.00    -0.297 N 
HETATM   10  C6  UNL     1       1.575  -0.413   0.052  1.00  0.00     0.119 C 
ATOM     11  H5  UNL     1       0.469  -0.023   1.659  1.00  0.00     0.186 HD
BRANCH  10  12
HETATM   12  C7  UNL     1       2.831  -0.305   0.762  1.00  0.00    -0.017 A 
HETATM   13  C8  UNL     1       2.830  -0.019   2.103  1.00  0.00     0.013 A 
HETATM   14  C9  UNL     1       4.022   0.089   2.799  1.00  0.00     0.003 A 
HETATM   15  C10 UNL     1       5.234  -0.092   2.153  1.00  0.00     0.036 A 
HETATM   16  C11 UNL     1       5.228  -0.385   0.785  1.00  0.00     0.103 A 
HETATM   17  C12 UNL     1       4.046  -0.488   0.110  1.00  0.00     0.048 A 
BRANCH  16  18
HETATM   18  N6  UNL     1       6.479  -0.568   0.137  1.00  0.00    -0.116 N 
HETATM   19  O4  UNL     1       7.550  -0.474   0.752  1.00  0.00    -0.532 OA
HETATM   20  O5  UNL     1       6.483  -0.853  -1.196  1.00  0.00    -0.532 OA
ENDBRANCH  16  18
ENDBRANCH  10  12
ENDBRANCH   7   9
ENDBRANCH   5   7
BRANCH   4  21
HETATM   21  C2  UNL     1      -3.529  -0.250  -1.315  1.00  0.00     0.187 C 
BRANCH  21  22
HETATM   22  O1  UNL     1      -4.671   0.176  -1.795  1.00  0.00    -0.346 OA
ATOM     23  H1  UNL     1      -5.212  -0.493  -2.198  1.00  0.00     0.219 HD
ENDBRANCH  21  22
BRANCH  21  24
HETATM   24  C3  UNL     1      -3.347  -1.676  -1.514  1.00  0.00     0.218 C 
BRANCH  24  25
HETATM   25  O2  UNL     1      -2.231  -2.305  -1.116  1.00  0.00    -0.385 OA
ATOM     26  H2  UNL     1      -2.112  -3.238  -1.246  1.00  0.00     0.210 HD
ENDBRANCH  24  25
BRANCH  24  27
HETATM   27  C4  UNL     1      -4.566  -2.473  -1.015  1.00  0.00     0.204 C 
BRANCH  27  28
HETATM   28  O3  UNL     1      -5.750  -1.892  -1.385  1.00  0.00    -0.398 OA
ATOM     29  H3  UNL     1      -6.502  -2.384  -1.077  1.00  0.00     0.209 HD
ENDBRANCH  27  28
ENDBRANCH  24  27
ENDBRANCH  21  24
ENDBRANCH   4  21
BRANCH   6  30
HETATM   30  N8  UNL     1       0.035   2.273   0.962  1.00  0.00    -0.309 N 
ATOM     31  H82 UNL     1       0.312   3.200   1.286  1.00  0.00     0.178 HD
ATOM     32  H81 UNL     1       0.814   1.670   1.227  1.00  0.00     0.178 HD
ENDBRANCH   6  30
BRANCH   1  33
HETATM   33  N1  UNL     1      -2.203   4.005   0.200  1.00  0.00    -0.231 N 
ATOM     34  H12 UNL     1      -2.982   4.608  -0.065  1.00  0.00     0.174 HD
ATOM     35  H11 UNL     1      -1.477   4.546   0.669  1.00  0.00     0.174 HD
ENDBRANCH   1  33
TORSDOF 12
