REMARK  11 active torsions:
REMARK  status: ('A' for Active; 'I' for Inactive)
REMARK    1  A    between atoms: O1_2  and  C2_3 
REMARK    2  A    between atoms: C5_6  and  O2_7 
REMARK    3  A    between atoms: O2_7  and  C6_8 
REMARK    4  A    between atoms: C6_8  and  C7_9 
REMARK    5  A    between atoms: C7_9  and  O3_10 
REMARK    6  A    between atoms: O3_10  and  C8_11 
REMARK    7  A    between atoms: C8_11  and  C9_12 
REMARK    8  A    between atoms: C9_12  and  N1_13 
REMARK    9  A    between atoms: C11_18  and  C12_19 
REMARK   10  A    between atoms: C12_19  and  C13_20 
REMARK   11  A    between atoms: C17_24  and  C18_25 
ROOT
HETATM    1  C2  UNL     1       1.590   3.962   0.568  1.00  0.00     0.068 A 
HETATM    2  C3  UNL     1       0.743   3.773  -0.476  1.00  0.00     0.039 A 
HETATM    3  C4  UNL     1       0.231   2.512  -0.767  1.00  0.00     0.040 A 
HETATM    4  C5  UNL     1       0.555   1.401  -0.016  1.00  0.00     0.075 A 
HETATM    5  C11 UNL     1       1.434   1.633   1.056  1.00  0.00    -0.018 A 
HETATM    6  C20 UNL     1       1.938   2.878   1.341  1.00  0.00     0.047 A 
ENDROOT
BRANCH   5   7
HETATM    7  C12 UNL     1       1.844   0.510   1.901  1.00  0.00     0.080 C 
BRANCH   7   8
HETATM    8  C13 UNL     1       2.889  -0.321   1.262  1.00  0.00    -0.053 A 
HETATM    9  C14 UNL     1       4.199   0.171   1.255  1.00  0.00     0.007 A 
HETATM   10  C15 UNL     1       5.244  -0.533   0.699  1.00  0.00     0.002 A 
HETATM   11  C16 UNL     1       4.989  -1.777   0.124  1.00  0.00     0.015 A 
HETATM   12  C17 UNL     1       3.714  -2.286   0.115  1.00  0.00     0.005 A 
HETATM   13  C19 UNL     1       2.686  -1.546   0.686  1.00  0.00     0.022 A 
BRANCH  12  14
HETATM   14  C18 UNL     1       3.453  -3.590  -0.489  1.00  0.00     0.120 C 
HETATM   15  N4  UNL     1       4.398  -4.270  -1.016  1.00  0.00    -0.387 N 
ATOM     16  H42 UNL     1       5.340  -3.878  -1.003  1.00  0.00     0.157 HD
ATOM     17  H41 UNL     1       4.216  -5.181  -1.438  1.00  0.00     0.157 HD
HETATM   18  N5  UNL     1       2.142  -4.136  -0.507  1.00  0.00    -0.082 NA
ENDBRANCH  12  14
ENDBRANCH   7   8
ENDBRANCH   5   7
BRANCH   4  19
HETATM   19  O2  UNL     1       0.094   0.136  -0.240  1.00  0.00    -0.348 OA
BRANCH  19  20
HETATM   20  C6  UNL     1      -0.754  -0.420  -1.148  1.00  0.00     0.201 C 
BRANCH  20  21
HETATM   21  C7  UNL     1      -2.182   0.044  -1.129  1.00  0.00     0.194 C 
BRANCH  21  22
HETATM   22  O3  UNL     1      -2.862  -0.647  -2.129  1.00  0.00    -0.387 OA
BRANCH  22  23
HETATM   23  C8  UNL     1      -4.187  -0.327  -2.246  1.00  0.00     0.187 C 
BRANCH  23  24
HETATM   24  C9  UNL     1      -5.014  -0.586  -1.018  1.00  0.00     0.148 C 
BRANCH  24  25
HETATM   25  N1  UNL     1      -4.976  -1.989  -0.655  1.00  0.00    -0.365 N 
HETATM   26  C10 UNL     1      -5.193  -2.411   0.536  1.00  0.00     0.197 C 
HETATM   27  N2  UNL     1      -5.486  -1.482   1.566  1.00  0.00    -0.067 NA
HETATM   28  N3  UNL     1      -5.147  -3.780   0.847  1.00  0.00    -0.067 NA
ATOM     29  H1  UNL     1      -4.767  -2.673  -1.382  1.00  0.00     0.161 HD
ENDBRANCH  24  25
ENDBRANCH  23  24
ENDBRANCH  22  23
ENDBRANCH  21  22
ENDBRANCH  20  21
ENDBRANCH  19  20
ENDBRANCH   4  19
BRANCH   1  30
HETATM   30  O1  UNL     1       2.111   5.214   0.874  1.00  0.00    -0.356 OA
HETATM   31  C1  UNL     1       1.809   6.378   0.138  1.00  0.00     0.210 C 
ENDBRANCH   1  30
TORSDOF 11
