REMARK  13 active torsions:
REMARK  status: ('A' for Active; 'I' for Inactive)
REMARK    1  A    between atoms: C1_4  and  C2_6 
REMARK    2  A    between atoms: C6_10  and  C7_11 
REMARK    3  A    between atoms: C7_11  and  N3_12 
REMARK    4  A    between atoms: N3_12  and  C8_15 
REMARK    5  A    between atoms: C8_15  and  C9_16 
REMARK    6  A    between atoms: C9_16  and  O1_17 
REMARK    7  A    between atoms: O1_17  and  C10_18 
REMARK    8  A    between atoms: C10_18  and  C11_19 
REMARK    9  A    between atoms: C11_19  and  O2_20 
REMARK   10  A    between atoms: O2_20  and  C12_21 
REMARK   11  A    between atoms: C12_21  and  C13_22 
REMARK   12  A    between atoms: C14_23  and  C15_24 
REMARK   13  A    between atoms: C19_28  and  C20_29 
ROOT
HETATM    1  C9  UNL     1      -1.033   0.896   1.009  1.00  0.00     0.195 C 
ENDROOT
BRANCH   1   2
HETATM    2  C8  UNL     1      -2.133   1.927   0.899  1.00  0.00     0.258 C 
BRANCH   2   3
HETATM    3  N3  UNL     1      -3.368   1.217   0.619  1.00  0.00    -0.069 N 
ATOM      4  H32 UNL     1      -3.550   0.495   1.316  1.00  0.00     0.277 HD
ATOM      5  H31 UNL     1      -3.278   0.622  -0.205  1.00  0.00     0.277 HD
BRANCH   3   6
HETATM    6  C7  UNL     1      -4.488   2.129   0.495  1.00  0.00     0.270 C 
BRANCH   6   7
HETATM    7  C6  UNL     1      -5.736   1.396   0.207  1.00  0.00    -0.032 A 
HETATM    8  C5  UNL     1      -6.935   2.052   0.100  1.00  0.00     0.009 A 
HETATM    9  C4  UNL     1      -8.084   1.352  -0.170  1.00  0.00     0.002 A 
HETATM   10  C3  UNL     1      -8.039  -0.016  -0.335  1.00  0.00     0.015 A 
HETATM   11  C2  UNL     1      -6.834  -0.664  -0.226  1.00  0.00     0.005 A 
HETATM   12  C22 UNL     1      -5.683   0.033   0.044  1.00  0.00     0.023 A 
BRANCH  11  13
HETATM   13  C1  UNL     1      -6.750  -2.116  -0.396  1.00  0.00     0.120 C 
HETATM   14  N1  UNL     1      -7.823  -2.775  -0.648  1.00  0.00    -0.387 N 
ATOM     15  H12 UNL     1      -7.764  -3.786  -0.766  1.00  0.00     0.157 HD
ATOM     16  H11 UNL     1      -8.714  -2.285  -0.728  1.00  0.00     0.157 HD
HETATM   17  N2  UNL     1      -5.512  -2.796  -0.285  1.00  0.00    -0.082 NA
ENDBRANCH  11  13
ENDBRANCH   6   7
ENDBRANCH   3   6
ENDBRANCH   2   3
ENDBRANCH   1   2
BRANCH   1  18
HETATM   18  O1  UNL     1      -0.899   0.178  -0.150  1.00  0.00    -0.387 OA
BRANCH  18  19
HETATM   19  C10 UNL     1      -0.602   1.011  -1.210  1.00  0.00     0.193 C 
BRANCH  19  20
HETATM   20  C11 UNL     1       0.675   1.797  -1.033  1.00  0.00     0.195 C 
BRANCH  20  21
HETATM   21  O2  UNL     1       1.720   0.899  -0.889  1.00  0.00    -0.377 OA
BRANCH  21  22
HETATM   22  C12 UNL     1       2.945   1.543  -0.720  1.00  0.00     0.261 C 
BRANCH  22  23
HETATM   23  C13 UNL     1       3.997   0.536  -0.575  1.00  0.00    -0.075 C 
HETATM   24  C14 UNL     1       4.879  -0.287  -0.441  1.00  0.00    -0.065 C 
BRANCH  24  25
HETATM   25  C15 UNL     1       5.940  -1.247  -0.271  1.00  0.00     0.018 A 
HETATM   26  C16 UNL     1       5.674  -2.612  -0.289  1.00  0.00     0.020 A 
HETATM   27  C17 UNL     1       6.697  -3.527  -0.126  1.00  0.00     0.002 A 
HETATM   28  C18 UNL     1       7.991  -3.092   0.056  1.00  0.00     0.017 A 
HETATM   29  C19 UNL     1       8.297  -1.747   0.080  1.00  0.00     0.030 A 
HETATM   30  C21 UNL     1       7.246  -0.845  -0.087  1.00  0.00     0.037 A 
BRANCH  29  31
HETATM   31  C20 UNL     1       9.661  -1.301   0.271  1.00  0.00     0.265 C 
HETATM   32  N4  UNL     1       9.964   0.072   0.294  1.00  0.00    -0.057 NA
HETATM   33  O3  UNL     1      10.567  -2.142   0.416  1.00  0.00    -0.271 OA
ENDBRANCH  29  31
ENDBRANCH  24  25
ENDBRANCH  22  23
ENDBRANCH  21  22
ENDBRANCH  20  21
ENDBRANCH  19  20
ENDBRANCH  18  19
ENDBRANCH   1  18
TORSDOF 13
