REMARK  15 active torsions:
REMARK  status: ('A' for Active; 'I' for Inactive)
REMARK    1  A    between atoms: C2_2  and  O1_3 
REMARK    2  A    between atoms: O1_3  and  C3_4 
REMARK    3  A    between atoms: C3_4  and  C4_6 
REMARK    4  A    between atoms: C9_11  and  O3_12 
REMARK    5  A    between atoms: C11_17  and  O6_18 
REMARK    6  A    between atoms: C11_17  and  C12_20 
REMARK    7  A    between atoms: C12_20  and  N2_24 
REMARK    8  A    between atoms: N2_24  and  N3_26 
REMARK       I    between atoms: N3_26  and  C13_28 
REMARK    9  A    between atoms: C13_28  and  C14_30 
REMARK   10  A    between atoms: C16_34  and  C17_35 
REMARK   11  A    between atoms: C17_35  and  N5_36 
REMARK   12  A    between atoms: N5_36  and  N6_37 
REMARK       I    between atoms: N6_37  and  C18_39 
REMARK   13  A    between atoms: C18_39  and  C19_41 
REMARK   14  A    between atoms: C19_41  and  N7_42 
REMARK   15  A    between atoms: C19_41  and  C20_46 
ROOT
HETATM    1  N2  UNL     1      -1.473  -0.491   0.817  1.00  0.00    -0.283 N 
ATOM      2  H2  UNL     1      -1.458   0.303   1.458  1.00  0.00     0.188 HD
ENDROOT
BRANCH   1   3
HETATM    3  C12 UNL     1      -2.697  -0.939   0.318  1.00  0.00     0.140 C 
HETATM    4  N1  UNL     1      -2.971  -0.855  -0.943  1.00  0.00    -0.385 N 
ATOM      5  H12 UNL     1      -3.866  -1.182  -1.308  1.00  0.00     0.157 HD
ATOM      6  H11 UNL     1      -2.254  -0.443  -1.541  1.00  0.00     0.157 HD
BRANCH   3   7
HETATM    7  C11 UNL     1      -3.753  -1.546   1.199  1.00  0.00     0.236 A 
HETATM    8  C6  UNL     1      -5.041  -1.406   0.495  1.00  0.00     0.029 A 
HETATM    9  C5  UNL     1      -5.804  -0.289   0.146  1.00  0.00     0.034 A 
HETATM   10  C7  UNL     1      -5.474  -2.652   0.128  1.00  0.00     0.092 A 
HETATM   11  C4  UNL     1      -6.981  -0.357  -0.554  1.00  0.00     0.073 A 
HETATM   12  C9  UNL     1      -7.411  -1.623  -0.923  1.00  0.00     0.084 A 
HETATM   13  C8  UNL     1      -6.675  -2.737  -0.590  1.00  0.00     0.075 A 
HETATM   14  O4  UNL     1      -4.578  -3.602   0.580  1.00  0.00    -0.275 OA
HETATM   15  C10 UNL     1      -3.537  -3.002   1.258  1.00  0.00     0.312 A 
HETATM   16  O5  UNL     1      -2.568  -3.591   1.829  1.00  0.00    -0.260 OA
BRANCH  11  17
HETATM   17  C3  UNL     1      -7.740   0.855  -0.890  1.00  0.00     0.296 C 
HETATM   18  O2  UNL     1      -8.813   0.724  -1.536  1.00  0.00    -0.259 OA
BRANCH  17  19
HETATM   19  O1  UNL     1      -7.338   2.110  -0.537  1.00  0.00    -0.318 OA
BRANCH  19  20
HETATM   20  C2  UNL     1      -7.989   3.323  -0.798  1.00  0.00     0.174 C 
HETATM   21  C1  UNL     1      -9.336   3.394  -0.149  1.00  0.00     0.034 C 
ENDBRANCH  19  20
ENDBRANCH  17  19
ENDBRANCH  11  17
BRANCH  12  22
HETATM   22  O3  UNL     1      -8.608  -1.724  -1.640  1.00  0.00    -0.360 OA
ATOM     23  H3  UNL     1      -8.903  -2.591  -1.893  1.00  0.00     0.217 HD
ENDBRANCH  12  22
BRANCH   7  24
HETATM   24  O6  UNL     1      -3.814  -0.911   2.414  1.00  0.00    -0.369 OA
ATOM     25  H6  UNL     1      -2.984  -1.001   2.868  1.00  0.00     0.212 HD
ENDBRANCH   7  24
ENDBRANCH   3   7
ENDBRANCH   1   3
BRANCH   1  26
HETATM   26  N3  UNL     1      -0.268  -1.101   0.462  1.00  0.00    -0.264 N 
HETATM   27  C13 UNL     1       0.929  -0.449   0.817  1.00  0.00     0.278 C 
HETATM   28  O7  UNL     1       0.889   0.643   1.429  1.00  0.00    -0.265 OA
ATOM     29  H3  UNL     1      -0.255  -1.990  -0.038  1.00  0.00     0.190 HD
BRANCH  27  30
HETATM   30  C14 UNL     1       2.221  -1.030   0.475  1.00  0.00     0.091 A 
HETATM   31  C15 UNL     1       2.440  -2.229  -0.180  1.00  0.00     0.113 A 
HETATM   32  N4  UNL     1       3.660  -2.570  -0.396  1.00  0.00    -0.357 N 
HETATM   33  C16 UNL     1       4.669  -1.789   0.001  1.00  0.00     0.106 A 
ATOM     34  H4  UNL     1       3.861  -3.447  -0.876  1.00  0.00     0.166 HD
HETATM   35  S1  UNL     1       3.826  -0.499   0.724  1.00  0.00    -0.063 SA
BRANCH  33  36
HETATM   36  C17 UNL     1       6.112  -2.050  -0.195  1.00  0.00     0.246 C 
BRANCH  36  37
HETATM   37  N5  UNL     1       7.030  -1.405   0.083  1.00  0.00    -0.333 NA
BRANCH  37  38
HETATM   38  N6  UNL     1       8.018  -0.614   0.431  1.00  0.00    -0.202 N 
HETATM   39  C18 UNL     1       7.949   0.797   0.559  1.00  0.00     0.277 C 
HETATM   40  O8  UNL     1       6.883   1.418   0.368  1.00  0.00    -0.269 OA
ATOM     41  H6  UNL     1       8.917  -1.054   0.627  1.00  0.00     0.205 HD
BRANCH  39  42
HETATM   42  C19 UNL     1       9.166   1.616   0.932  1.00  0.00     0.276 C 
BRANCH  42  43
HETATM   43  N7  UNL     1       8.660   2.792   1.677  1.00  0.00    -0.066 N 
ATOM     44  H73 UNL     1       7.955   3.323   1.166  1.00  0.00     0.275 HD
ATOM     45  H72 UNL     1       8.076   2.546   2.476  1.00  0.00     0.275 HD
ATOM     46  H71 UNL     1       9.480   3.344   1.928  1.00  0.00     0.275 HD
ENDBRANCH  42  43
BRANCH  42  47
HETATM   47  C20 UNL     1       9.814   2.193  -0.334  1.00  0.00     0.038 C 
HETATM   48  C21 UNL     1      10.278   1.190  -1.321  1.00  0.00     0.007 C 
ENDBRANCH  42  47
ENDBRANCH  39  42
ENDBRANCH  37  38
ENDBRANCH  36  37
ENDBRANCH  33  36
ENDBRANCH  27  30
ENDBRANCH   1  26
TORSDOF 15
