REMARK  3 active torsions:
REMARK  status: ('A' for Active; 'I' for Inactive)
REMARK    1  A    between atoms: N1_2  and  C2_4 
REMARK    2  A    between atoms: C3_7  and  N3_8 
REMARK    3  A    between atoms: N4_13  and  N5_14 
ROOT
HETATM    1  C2  UNL     1      -0.690  -0.253   0.393  1.00  0.00     0.695 A 
HETATM    2  N2  UNL     1      -0.262   0.977   0.047  1.00  0.00    -0.170 N 
ATOM      3  H2  UNL     1      -0.833   1.792   0.274  1.00  0.00     0.186 HD
HETATM    4  C3  UNL     1       0.915   1.144  -0.597  1.00  0.00     0.186 A 
HETATM    5  C4  UNL     1       1.672   0.039  -0.895  1.00  0.00     0.325 A 
HETATM    6  O1  UNL     1       2.761   0.181  -1.490  1.00  0.00    -0.261 OA
HETATM    7  N4  UNL     1       1.237  -1.189  -0.545  1.00  0.00    -0.146 N 
HETATM    8  N6  UNL     1       0.077  -1.305   0.085  1.00  0.00    -0.108 N 
ATOM      9  H6  UNL     1      -0.245  -2.237   0.346  1.00  0.00     0.208 HD
ENDROOT
BRANCH   1  10
HETATM   10  N1  UNL     1      -1.809  -0.431   1.007  1.00  0.00    -0.229 N 
HETATM   11  C1  UNL     1      -2.667   0.678   1.359  1.00  0.00     0.165 C 
ATOM     12  H1  UNL     1      -2.097  -1.379   1.251  1.00  0.00     0.177 HD
ENDBRANCH   1  10
BRANCH   4  13
HETATM   13  N3  UNL     1       1.323   2.341  -0.930  1.00  0.00    -0.380 N 
ATOM     14  H32 UNL     1       0.760   3.162  -0.708  1.00  0.00     0.157 HD
ATOM     15  H31 UNL     1       2.211   2.467  -1.416  1.00  0.00     0.157 HD
ENDBRANCH   4  13
BRANCH   7  16
HETATM   16  N5  UNL     1       1.989  -2.318  -0.838  1.00  0.00    -0.320 N 
ATOM     17  H52 UNL     1       2.882  -2.229  -1.323  1.00  0.00     0.179 HD
ATOM     18  H51 UNL     1       1.660  -3.247  -0.573  1.00  0.00     0.179 HD
ENDBRANCH   7  16
TORSDOF 3
