REMARK  2 active torsions:
REMARK  status: ('A' for Active; 'I' for Inactive)
REMARK    1  A    between atoms: O1_1  and  C1_3 
REMARK    2  A    between atoms: C7_10  and  O3_11 
ROOT
HETATM    1  C1  UNL     1      -1.666  -0.109   0.264  1.00  0.00     0.171 C 
HETATM    2  C2  UNL     1      -1.190  -1.524  -0.095  1.00  0.00     0.202 C 
HETATM    3  O2  UNL     1       0.084  -1.598   0.515  1.00  0.00    -0.383 OA
HETATM    4  C3  UNL     1       0.960  -0.936  -0.288  1.00  0.00     0.128 C 
HETATM    5  C4  UNL     1       2.123  -0.360   0.506  1.00  0.00     0.033 C 
HETATM    6  C5  UNL     1       1.621   1.023   0.151  1.00  0.00     0.012 C 
HETATM    7  C6  UNL     1       0.573   0.401  -0.756  1.00  0.00     0.046 C 
HETATM    8  C7  UNL     1      -0.822   0.834  -0.548  1.00  0.00     0.155 C 
ENDROOT
BRANCH   1   9
HETATM    9  O1  UNL     1      -1.414   0.018   1.646  1.00  0.00    -0.391 OA
ATOM     10  H1  UNL     1      -1.709   0.893   1.868  1.00  0.00     0.210 HD
ENDBRANCH   1   9
BRANCH   8  11
HETATM   11  O3  UNL     1      -0.879   2.118   0.030  1.00  0.00    -0.392 OA
ATOM     12  H3  UNL     1      -0.346   2.714  -0.483  1.00  0.00     0.210 HD
ENDBRANCH   8  11
TORSDOF 2
