REMARK  0 active torsions:
REMARK  status: ('A' for Active; 'I' for Inactive)
ROOT
HETATM    1  C1  UNL     1      -1.165   2.319   1.423  1.00  0.00     0.054 C 
HETATM    2  C2  UNL     1      -0.808   1.250   0.966  1.00  0.00     0.177 C 
HETATM    3  N1  UNL     1      -0.409   0.031   0.469  1.00  0.00     0.114 N 
HETATM    4  O1  UNL     1       0.068  -0.811   1.397  1.00  0.00    -0.049 OA
HETATM    5  C3  UNL     1      -1.439  -0.612  -0.355  1.00  0.00     0.359 C 
HETATM    6  C4  UNL     1      -0.537  -1.559  -1.161  1.00  0.00     0.209 C 
HETATM    7  O2  UNL     1       0.608  -0.832  -1.378  1.00  0.00    -0.350 OA
HETATM    8  C5  UNL     1       0.607   0.258  -0.535  1.00  0.00     0.404 C 
HETATM    9  C6  UNL     1       1.966   0.503   0.089  1.00  0.00     0.082 C 
ENDROOT
TORSDOF 0
