REMARK  4 active torsions:
REMARK  status: ('A' for Active; 'I' for Inactive)
REMARK    1  A    between atoms: C3_3  and  O1_4 
REMARK    2  A    between atoms: O1_4  and  N1_5 
REMARK    3  A    between atoms: C12_16  and  C13_17 
REMARK    4  A    between atoms: C13_17  and  O3_18 
ROOT
HETATM    1  C1  UNL     1       5.941   2.339   1.455  1.00  0.00     0.014 C 
HETATM    2  C2  UNL     1       4.874   1.793   1.349  1.00  0.00    -0.089 C 
HETATM    3  C3  UNL     1       3.565   1.096   1.221  1.00  0.00     0.294 C 
ENDROOT
BRANCH   3   4
HETATM    4  O1  UNL     1       3.513   0.479  -0.029  1.00  0.00    -0.267 OA
BRANCH   4   5
HETATM    5  N1  UNL     1       2.534  -0.252  -0.539  1.00  0.00    -0.247 N 
HETATM    6  C4  UNL     1       1.305  -0.372  -0.242  1.00  0.00     0.143 C 
HETATM    7  C5  UNL     1       0.582   0.330   0.837  1.00  0.00     0.122 C 
HETATM    8  O4  UNL     1       0.498  -1.262  -0.997  1.00  0.00    -0.301 OA
HETATM    9  C6  UNL     1      -0.794  -0.304   1.011  1.00  0.00     0.161 C 
HETATM   10  O2  UNL     1      -0.623  -1.670   1.003  1.00  0.00    -0.345 OA
HETATM   11  C11 UNL     1      -1.748   0.206  -0.006  1.00  0.00    -0.052 C 
HETATM   12  C7  UNL     1      -0.427  -2.117  -0.306  1.00  0.00     0.169 C 
HETATM   13  C8  UNL     1       0.152  -3.490  -0.289  1.00  0.00     0.079 C 
HETATM   14  C9  UNL     1      -1.745  -2.010  -0.999  1.00  0.00     0.073 C 
HETATM   15  C10 UNL     1      -2.028  -0.543  -1.245  1.00  0.00     0.042 C 
HETATM   16  C12 UNL     1      -2.353   1.356   0.208  1.00  0.00     0.004 C 
ATOM     17  H1  UNL     1       2.824  -0.833  -1.325  1.00  0.00     0.196 HD
BRANCH  16  18
HETATM   18  C13 UNL     1      -3.321   2.044  -0.649  1.00  0.00     0.191 C 
BRANCH  18  19
HETATM   19  O3  UNL     1      -2.784   3.309  -0.993  1.00  0.00    -0.397 OA
ATOM     20  H3  UNL     1      -3.412   3.755  -1.549  1.00  0.00     0.209 HD
ENDBRANCH  18  19
ENDBRANCH  16  18
ENDBRANCH   4   5
ENDBRANCH   3   4
TORSDOF 4
