REMARK  5 active torsions:
REMARK  status: ('A' for Active; 'I' for Inactive)
REMARK    1  A    between atoms: C3_3  and  C4_4 
REMARK    2  A    between atoms: C14_17  and  C16_19 
REMARK    3  A    between atoms: C16_19  and  S1_21 
REMARK    4  A    between atoms: S1_21  and  S2_22 
REMARK    5  A    between atoms: S2_22  and  C18_23 
ROOT
HETATM    1  C1  UNL     1       0.567  -1.707  -0.878  1.00  0.00     0.045 C 
HETATM    2  C2  UNL     1       0.506  -0.269  -0.608  1.00  0.00    -0.066 C 
HETATM    3  C3  UNL     1       1.422   0.376   0.112  1.00  0.00    -0.028 C 
HETATM    4  C11 UNL     1       1.296   1.839   0.361  1.00  0.00     0.041 C 
HETATM    5  C12 UNL     1      -0.105   2.312   0.540  1.00  0.00     0.006 C 
HETATM    6  C13 UNL     1      -1.140   1.295   0.106  1.00  0.00     0.015 C 
HETATM    7  C14 UNL     1      -0.612   0.592  -1.142  1.00  0.00    -0.007 C 
HETATM    8  C15 UNL     1      -0.087   1.569  -2.164  1.00  0.00     0.021 C 
ENDROOT
BRANCH   3   9
HETATM    9  C4  UNL     1       2.571  -0.366   0.682  1.00  0.00     0.047 A 
HETATM   10  N1  UNL     1       2.514  -1.529   1.376  1.00  0.00    -0.363 N 
HETATM   11  C5  UNL     1       3.759  -1.934   1.725  1.00  0.00     0.118 A 
ATOM     12  H1  UNL     1       1.655  -2.029   1.604  1.00  0.00     0.165 HD
HETATM   13  C6  UNL     1       4.678  -1.024   1.256  1.00  0.00     0.054 A 
HETATM   14  C7  UNL     1       3.915  -0.053   0.609  1.00  0.00    -0.001 A 
HETATM   15  N2  UNL     1       6.067  -0.693   1.170  1.00  0.00    -0.383 N 
HETATM   16  C8  UNL     1       4.846   0.955   0.080  1.00  0.00     0.063 C 
HETATM   17  C9  UNL     1       6.180   0.216   0.047  1.00  0.00     0.127 C 
HETATM   18  C10 UNL     1       7.143  -1.184   2.037  1.00  0.00     0.149 C 
ENDBRANCH   3   9
BRANCH   7  19
HETATM   19  C16 UNL     1      -1.688  -0.214  -1.822  1.00  0.00     0.067 C 
HETATM   20  C17 UNL     1      -2.748   0.687  -2.362  1.00  0.00     0.023 C 
BRANCH  19  21
HETATM   21  S1  UNL     1      -2.383  -1.525  -0.831  1.00  0.00    -0.091 SA
BRANCH  21  22
HETATM   22  S2  UNL     1      -3.436  -0.866   0.825  1.00  0.00    -0.088 SA
BRANCH  22  23
HETATM   23  C18 UNL     1      -5.179  -0.614   0.633  1.00  0.00     0.007 C 
HETATM   24  C19 UNL     1      -5.561   0.537  -0.253  1.00  0.00     0.027 C 
HETATM   25  C20 UNL     1      -5.861  -0.311   1.984  1.00  0.00     0.027 C 
HETATM   26  C21 UNL     1      -5.875  -1.909   0.152  1.00  0.00     0.027 C 
ENDBRANCH  22  23
ENDBRANCH  21  22
ENDBRANCH  19  21
ENDBRANCH   7  19
TORSDOF 5
