REMARK  5 active torsions:
REMARK  status: ('A' for Active; 'I' for Inactive)
REMARK    1  A    between atoms: C2_4  and  N2_5 
REMARK    2  A    between atoms: N2_5  and  C3_7 
REMARK    3  A    between atoms: C5_12  and  C6_13 
REMARK    4  A    between atoms: C6_13  and  O1_14 
REMARK    5  A    between atoms: C7_16  and  O2_17 
ROOT
HETATM    1  C3  UNL     1       0.023  -1.080   0.445  1.00  0.00     0.138 C 
HETATM    2  C4  UNL     1       0.990  -1.228   1.576  1.00  0.00     0.260 C 
HETATM    3  N3  UNL     1       2.207  -0.531   1.208  1.00  0.00    -0.064 N 
ATOM      4  H31 UNL     1       3.058  -0.975   1.553  1.00  0.00     0.277 HD
ATOM      5  H32 UNL     1       2.335   0.359   1.690  1.00  0.00     0.277 HD
HETATM    6  C5  UNL     1       2.151  -0.415  -0.217  1.00  0.00     0.239 C 
HETATM    7  C7  UNL     1       0.687  -0.031  -0.418  1.00  0.00     0.175 C 
ENDROOT
BRANCH   1   8
HETATM    8  N2  UNL     1      -1.270  -0.692   0.919  1.00  0.00    -0.378 N 
ATOM      9  H2  UNL     1      -1.396  -0.563   1.923  1.00  0.00     0.160 HD
BRANCH   8  10
HETATM   10  C2  UNL     1      -2.390  -0.476   0.069  1.00  0.00     0.171 C 
HETATM   11  N1  UNL     1      -3.228   0.427   0.385  1.00  0.00    -0.391 N 
HETATM   12  C1  UNL     1      -4.407   0.773  -0.358  1.00  0.00     0.147 C 
ATOM     13  H1  UNL     1      -3.047   0.951   1.241  1.00  0.00     0.159 HD
ENDBRANCH   8  10
ENDBRANCH   1   8
BRANCH   7  14
HETATM   14  O2  UNL     1       0.485   1.255   0.042  1.00  0.00    -0.391 OA
ATOM     15  H2  UNL     1       0.902   1.914  -0.500  1.00  0.00     0.210 HD
ENDBRANCH   7  14
BRANCH   6  16
HETATM   16  C6  UNL     1       3.081   0.614  -0.786  1.00  0.00     0.199 C 
BRANCH  16  17
HETATM   17  O1  UNL     1       2.815   1.880  -0.300  1.00  0.00    -0.399 OA
ATOM     18  H1  UNL     1       3.404   2.532  -0.661  1.00  0.00     0.209 HD
ENDBRANCH  16  17
ENDBRANCH   6  16
TORSDOF 5
