REMARK  6 active torsions:
REMARK  status: ('A' for Active; 'I' for Inactive)
REMARK    1  A    between atoms: C1_2  and  C2_3 
REMARK       I    between atoms: C1_2  and  N4_17 
REMARK    2  A    between atoms: C2_3  and  S1_4 
REMARK    3  A    between atoms: S1_4  and  C3_5 
REMARK    4  A    between atoms: N3_11  and  C5_12 
REMARK    5  A    between atoms: N4_17  and  C10_18 
REMARK    6  A    between atoms: C10_18  and  C11_19 
ROOT
HETATM    1  C2  UNL     1      -0.233  -0.025   0.561  1.00  0.00     0.201 C 
ENDROOT
BRANCH   1   2
HETATM    2  C1  UNL     1       1.058   0.375   1.131  1.00  0.00     0.300 C 
HETATM    3  O1  UNL     1       1.382   0.621   2.226  1.00  0.00    -0.256 OA
HETATM    4  N4  UNL     1       2.050   0.387   0.043  1.00  0.00    -0.383 NA
BRANCH   4   5
HETATM    5  C10 UNL     1       2.955   0.398  -0.934  1.00  0.00     0.220 C 
BRANCH   5   6
HETATM    6  C11 UNL     1       3.842  -0.743  -1.290  1.00  0.00     0.374 C 
HETATM    7  N5  UNL     1       4.253  -1.400  -0.084  1.00  0.00    -0.043 N 
HETATM    8  C12 UNL     1       5.473  -2.194  -0.351  1.00  0.00     0.238 C 
ATOM      9  H52 UNL     1       4.379  -0.746   0.689  1.00  0.00     0.280 HD
ATOM     10  H51 UNL     1       3.506  -1.963   0.323  1.00  0.00     0.280 HD
HETATM   11  C13 UNL     1       6.536  -1.078  -0.542  1.00  0.00     0.054 C 
HETATM   12  C14 UNL     1       5.972   0.097  -1.313  1.00  0.00     0.172 C 
HETATM   13  O2  UNL     1       4.909  -0.290  -2.077  1.00  0.00    -0.354 OA
ENDBRANCH   5   6
ENDBRANCH   4   5
ENDBRANCH   1   2
BRANCH   1  14
HETATM   14  S1  UNL     1      -1.506   0.158   1.820  1.00  0.00    -0.082 SA
BRANCH  14  15
HETATM   15  C3  UNL     1      -2.369   1.625   1.416  1.00  0.00     0.163 A 
HETATM   16  N1  UNL     1      -1.912   2.900   1.628  1.00  0.00    -0.279 N 
HETATM   17  N2  UNL     1      -2.815   3.733   1.122  1.00  0.00    -0.294 N 
ATOM     18  H1  UNL     1      -1.040   3.161   2.089  1.00  0.00     0.189 HD
HETATM   19  C4  UNL     1      -3.769   2.999   0.617  1.00  0.00     0.202 A 
ATOM     20  H2  UNL     1      -2.771   4.752   1.127  1.00  0.00     0.187 HD
HETATM   21  N3  UNL     1      -3.524   1.701   0.795  1.00  0.00    -0.317 N 
BRANCH  21  22
HETATM   22  C5  UNL     1      -4.457   0.643   0.454  1.00  0.00     0.093 C 
HETATM   23  C6  UNL     1      -4.992   0.630  -0.915  1.00  0.00     0.026 C 
HETATM   24  C7  UNL     1      -5.966  -0.543  -0.788  1.00  0.00     0.002 C 
HETATM   25  C8  UNL     1      -5.412  -1.417   0.373  1.00  0.00     0.002 C 
HETATM   26  C9  UNL     1      -4.085  -0.749   0.725  1.00  0.00     0.026 C 
ENDBRANCH  21  22
ENDBRANCH  14  15
ENDBRANCH   1  14
TORSDOF 6
