REMARK  6 active torsions:
REMARK  status: ('A' for Active; 'I' for Inactive)
REMARK    1  A    between atoms: C2_2  and  C3_3 
REMARK    2  A    between atoms: C2_2  and  C12_22 
REMARK    3  A    between atoms: C3_3  and  C4_4 
REMARK    4  A    between atoms: C4_4  and  O1_5 
REMARK    5  A    between atoms: C4_4  and  C5_7 
REMARK    6  A    between atoms: C7_11  and  N2_12 
ROOT
HETATM    1  N2  UNL     1       3.349   0.161   0.236  1.00  0.00    -0.301 N 
HETATM    2  C8  UNL     1       4.008  -1.004   0.784  1.00  0.00     0.162 C 
HETATM    3  C9  UNL     1       5.497  -0.772   0.815  1.00  0.00     0.221 C 
HETATM    4  O2  UNL     1       5.826   0.070  -0.274  1.00  0.00    -0.277 OA
HETATM    5  N3  UNL     1       5.326   1.370  -0.179  1.00  0.00    -0.241 N 
ATOM      6  H3  UNL     1       5.901   2.203  -0.303  1.00  0.00     0.196 HD
HETATM    7  C10 UNL     1       4.053   1.412   0.083  1.00  0.00     0.212 C 
HETATM    8  C11 UNL     1       3.319   2.632   0.228  1.00  0.00     0.139 C 
HETATM    9  N4  UNL     1       2.736   3.630   0.360  1.00  0.00    -0.188 NA
ENDROOT
BRANCH   1  10
HETATM   10  C7  UNL     1       1.984   0.078  -0.160  1.00  0.00     0.153 A 
HETATM   11  N1  UNL     1       1.235  -1.006  -0.066  1.00  0.00    -0.345 N 
HETATM   12  C6  UNL     1       0.002  -0.977  -0.456  1.00  0.00     0.107 A 
ATOM     13  H1  UNL     1       1.629  -1.866   0.314  1.00  0.00     0.167 HD
HETATM   14  C5  UNL     1      -0.496   0.192  -0.961  1.00  0.00     0.030 A 
HETATM   15  S1  UNL     1       0.902   1.208  -0.835  1.00  0.00    -0.054 SA
BRANCH  14  16
HETATM   16  C4  UNL     1      -1.851   0.556  -1.478  1.00  0.00     0.160 C 
BRANCH  16  17
HETATM   17  C3  UNL     1      -2.912  -0.429  -1.186  1.00  0.00     0.048 C 
BRANCH  17  18
HETATM   18  C2  UNL     1      -3.230  -0.476   0.289  1.00  0.00     0.041 C 
HETATM   19  C1  UNL     1      -3.710   0.875   0.733  1.00  0.00     0.017 C 
BRANCH  18  20
HETATM   20  C12 UNL     1      -4.231  -1.560   0.467  1.00  0.00     0.054 C 
HETATM   21  N5  UNL     1      -5.417  -1.309   0.779  1.00  0.00    -0.396 N 
ATOM     22  H52 UNL     1      -5.698  -0.340   0.928  1.00  0.00     0.156 HD
ATOM     23  H51 UNL     1      -6.104  -2.053   0.901  1.00  0.00     0.156 HD
HETATM   24 BR1  UNL     1      -3.706  -3.373   0.189  1.00  0.00    -0.036 Br
ENDBRANCH  18  20
ENDBRANCH  17  18
ENDBRANCH  16  17
BRANCH  16  25
HETATM   25  O1  UNL     1      -2.117   1.857  -1.118  1.00  0.00    -0.390 OA
ATOM     26  H1  UNL     1      -1.435   2.491  -1.306  1.00  0.00     0.210 HD
ENDBRANCH  16  25
ENDBRANCH  14  16
ENDBRANCH   1  10
TORSDOF 6
