REMARK  10 active torsions:
REMARK  status: ('A' for Active; 'I' for Inactive)
REMARK    1  A    between atoms: C4_8  and  N4_9 
REMARK    2  A    between atoms: C5_14  and  N6_15 
REMARK    3  A    between atoms: N6_15  and  C6_17 
REMARK    4  A    between atoms: C6_17  and  C7_18 
REMARK    5  A    between atoms: C7_18  and  O1_19 
REMARK    6  A    between atoms: C7_18  and  C8_21 
REMARK    7  A    between atoms: C8_21  and  O2_22 
REMARK    8  A    between atoms: C8_21  and  C9_24 
REMARK    9  A    between atoms: C9_24  and  N7_25 
REMARK   10  A    between atoms: C11_29  and  N9_30 
ROOT
HETATM    1  N1  UNL     1       4.349   3.008  -2.551  1.00  0.00    -0.191 NA
HETATM    2  C1  UNL     1       4.296   2.179  -1.761  1.00  0.00     0.107 C 
HETATM    3  C2  UNL     1       4.211   1.150  -0.768  1.00  0.00     0.130 A 
HETATM    4  C3  UNL     1       5.379   0.598  -0.298  1.00  0.00     0.156 A 
HETATM    5  N2  UNL     1       6.659   1.016  -0.765  1.00  0.00    -0.080 NA
HETATM    6  N3  UNL     1       5.285  -0.369   0.636  1.00  0.00    -0.177 N 
ATOM      7  H3  UNL     1       6.135  -0.797   1.003  1.00  0.00     0.185 HD
HETATM    8  C4  UNL     1       4.090  -0.778   1.091  1.00  0.00     0.678 A 
HETATM    9  N5  UNL     1       2.942  -0.221   0.615  1.00  0.00    -0.176 N 
ATOM     10  H5  UNL     1       2.045  -0.547   0.975  1.00  0.00     0.186 HD
HETATM   11  C5  UNL     1       2.960   0.738  -0.308  1.00  0.00     0.141 A 
ENDROOT
BRANCH  11  12
HETATM   12  N6  UNL     1       1.938   1.303  -0.798  1.00  0.00    -0.372 N 
ATOM     13  H6  UNL     1       2.120   2.022  -1.498  1.00  0.00     0.161 HD
BRANCH  12  14
HETATM   14  C6  UNL     1       0.562   1.061  -0.495  1.00  0.00     0.155 C 
BRANCH  14  15
HETATM   15  C7  UNL     1      -0.097   0.128  -1.489  1.00  0.00     0.166 C 
BRANCH  15  16
HETATM   16  O1  UNL     1       0.579  -1.077  -1.463  1.00  0.00    -0.391 OA
ATOM     17  H1  UNL     1       0.166  -1.662  -2.087  1.00  0.00     0.210 HD
ENDBRANCH  15  16
BRANCH  15  18
HETATM   18  C8  UNL     1      -1.567   0.018  -1.255  1.00  0.00     0.166 C 
BRANCH  18  19
HETATM   19  O2  UNL     1      -2.109  -0.794  -2.257  1.00  0.00    -0.391 OA
ATOM     20  H2  UNL     1      -3.045  -0.864  -2.108  1.00  0.00     0.210 HD
ENDBRANCH  18  19
BRANCH  18  21
HETATM   21  C9  UNL     1      -1.857  -0.676   0.061  1.00  0.00     0.165 C 
BRANCH  21  22
HETATM   22  N7  UNL     1      -3.298  -0.780   0.284  1.00  0.00    -0.329 N 
HETATM   23  C10 UNL     1      -3.976  -1.845  -0.152  1.00  0.00     0.185 A 
HETATM   24  N8  UNL     1      -5.289  -1.938   0.052  1.00  0.00    -0.339 N 
HETATM   25  C11 UNL     1      -6.015  -1.010   0.684  1.00  0.00     0.102 A 
ATOM     26  H8  UNL     1      -5.770  -2.768  -0.295  1.00  0.00     0.168 HD
HETATM   27  C12 UNL     1      -5.301   0.104   1.139  1.00  0.00     0.093 A 
HETATM   28  C13 UNL     1      -3.945   0.193   0.925  1.00  0.00     0.122 A 
HETATM   29  N10 UNL     1      -3.259   1.337   1.401  1.00  0.00    -0.082 NA
BRANCH  25  30
HETATM   30  N9  UNL     1      -7.286  -1.114   0.874  1.00  0.00    -0.385 N 
ATOM     31  H92 UNL     1      -7.806  -1.926   0.542  1.00  0.00     0.157 HD
ATOM     32  H91 UNL     1      -7.840  -0.406   1.356  1.00  0.00     0.157 HD
ENDBRANCH  25  30
ENDBRANCH  21  22
ENDBRANCH  18  21
ENDBRANCH  15  18
ENDBRANCH  14  15
ENDBRANCH  12  14
ENDBRANCH  11  12
BRANCH   8  33
HETATM   33  N4  UNL     1       4.010  -1.697   1.978  1.00  0.00    -0.234 N 
ATOM     34  H42 UNL     1       4.870  -2.114   2.335  1.00  0.00     0.174 HD
ATOM     35  H41 UNL     1       3.102  -2.008   2.324  1.00  0.00     0.174 HD
ENDBRANCH   8  33
TORSDOF 10
