REMARK  9 active torsions:
REMARK  status: ('A' for Active; 'I' for Inactive)
REMARK    1  A    between atoms: N1_1  and  C1_4 
REMARK    2  A    between atoms: C2_9  and  S1_10 
REMARK    3  A    between atoms: S1_10  and  C3_11 
REMARK    4  A    between atoms: C3_11  and  C4_12 
REMARK    5  A    between atoms: C4_12  and  C5_13 
REMARK    6  A    between atoms: C5_13  and  N4_14 
REMARK    7  A    between atoms: C7_19  and  N6_20 
REMARK    8  A    between atoms: C10_30  and  N10_31 
REMARK    9  A    between atoms: N11_34  and  N12_35 
ROOT
HETATM    1  N4  UNL     1      -1.116  -0.370  -1.118  1.00  0.00    -0.224 N 
ATOM      2  H4  UNL     1      -1.019  -1.034  -1.886  1.00  0.00     0.177 HD
HETATM    3  C6  UNL     1      -2.302  -0.166  -0.743  1.00  0.00     0.702 C 
HETATM    4  N5  UNL     1      -3.214  -0.896  -1.463  1.00  0.00    -0.173 N 
ATOM      5  H5  UNL     1      -2.908  -1.213  -2.383  1.00  0.00     0.186 HD
HETATM    6  C7  UNL     1      -4.461  -1.244  -1.104  1.00  0.00     0.145 C 
HETATM    7  C8  UNL     1      -5.098  -1.083   0.118  1.00  0.00     0.122 A 
HETATM    8  N7  UNL     1      -6.220  -1.672   0.503  1.00  0.00    -0.278 N 
ATOM      9  H7  UNL     1      -6.766  -2.327  -0.056  1.00  0.00     0.184 HD
HETATM   10  N8  UNL     1      -6.523  -1.268   1.747  1.00  0.00    -0.021 NA
HETATM   11  N9  UNL     1      -5.584  -0.423   2.137  1.00  0.00    -0.278 N 
ATOM     12  H9  UNL     1      -5.552   0.046   3.042  1.00  0.00     0.184 HD
HETATM   13  C9  UNL     1      -4.679  -0.279   1.156  1.00  0.00     0.123 A 
HETATM   14  C10 UNL     1      -3.540   0.528   1.187  1.00  0.00     0.169 C 
HETATM   15  N11 UNL     1      -2.579   0.694   0.264  1.00  0.00    -0.074 N 
ENDROOT
BRANCH   1  16
HETATM   16  C5  UNL     1       0.101   0.172  -0.646  1.00  0.00     0.139 C 
BRANCH  16  17
HETATM   17  C4  UNL     1       1.228  -0.775  -1.115  1.00  0.00     0.031 C 
BRANCH  17  18
HETATM   18  C3  UNL     1       2.553  -0.229  -0.630  1.00  0.00     0.084 C 
BRANCH  18  19
HETATM   19  S1  UNL     1       3.927  -1.293  -1.145  1.00  0.00    -0.092 SA
BRANCH  19  20
HETATM   20  C2  UNL     1       5.454  -0.581  -0.535  1.00  0.00     0.174 A 
HETATM   21  N3  UNL     1       6.709  -1.060  -0.697  1.00  0.00    -0.265 N 
HETATM   22  N2  UNL     1       7.577  -0.248  -0.095  1.00  0.00    -0.130 N 
ATOM     23  H3  UNL     1       6.953  -1.912  -1.202  1.00  0.00     0.189 HD
HETATM   24  C1  UNL     1       6.900   0.769   0.467  1.00  0.00     0.692 A 
ATOM     25  H2  UNL     1       8.588  -0.377  -0.065  1.00  0.00     0.205 HD
HETATM   26  N13 UNL     1       5.604   0.548   0.188  1.00  0.00    -0.168 N 
ATOM     27  H13 UNL     1       4.837   1.152   0.483  1.00  0.00     0.186 HD
BRANCH  24  28
HETATM   28  N1  UNL     1       7.444   1.744   1.135  1.00  0.00    -0.233 N 
ATOM     29  H12 UNL     1       8.428   1.912   1.347  1.00  0.00     0.174 HD
ATOM     30  H11 UNL     1       6.931   2.515   1.561  1.00  0.00     0.174 HD
ENDBRANCH  24  28
ENDBRANCH  19  20
ENDBRANCH  18  19
ENDBRANCH  17  18
ENDBRANCH  16  17
ENDBRANCH   1  16
BRANCH  15  31
HETATM   31  N12 UNL     1      -1.779   1.829   0.298  1.00  0.00    -0.322 N 
ATOM     32 2H12 UNL     1      -1.049   1.955  -0.403  1.00  0.00     0.178 HD
ATOM     33 1H12 UNL     1      -1.988   2.477   1.057  1.00  0.00     0.178 HD
ENDBRANCH  15  31
BRANCH   6  34
HETATM   34  N6  UNL     1      -5.181  -1.809  -2.007  1.00  0.00    -0.383 N 
ATOM     35  H62 UNL     1      -4.713  -1.927  -2.905  1.00  0.00     0.157 HD
ATOM     36  H61 UNL     1      -6.128  -2.073  -1.734  1.00  0.00     0.157 HD
ENDBRANCH   6  34
BRANCH  14  37
HETATM   37  N10 UNL     1      -3.391   1.208   2.246  1.00  0.00    -0.382 N 
ATOM     38 2H10 UNL     1      -4.121   1.082   2.947  1.00  0.00     0.157 HD
ATOM     39 1H10 UNL     1      -2.559   1.798   2.269  1.00  0.00     0.157 HD
ENDBRANCH  14  37
TORSDOF 9
