REMARK  10 active torsions:
REMARK  status: ('A' for Active; 'I' for Inactive)
REMARK    1  A    between atoms: C2_2  and  C4_4 
REMARK    2  A    between atoms: C5_5  and  O1_6 
REMARK    3  A    between atoms: C6_8  and  O2_9 
REMARK    4  A    between atoms: C7_11  and  O3_12 
REMARK    5  A    between atoms: C9_15  and  N1_16 
REMARK    6  A    between atoms: C11_20  and  C12_21 
REMARK    7  A    between atoms: C12_21  and  O4_22 
REMARK    8  A    between atoms: N3_24  and  O5_26 
REMARK    9  A    between atoms: O5_26  and  C13_27 
REMARK   10  A    between atoms: C13_27  and  C14_28 
ROOT
HETATM    1  C4  UNL     1      -2.171   0.319  -0.645  1.00  0.00     0.044 C 
HETATM    2  C5  UNL     1      -3.154  -0.723  -0.981  1.00  0.00     0.155 C 
HETATM    3  C6  UNL     1      -3.703  -1.565   0.101  1.00  0.00     0.176 C 
HETATM    4  C7  UNL     1      -2.561  -2.069   0.938  1.00  0.00     0.151 C 
HETATM    5  C8  UNL     1      -1.884  -0.881   1.561  1.00  0.00     0.060 C 
HETATM    6  C9  UNL     1      -1.349   0.107   0.583  1.00  0.00     0.099 C 
ENDROOT
BRANCH   6   7
HETATM    7  N1  UNL     1       0.027  -0.278   0.283  1.00  0.00    -0.345 N 
HETATM    8  C10 UNL     1       0.367  -1.177  -0.669  1.00  0.00     0.183 A 
HETATM    9  N2  UNL     1       1.706  -1.292  -0.679  1.00  0.00    -0.348 N 
HETATM   10  C11 UNL     1       2.226  -0.469   0.264  1.00  0.00     0.102 A 
ATOM     11  H2  UNL     1       2.244  -1.900  -1.296  1.00  0.00     0.167 HD
HETATM   12  C15 UNL     1       1.169   0.154   0.853  1.00  0.00     0.126 A 
BRANCH  10  13
HETATM   13  C12 UNL     1       3.636  -0.306   0.564  1.00  0.00     0.189 C 
HETATM   14  N3  UNL     1       4.556  -0.951  -0.060  1.00  0.00    -0.243 N 
ATOM     15  H3  UNL     1       4.291  -1.605  -0.796  1.00  0.00     0.196 HD
BRANCH  13  16
HETATM   16  O4  UNL     1       4.013   0.579   1.561  1.00  0.00    -0.343 OA
ATOM     17  H4  UNL     1       4.936   0.686   1.757  1.00  0.00     0.219 HD
ENDBRANCH  13  16
BRANCH  14  18
HETATM   18  O5  UNL     1       5.882  -0.785   0.236  1.00  0.00    -0.276 OA
BRANCH  18  19
HETATM   19  C13 UNL     1       6.776  -0.108  -0.627  1.00  0.00     0.232 C 
BRANCH  19  20
HETATM   20  C14 UNL     1       8.168  -0.072  -0.055  1.00  0.00     0.250 C 
HETATM   21  F1  UNL     1       8.964   0.612  -0.978  1.00  0.00    -0.253 F 
ENDBRANCH  19  20
ENDBRANCH  18  19
ENDBRANCH  14  18
ENDBRANCH  10  13
ENDBRANCH   6   7
BRANCH   1  22
HETATM   22  C2  UNL     1      -2.746   1.727  -0.673  1.00  0.00    -0.014 C 
HETATM   23  C1  UNL     1      -1.651   2.736  -0.322  1.00  0.00     0.010 C 
HETATM   24  C3  UNL     1      -3.854   1.960   0.308  1.00  0.00     0.010 C 
ENDBRANCH   1  22
BRANCH   2  25
HETATM   25  O1  UNL     1      -4.228  -0.120  -1.683  1.00  0.00    -0.392 OA
ATOM     26  H1  UNL     1      -4.863  -0.793  -1.900  1.00  0.00     0.210 HD
ENDBRANCH   2  25
BRANCH   4  27
HETATM   27  O3  UNL     1      -3.100  -2.844   1.962  1.00  0.00    -0.393 OA
ATOM     28  H3  UNL     1      -2.378  -3.163   2.491  1.00  0.00     0.210 HD
ENDBRANCH   4  27
BRANCH   3  29
HETATM   29  O2  UNL     1      -4.740  -1.036   0.835  1.00  0.00    -0.390 OA
ATOM     30  H2  UNL     1      -5.093  -1.578   1.531  1.00  0.00     0.210 HD
ENDBRANCH   3  29
TORSDOF 10
