REMARK  0 active torsions:
REMARK  status: ('A' for Active; 'I' for Inactive)
ROOT
HETATM    1  C1  UNL     1       1.826   0.294   0.276  1.00  0.00     0.173 C 
HETATM    2  N1  UNL     1       0.413  -0.078   0.220  1.00  0.00    -0.304 N 
HETATM    3  N2  UNL     1      -0.298  -0.616   1.129  1.00  0.00    -0.231 N 
ATOM      4  H2  UNL     1       0.036  -0.872   2.058  1.00  0.00     0.205 HD
HETATM    5  N3  UNL     1      -1.606  -0.805   0.665  1.00  0.00    -0.014 NA
HETATM    6  N4  UNL     1      -1.751   0.184  -0.317  1.00  0.00    -0.104 NA
HETATM    7  C2  UNL     1      -0.440   0.112  -0.932  1.00  0.00     0.275 C 
ENDROOT
TORSDOF 0
