REMARK  1 active torsions:
REMARK  status: ('A' for Active; 'I' for Inactive)
REMARK    1  A    between atoms: N1_1  and  C1_5 
ROOT
HETATM    1  C1  UNL     1       0.585  -0.552  -0.306  1.00  0.00     0.209 C 
HETATM    2  C2  UNL     1      -0.299  -0.415   0.958  1.00  0.00     0.061 C 
HETATM    3  C3  UNL     1      -1.332  -0.237  -0.136  1.00  0.00     0.103 A 
HETATM    4  N2  UNL     1      -1.513   0.824  -0.981  1.00  0.00    -0.407 N 
ATOM      5  H2  UNL     1      -2.197   1.368  -1.508  1.00  0.00     0.154 HD
HETATM    6  C4  UNL     1      -0.188   0.688  -0.666  1.00  0.00     0.129 A 
ENDROOT
BRANCH   1   7
HETATM    7  N1  UNL     1       1.941  -0.338   0.050  1.00  0.00    -0.073 N 
ATOM      8  H13 UNL     1       2.081   0.553   0.526  1.00  0.00     0.274 HD
ATOM      9  H12 UNL     1       2.245  -0.953   0.805  1.00  0.00     0.274 HD
ATOM     10  H11 UNL     1       2.523  -0.428  -0.783  1.00  0.00     0.274 HD
ENDBRANCH   1   7
TORSDOF 1
