REMARK  0 active torsions:
REMARK  status: ('A' for Active; 'I' for Inactive)
ROOT
HETATM    1  N1  UNL     1      -2.218  -1.570  -1.218  1.00  0.00    -0.374 N 
ATOM      2  H11 UNL     1      -3.173  -1.378  -1.522  1.00  0.00     0.158 HD
ATOM      3  H12 UNL     1      -2.116  -2.583  -1.278  1.00  0.00     0.158 HD
HETATM    4  C1  UNL     1      -1.313  -0.771  -0.838  1.00  0.00     0.181 C 
HETATM    5  O1  UNL     1      -0.030  -1.029  -0.430  1.00  0.00    -0.291 OA
HETATM    6  C2  UNL     1       0.585  -0.034   0.266  1.00  0.00     0.072 C 
HETATM    7  C3  UNL     1       1.374  -0.161   1.319  1.00  0.00     0.089 C 
HETATM    8 BR1  UNL     1       2.178   1.321   2.207  1.00  0.00    -0.061 Br
HETATM    9  C4  UNL     1       0.274   1.327  -0.300  1.00  0.00     0.148 C 
HETATM   10  S1  UNL     1      -1.492   1.000  -0.733  1.00  0.00    -0.080 SA
ENDROOT
TORSDOF 0
