REMARK  1 active torsions:
REMARK  status: ('A' for Active; 'I' for Inactive)
REMARK    1  A    between atoms: C5_6  and  C6_7 
ROOT
HETATM    1 CL1  UNL     1      -3.207  -1.575  -0.967  1.00  0.00    -0.125 Cl
HETATM    2  C1  UNL     1      -2.063  -0.563  -0.102  1.00  0.00     0.083 C 
HETATM    3  C2  UNL     1      -2.004   0.853  -0.682  1.00  0.00     0.020 C 
HETATM    4  C3  UNL     1      -1.160   1.672   0.223  1.00  0.00     0.002 C 
HETATM    5  C4  UNL     1       0.148   1.123   0.596  1.00  0.00     0.012 C 
HETATM    6  C5  UNL     1       0.332  -0.339   0.565  1.00  0.00     0.057 C 
HETATM    7  C7  UNL     1      -0.654  -1.102  -0.260  1.00  0.00     0.032 C 
ENDROOT
BRANCH   6   8
HETATM    8  C6  UNL     1       1.693  -0.671   0.035  1.00  0.00     0.111 A 
HETATM    9  N1  UNL     1       2.688  -1.348   0.635  1.00  0.00    -0.274 N 
HETATM   10  N2  UNL     1       3.742  -1.432  -0.169  1.00  0.00    -0.007 NA
ATOM     11  H1  UNL     1       2.640  -1.741   1.575  1.00  0.00     0.185 HD
HETATM   12  N3  UNL     1       3.427  -0.807  -1.292  1.00  0.00    -0.007 NA
HETATM   13  N4  UNL     1       2.191  -0.342  -1.181  1.00  0.00    -0.274 N 
ATOM     14  H4  UNL     1       1.692   0.182  -1.900  1.00  0.00     0.185 HD
ENDBRANCH   6   8
TORSDOF 1
