REMARK  4 active torsions:
REMARK  status: ('A' for Active; 'I' for Inactive)
REMARK    1  A    between atoms: N1_1  and  N2_4 
REMARK       I    between atoms: N2_4  and  C1_6 
REMARK    2  A    between atoms: C1_6  and  C2_8 
REMARK    3  A    between atoms: C4_10  and  C5_11 
REMARK    4  A    between atoms: C6_12  and  C7_13 
ROOT
HETATM    1  C2  UNL     1       2.579  -0.362   0.237  1.00  0.00     0.119 A 
HETATM    2  C3  UNL     1       1.311   0.111   0.001  1.00  0.00     0.067 A 
HETATM    3  C4  UNL     1       0.413  -0.785   0.519  1.00  0.00     0.050 A 
HETATM    4  N6  UNL     1       1.131  -1.780   1.058  1.00  0.00    -0.300 N 
ATOM      5  H6  UNL     1       0.744  -2.601   1.524  1.00  0.00     0.187 HD
HETATM    6  N7  UNL     1       2.419  -1.532   0.891  1.00  0.00    -0.295 N 
ATOM      7  H7  UNL     1       3.178  -2.135   1.209  1.00  0.00     0.187 HD
ENDROOT
BRANCH   3   8
HETATM    8  C5  UNL     1      -1.066  -0.696   0.502  1.00  0.00     0.035 C 
HETATM    9  C6  UNL     1      -1.648   0.324  -0.053  1.00  0.00     0.051 C 
BRANCH   9  10
HETATM   10  C7  UNL     1      -3.075   0.516  -0.129  1.00  0.00     0.109 A 
HETATM   11  N3  UNL     1      -3.614   1.622  -0.734  1.00  0.00    -0.294 N 
HETATM   12  C8  UNL     1      -4.939   1.823  -0.817  1.00  0.00     0.326 A 
ATOM     13  H3  UNL     1      -2.985   2.318  -1.136  1.00  0.00     0.172 HD
HETATM   14  O2  UNL     1      -5.439   2.833  -1.368  1.00  0.00    -0.247 OA
HETATM   15  N4  UNL     1      -5.744   0.895  -0.283  1.00  0.00    -0.305 N 
HETATM   16  C9  UNL     1      -5.247  -0.219   0.326  1.00  0.00     0.186 A 
ATOM     17  H4  UNL     1      -6.754   1.025  -0.333  1.00  0.00     0.171 HD
HETATM   18  N5  UNL     1      -3.902  -0.397   0.397  1.00  0.00    -0.338 N 
ATOM     19  H5  UNL     1      -3.521  -1.227   0.851  1.00  0.00     0.168 HD
ENDBRANCH   9  10
ENDBRANCH   3   8
BRANCH   1  20
HETATM   20  C1  UNL     1       3.860   0.261  -0.138  1.00  0.00     0.287 C 
HETATM   21  N2  UNL     1       5.094  -0.361   0.182  1.00  0.00    -0.271 N 
ATOM     22  H2  UNL     1       5.088  -1.252   0.679  1.00  0.00     0.189 HD
HETATM   23  O1  UNL     1       3.833   1.356  -0.747  1.00  0.00    -0.264 OA
BRANCH  21  24
HETATM   24  N1  UNL     1       6.316   0.215  -0.166  1.00  0.00    -0.342 N 
ATOM     25  H12 UNL     1       6.304   1.106  -0.663  1.00  0.00     0.176 HD
ATOM     26  H11 UNL     1       7.203  -0.232   0.064  1.00  0.00     0.176 HD
ENDBRANCH  21  24
ENDBRANCH   1  20
TORSDOF 4
