REMARK  4 active torsions:
REMARK  status: ('A' for Active; 'I' for Inactive)
REMARK    1  A    between atoms: N1_3  and  C3_5 
REMARK    2  A    between atoms: C4_10  and  C5_11 
REMARK       I    between atoms: C5_11  and  N4_13 
REMARK    3  A    between atoms: N4_13  and  N5_14 
REMARK    4  A    between atoms: N6_17  and  N7_18 
ROOT
HETATM    1  C1  UNL     1       4.538   1.845   0.578  1.00  0.00     0.037 C 
HETATM    2  C2  UNL     1       3.769   0.987   0.197  1.00  0.00     0.015 C 
HETATM    3  N1  UNL     1       2.882  -0.036  -0.229  1.00  0.00    -0.146 N 
ATOM      4  H1  UNL     1       3.246  -0.878  -0.675  1.00  0.00     0.195 HD
ENDROOT
BRANCH   3   5
HETATM    5  C3  UNL     1       1.608   0.105  -0.048  1.00  0.00     0.727 A 
HETATM    6  N2  UNL     1       1.003   1.164   0.526  1.00  0.00    -0.128 N 
HETATM    7  N3  UNL     1      -0.300   0.908   0.506  1.00  0.00    -0.264 N 
ATOM      8  H2  UNL     1       1.456   1.997   0.901  1.00  0.00     0.205 HD
HETATM    9  C4  UNL     1      -0.515  -0.274  -0.061  1.00  0.00     0.244 A 
ATOM     10  H3  UNL     1      -1.026   1.525   0.871  1.00  0.00     0.189 HD
HETATM   11  N6  UNL     1       0.671  -0.778  -0.409  1.00  0.00    -0.066 N 
BRANCH   9  12
HETATM   12  C5  UNL     1      -1.870  -0.866  -0.253  1.00  0.00     0.382 C 
HETATM   13  O1  UNL     1      -1.859  -1.980  -0.807  1.00  0.00    -0.246 OA
HETATM   14  N4  UNL     1      -2.943  -0.167   0.172  1.00  0.00    -0.285 NA
BRANCH  14  15
HETATM   15  N5  UNL     1      -3.991   0.517   0.588  1.00  0.00    -0.276 N 
ATOM     16  H52 UNL     1      -3.152   0.020   0.290  1.00  0.00     0.191 HD
ATOM     17  H51 UNL     1      -4.802   1.045   0.909  1.00  0.00     0.191 HD
ENDBRANCH  14  15
ENDBRANCH   9  12
BRANCH  11  18
HETATM   18  N7  UNL     1       0.812  -2.023  -1.049  1.00  0.00    -0.322 N 
ATOM     19  H72 UNL     1       1.718  -2.408  -1.315  1.00  0.00     0.178 HD
ATOM     20  H71 UNL     1       0.097  -2.697  -1.324  1.00  0.00     0.178 HD
ENDBRANCH  11  18
ENDBRANCH   3   5
TORSDOF 4
