REMARK  2 active torsions:
REMARK  status: ('A' for Active; 'I' for Inactive)
REMARK    1  A    between atoms: N2_4  and  N3_6 
REMARK    2  A    between atoms: C2_11  and  N6_12 
ROOT
HETATM    1  N3  UNL     1       1.845  -0.117   0.102  1.00  0.00    -0.147 N 
HETATM    2  N4  UNL     1       1.855  -1.439  -0.087  1.00  0.00     0.004 NA
HETATM    3  N5  UNL     1       0.606  -1.888  -0.234  1.00  0.00    -0.275 N 
ATOM      4  H5  UNL     1       0.341  -2.860  -0.390  1.00  0.00     0.184 HD
HETATM    5  C1  UNL     1      -0.243  -0.855  -0.143  1.00  0.00     0.137 A 
HETATM    6  C2  UNL     1      -1.617  -0.744  -0.219  1.00  0.00     0.132 A 
HETATM    7  N7  UNL     1      -2.128   0.483  -0.078  1.00  0.00    -0.337 N 
ATOM      8  H7  UNL     1      -3.140   0.604  -0.129  1.00  0.00     0.168 HD
HETATM    9  C3  UNL     1      -1.357   1.560   0.128  1.00  0.00     0.183 A 
HETATM   10  N8  UNL     1      -0.032   1.446   0.200  1.00  0.00    -0.334 N 
ATOM     11  H8  UNL     1       0.540   2.276   0.357  1.00  0.00     0.168 HD
HETATM   12  C4  UNL     1       0.554   0.252   0.068  1.00  0.00     0.177 A 
ENDROOT
BRANCH   1  13
HETATM   13  N2  UNL     1       2.971   0.683   0.291  1.00  0.00    -0.228 N 
HETATM   14  N1  UNL     1       3.943   0.367   1.018  1.00  0.00    -0.329 N 
ATOM     15  H12 UNL     1       3.890  -0.534   1.493  1.00  0.00     0.178 HD
ATOM     16  H11 UNL     1       4.767   0.952   1.156  1.00  0.00     0.178 HD
ATOM     17  H2  UNL     1       3.007   1.581  -0.192  1.00  0.00     0.209 HD
ENDBRANCH   1  13
BRANCH   6  18
HETATM   18  N6  UNL     1      -2.388  -1.758  -0.416  1.00  0.00    -0.383 N 
ATOM     19  H62 UNL     1      -1.998  -2.694  -0.524  1.00  0.00     0.157 HD
ATOM     20  H61 UNL     1      -3.403  -1.676  -0.472  1.00  0.00     0.157 HD
ENDBRANCH   6  18
TORSDOF 2
