REMARK  4 active torsions:
REMARK  status: ('A' for Active; 'I' for Inactive)
REMARK    1  A    between atoms: N3_17  and  C11_18 
REMARK    2  A    between atoms: C11_18  and  C12_19 
REMARK    3  A    between atoms: C12_19  and  C13_20 
REMARK    4  A    between atoms: C15_22  and  N4_24 
ROOT
HETATM    1  C1  UNL     1      -1.469  -2.881   1.135  1.00  0.00     0.024 C 
HETATM    2  C2  UNL     1      -2.089  -1.837   0.637  1.00  0.00    -0.004 C 
HETATM    3  C3  UNL     1      -3.520  -1.589   0.684  1.00  0.00     0.102 C 
HETATM    4  N1  UNL     1      -4.421  -2.349   1.205  1.00  0.00    -0.385 N 
ATOM      5  H11 UNL     1      -5.425  -2.175   1.238  1.00  0.00     0.157 HD
ATOM      6  H12 UNL     1      -4.250  -3.244   1.664  1.00  0.00     0.157 HD
HETATM    7  N2  UNL     1      -3.762  -0.321   0.034  1.00  0.00    -0.369 N 
ATOM      8  H2  UNL     1      -4.623   0.222   0.103  1.00  0.00     0.161 HD
HETATM    9  C4  UNL     1      -2.587   0.062  -0.735  1.00  0.00     0.114 C 
HETATM   10  C5  UNL     1      -1.907   1.334  -0.218  1.00  0.00    -0.017 C 
HETATM   11  C6  UNL     1      -1.201   2.084  -1.294  1.00  0.00     0.018 C 
HETATM   12  C7  UNL     1      -2.985   2.220   0.399  1.00  0.00     0.018 C 
HETATM   13  C8  UNL     1      -1.145   0.502   0.717  1.00  0.00     0.076 C 
HETATM   14  C9  UNL     1      -1.490  -0.716  -0.059  1.00  0.00     0.100 C 
HETATM   15  C10 UNL     1      -0.281  -0.966  -0.861  1.00  0.00     0.237 C 
HETATM   16  O1  UNL     1      -0.282  -1.753  -1.862  1.00  0.00    -0.272 OA
HETATM   17  N3  UNL     1       0.830  -0.223  -0.362  1.00  0.00    -0.318 N 
HETATM   18  C15 UNL     1       0.322   0.527   0.760  1.00  0.00     0.202 C 
HETATM   19  C16 UNL     1       0.844   1.911   0.866  1.00  0.00     0.071 C 
ENDROOT
BRANCH  18  20
HETATM   20  N4  UNL     1       0.747  -0.217   1.959  1.00  0.00    -0.052 N 
ATOM     21  H43 UNL     1       0.319   0.134   2.816  1.00  0.00     0.277 HD
ATOM     22  H42 UNL     1       0.365  -1.162   1.995  1.00  0.00     0.277 HD
ATOM     23  H41 UNL     1       1.766  -0.200   1.989  1.00  0.00     0.277 HD
ENDBRANCH  18  20
BRANCH  17  24
HETATM   24  C11 UNL     1       2.123  -0.300  -0.947  1.00  0.00     0.128 C 
BRANCH  24  25
HETATM   25  C12 UNL     1       3.009  -1.369  -0.369  1.00  0.00     0.020 C 
BRANCH  25  26
HETATM   26  C13 UNL     1       4.341  -1.300  -1.115  1.00  0.00    -0.003 C 
HETATM   27  C14 UNL     1       4.969   0.067  -0.926  1.00  0.00     0.005 C 
ENDBRANCH  25  26
ENDBRANCH  24  25
ENDBRANCH  17  24
TORSDOF 4
