REMARK  5 active torsions:
REMARK  status: ('A' for Active; 'I' for Inactive)
REMARK    1  A    between atoms: C2_2  and  C3_3 
REMARK    2  A    between atoms: C3_3  and  N1_4 
REMARK    3  A    between atoms: N1_4  and  C4_6 
REMARK    4  A    between atoms: C7_11  and  C8_12 
REMARK       I    between atoms: C8_12  and  N3_14 
REMARK    5  A    between atoms: N3_14  and  C9_16 
ROOT
HETATM    1  C4  UNL     1      -2.342   0.929   0.206  1.00  0.00     0.145 A 
HETATM    2  N2  UNL     1      -1.900  -0.303  -0.060  1.00  0.00    -0.339 N 
ATOM      3  H2  UNL     1      -2.524  -1.107   0.005  1.00  0.00     0.168 HD
HETATM    4  C5  UNL     1      -0.649  -0.454  -0.406  1.00  0.00     0.030 A 
HETATM    5  C6  UNL     1      -0.048  -1.810  -0.728  1.00  0.00     0.070 C 
HETATM    6  C7  UNL     1       0.141   0.658  -0.477  1.00  0.00     0.098 A 
HETATM    7  S1  UNL     1      -0.957   1.895  -0.038  1.00  0.00    -0.047 SA
ENDROOT
BRANCH   6   8
HETATM    8  C8  UNL     1       1.552   0.793  -0.830  1.00  0.00     0.266 C 
HETATM    9  O1  UNL     1       2.061   1.938  -0.823  1.00  0.00    -0.267 OA
HETATM   10  N3  UNL     1       2.326  -0.310  -1.168  1.00  0.00    -0.307 N 
ATOM     11  H3  UNL     1       1.958  -0.963  -1.859  1.00  0.00     0.170 HD
BRANCH  10  12
HETATM   12  C9  UNL     1       3.482  -0.553  -0.657  1.00  0.00     0.124 A 
HETATM   13  C10 UNL     1       4.153   0.193   0.280  1.00  0.00     0.076 A 
HETATM   14  C11 UNL     1       5.365  -0.446   0.539  1.00  0.00     0.025 A 
HETATM   15  C12 UNL     1       6.393   0.035   1.496  1.00  0.00     0.070 C 
HETATM   16  N4  UNL     1       5.377  -1.532  -0.240  1.00  0.00    -0.304 N 
HETATM   17  N5  UNL     1       4.270  -1.600  -0.946  1.00  0.00    -0.285 N 
ATOM     18  H4  UNL     1       6.137  -2.211  -0.281  1.00  0.00     0.186 HD
ATOM     19  H5  UNL     1       4.044  -2.338  -1.613  1.00  0.00     0.188 HD
ENDBRANCH  10  12
ENDBRANCH   6   8
BRANCH   1  20
HETATM   20  N1  UNL     1      -3.529   1.339   0.567  1.00  0.00    -0.370 N 
ATOM     21  H1  UNL     1      -3.720   2.327   0.737  1.00  0.00     0.161 HD
BRANCH  20  22
HETATM   22  C3  UNL     1      -4.562   0.338   0.716  1.00  0.00     0.121 C 
BRANCH  22  23
HETATM   23  C2  UNL     1      -5.934   0.953   0.826  1.00  0.00     0.015 C 
HETATM   24  C1  UNL     1      -6.224   1.751  -0.419  1.00  0.00     0.006 C 
ENDBRANCH  22  23
ENDBRANCH  20  22
ENDBRANCH   1  20
TORSDOF 5
