REMARK  6 active torsions:
REMARK  status: ('A' for Active; 'I' for Inactive)
REMARK    1  A    between atoms: C2_2  and  C3_3 
REMARK    2  A    between atoms: C3_3  and  C6_6 
REMARK    3  A    between atoms: C6_6  and  N1_7 
REMARK    4  A    between atoms: N1_7  and  C7_8 
REMARK    5  A    between atoms: C11_16  and  N4_17 
REMARK    6  A    between atoms: C12_22  and  N6_23 
ROOT
HETATM    1  C7  UNL     1      -1.586   0.506  -1.401  1.00  0.00     0.209 A 
HETATM    2  N2  UNL     1      -2.359   1.293  -2.232  1.00  0.00    -0.319 N 
ATOM      3  H2  UNL     1      -3.370   1.268  -2.102  1.00  0.00     0.169 HD
HETATM    4  C8  UNL     1      -1.881   2.078  -3.186  1.00  0.00     0.080 A 
HETATM    5  C9  UNL     1      -2.776   2.913  -4.059  1.00  0.00     0.089 C 
HETATM    6  N3  UNL     1      -0.555   2.131  -3.379  1.00  0.00    -0.341 N 
ATOM      7  H3  UNL     1      -0.170   2.731  -4.108  1.00  0.00     0.167 HD
HETATM    8  C10 UNL     1       0.265   1.395  -2.613  1.00  0.00     0.110 A 
HETATM    9  C11 UNL     1       1.648   1.443  -2.806  1.00  0.00     0.144 A 
HETATM   10  N5  UNL     1       2.421   0.690  -2.014  1.00  0.00    -0.175 N 
ATOM     11  H5  UNL     1       3.431   0.725  -2.155  1.00  0.00     0.186 HD
HETATM   12  C12 UNL     1       1.940  -0.118  -1.034  1.00  0.00     0.682 A 
HETATM   13  N7  UNL     1       0.629  -0.176  -0.836  1.00  0.00    -0.184 N 
ATOM     14  H7  UNL     1       0.242  -0.775  -0.107  1.00  0.00     0.184 HD
HETATM   15  C18 UNL     1      -0.188   0.573  -1.618  1.00  0.00     0.138 A 
ENDROOT
BRANCH   1  16
HETATM   16  N1  UNL     1      -2.006  -0.198  -0.547  1.00  0.00    -0.400 NA
BRANCH  16  17
HETATM   17  C6  UNL     1      -2.477  -0.990   0.414  1.00  0.00     0.170 C 
BRANCH  17  18
HETATM   18  C3  UNL     1      -2.993  -0.273   1.669  1.00  0.00     0.014 C 
HETATM   19  C4  UNL     1      -1.914   0.598   2.265  1.00  0.00     0.026 C 
HETATM   20  C5  UNL     1      -4.109   0.644   1.214  1.00  0.00     0.026 C 
BRANCH  18  21
HETATM   21  C2  UNL     1      -3.470  -1.307   2.611  1.00  0.00    -0.022 C 
HETATM   22  C1  UNL     1      -2.579  -2.147   3.125  1.00  0.00     0.008 C 
ENDBRANCH  18  21
ENDBRANCH  17  18
ENDBRANCH  16  17
ENDBRANCH   1  16
BRANCH   9  23
HETATM   23  N4  UNL     1       2.086   2.205  -3.729  1.00  0.00    -0.383 N 
ATOM     24  H42 UNL     1       1.497   2.779  -4.333  1.00  0.00     0.157 HD
ATOM     25  H41 UNL     1       3.096   2.240  -3.870  1.00  0.00     0.157 HD
ENDBRANCH   9  23
BRANCH  12  26
HETATM   26  N6  UNL     1       2.817  -0.892  -0.228  1.00  0.00    -0.218 N 
HETATM   27  C13 UNL     1       4.246  -0.794  -0.470  1.00  0.00     0.141 C 
HETATM   28  C14 UNL     1       4.845  -0.288   0.850  1.00  0.00     0.020 C 
HETATM   29  C15 UNL     1       4.545  -1.314   1.900  1.00  0.00     0.003 C 
HETATM   30  C16 UNL     1       3.055  -1.391   2.151  1.00  0.00     0.020 C 
HETATM   31  C17 UNL     1       2.415  -1.781   0.829  1.00  0.00     0.141 C 
ENDBRANCH  12  26
TORSDOF 6
