REMARK  14 active torsions:
REMARK  status: ('A' for Active; 'I' for Inactive)
REMARK    1  A    between atoms: C2_3  and  N2_4 
REMARK       I    between atoms: N2_4  and  C3_6 
REMARK    2  A    between atoms: C3_6  and  C4_8 
REMARK    3  A    between atoms: C4_8  and  N3_9 
REMARK    4  A    between atoms: C4_8  and  O2_13 
REMARK    5  A    between atoms: C4_8  and  C5_15 
REMARK    6  A    between atoms: C5_15  and  C6_16 
REMARK    7  A    between atoms: C6_16  and  C7_17 
REMARK    8  A    between atoms: C7_17  and  N4_18 
REMARK    9  A    between atoms: C7_17  and  C18_47 
REMARK       I    between atoms: N4_18  and  C8_20 
REMARK   10  A    between atoms: C8_20  and  C9_22 
REMARK   11  A    between atoms: C11_26  and  N6_27 
REMARK   12  A    between atoms: C14_30  and  N7_31 
REMARK   13  A    between atoms: C17_39  and  N9_40 
REMARK   14  A    between atoms: N9_40  and  N10_42 
ROOT
HETATM    1  N1  UNL     1       8.795  -3.152  -1.719  1.00  0.00    -0.196 NA
HETATM    2  C1  UNL     1       8.845  -1.987  -1.633  1.00  0.00     0.078 C 
HETATM    3  C2  UNL     1       8.897  -0.509  -1.554  1.00  0.00     0.247 C 
ENDROOT
BRANCH   3   4
HETATM    4  N2  UNL     1       7.529  -0.089  -1.186  1.00  0.00    -0.344 N 
HETATM    5  C3  UNL     1       7.012  -0.571   0.017  1.00  0.00     0.286 C 
HETATM    6  O1  UNL     1       7.710  -1.327   0.770  1.00  0.00    -0.268 OA
ATOM      7  H2  UNL     1       6.984   0.529  -1.788  1.00  0.00     0.163 HD
BRANCH   5   8
HETATM    8  C4  UNL     1       5.641  -0.276   0.497  1.00  0.00     0.322 C 
BRANCH   8   9
HETATM    9  N3  UNL     1       5.670   1.130   0.956  1.00  0.00    -0.034 N 
ATOM     10  H33 UNL     1       6.395   1.319   1.649  1.00  0.00     0.279 HD
ATOM     11  H32 UNL     1       6.005   1.784   0.248  1.00  0.00     0.279 HD
ATOM     12  H31 UNL     1       4.727   1.333   1.286  1.00  0.00     0.279 HD
ENDBRANCH   8   9
BRANCH   8  13
HETATM   13  O2  UNL     1       5.329  -1.088   1.552  1.00  0.00    -0.355 OA
ATOM     14  H2  UNL     1       4.450  -0.899   1.860  1.00  0.00     0.213 HD
ENDBRANCH   8  13
BRANCH   8  15
HETATM   15  C5  UNL     1       4.670  -0.414  -0.639  1.00  0.00     0.049 C 
BRANCH  15  16
HETATM   16  C6  UNL     1       3.233  -0.325  -0.455  1.00  0.00     0.008 C 
BRANCH  16  17
HETATM   17  C7  UNL     1       2.461   0.773  -0.002  1.00  0.00     0.197 C 
BRANCH  17  18
HETATM   18  N4  UNL     1       0.999   0.319  -0.006  1.00  0.00    -0.341 N 
HETATM   19  C8  UNL     1      -0.063   1.150   0.129  1.00  0.00     0.257 C 
HETATM   20  O3  UNL     1      -0.011   2.415   0.231  1.00  0.00    -0.267 OA
ATOM     21  H4  UNL     1       0.811  -0.677  -0.118  1.00  0.00     0.164 HD
BRANCH  19  22
HETATM   22  C9  UNL     1      -1.397   0.595   0.181  1.00  0.00     0.093 A 
HETATM   23  C10 UNL     1      -1.964   0.499   1.457  1.00  0.00     0.127 A 
HETATM   24  N5  UNL     1      -3.241   0.056   1.536  1.00  0.00    -0.200 N 
HETATM   25  C11 UNL     1      -3.955  -0.287   0.460  1.00  0.00     0.685 A 
ATOM     26  H5  UNL     1      -3.676  -0.019   2.455  1.00  0.00     0.183 HD
HETATM   27  N8  UNL     1      -3.396  -0.204  -0.753  1.00  0.00    -0.174 N 
HETATM   28  C17 UNL     1      -2.107   0.243  -0.904  1.00  0.00     0.153 A 
ATOM     29  H8  UNL     1      -3.934  -0.476  -1.575  1.00  0.00     0.186 HD
BRANCH  25  30
HETATM   30  N6  UNL     1      -5.371  -0.533   0.596  1.00  0.00    -0.197 N 
HETATM   31  C12 UNL     1      -6.035  -1.711   0.873  1.00  0.00     0.084 C 
HETATM   32  C13 UNL     1      -7.529  -1.520   0.628  1.00  0.00     0.078 C 
HETATM   33  C14 UNL     1      -7.798  -0.664  -0.582  1.00  0.00     0.189 C 
HETATM   34  C15 UNL     1      -7.257   0.712  -0.465  1.00  0.00     0.053 C 
HETATM   35  C16 UNL     1      -6.104   0.748   0.442  1.00  0.00     0.148 C 
BRANCH  33  36
HETATM   36  N7  UNL     1      -9.248  -0.526  -0.711  1.00  0.00    -0.075 N 
ATOM     37  H73 UNL     1      -9.731  -1.424  -0.744  1.00  0.00     0.274 HD
ATOM     38  H72 UNL     1      -9.690  -0.167   0.136  1.00  0.00     0.274 HD
ATOM     39  H71 UNL     1      -9.430   0.054  -1.530  1.00  0.00     0.274 HD
ENDBRANCH  33  36
ENDBRANCH  25  30
BRANCH  28  40
HETATM   40  N9  UNL     1      -1.505   0.363  -2.203  1.00  0.00    -0.270 N 
ATOM     41  H9  UNL     1      -1.083  -0.444  -2.662  1.00  0.00     0.190 HD
BRANCH  40  42
HETATM   42  N10 UNL     1      -1.513   1.475  -2.751  1.00  0.00    -0.248 N 
HETATM   43  N11 UNL     1      -1.989   2.456  -3.374  1.00  0.00    -0.331 N 
ATOM     44 2H11 UNL     1      -2.943   2.114  -3.490  1.00  0.00     0.178 HD
ATOM     45 1H11 UNL     1      -1.996   3.371  -3.825  1.00  0.00     0.178 HD
ATOM     46  H10 UNL     1      -0.548   1.775  -2.611  1.00  0.00     0.207 HD
ENDBRANCH  40  42
ENDBRANCH  28  40
ENDBRANCH  19  22
ENDBRANCH  17  18
BRANCH  17  47
HETATM   47  C18 UNL     1       2.521   1.385   1.328  1.00  0.00     0.257 C 
HETATM   48  N12 UNL     1       2.611   0.620   2.517  1.00  0.00    -0.060 NA
HETATM   49  O4  UNL     1       2.477   2.637   1.469  1.00  0.00    -0.274 OA
ENDBRANCH  17  47
ENDBRANCH  16  17
ENDBRANCH  15  16
ENDBRANCH   8  15
ENDBRANCH   5   8
ENDBRANCH   3   4
TORSDOF 14
