REMARK  12 active torsions:
REMARK  status: ('A' for Active; 'I' for Inactive)
REMARK    1  A    between atoms: C2_2  and  C3_3 
REMARK    2  A    between atoms: C3_3  and  C5_5 
REMARK    3  A    between atoms: C5_5  and  N1_6 
REMARK    4  A    between atoms: C5_5  and  C6_10 
REMARK       I    between atoms: C6_10  and  N2_12 
REMARK    5  A    between atoms: N2_12  and  C7_14 
REMARK    6  A    between atoms: C7_14  and  C8_15 
REMARK    7  A    between atoms: C8_15  and  N3_16 
REMARK    8  A    between atoms: N3_16  and  C9_17 
REMARK    9  A    between atoms: C12_25  and  C13_26 
REMARK   10  A    between atoms: C13_26  and  N6_27 
REMARK   11  A    between atoms: C14_30  and  N8_31 
REMARK   12  A    between atoms: C15_36  and  C16_37 
ROOT
HETATM    1  C9  UNL     1      -0.599  -0.409  -2.077  1.00  0.00     0.272 A 
HETATM    2  N4  UNL     1       0.002   0.775  -1.725  1.00  0.00    -0.279 N 
ATOM      3  H4  UNL     1      -0.286   1.629  -2.203  1.00  0.00     0.173 HD
HETATM    4  C10 UNL     1       0.946   0.858  -0.786  1.00  0.00     0.295 A 
HETATM    5  O2  UNL     1       1.486   1.950  -0.475  1.00  0.00    -0.264 OA
HETATM    6  C11 UNL     1       1.357  -0.272  -0.123  1.00  0.00     0.202 A 
HETATM    7  N5  UNL     1       2.302  -0.170   0.812  1.00  0.00    -0.324 N 
ATOM      8  H5  UNL     1       2.709   0.741   1.024  1.00  0.00     0.169 HD
HETATM    9  C12 UNL     1       2.720  -1.255   1.473  1.00  0.00     0.107 A 
HETATM   10  N10 UNL     1       2.158  -2.418   1.156  1.00  0.00    -0.295 N 
ATOM     11  H10 UNL     1       2.460  -3.261   1.645  1.00  0.00     0.172 HD
HETATM   12  C19 UNL     1       1.211  -2.519   0.218  1.00  0.00     0.348 A 
HETATM   13  O3  UNL     1       0.665  -3.621  -0.096  1.00  0.00    -0.245 OA
HETATM   14  N11 UNL     1       0.779  -1.434  -0.456  1.00  0.00    -0.179 N 
HETATM   15  N12 UNL     1      -0.150  -1.505  -1.383  1.00  0.00    -0.247 N 
ATOM     16  H12 UNL     1      -0.556  -2.416  -1.597  1.00  0.00     0.192 HD
ENDROOT
BRANCH   1  17
HETATM   17  N3  UNL     1      -1.445  -0.465  -2.914  1.00  0.00    -0.413 NA
BRANCH  17  18
HETATM   18  C8  UNL     1      -2.378  -0.363  -3.872  1.00  0.00     0.241 C 
BRANCH  18  19
HETATM   19  C7  UNL     1      -2.944   1.068  -4.052  1.00  0.00     0.156 C 
BRANCH  19  20
HETATM   20  N2  UNL     1      -3.540   1.431  -2.788  1.00  0.00    -0.357 N 
HETATM   21  C6  UNL     1      -4.642   0.843  -2.163  1.00  0.00     0.248 C 
HETATM   22  O1  UNL     1      -5.250  -0.093  -2.712  1.00  0.00    -0.271 OA
ATOM     23  H2  UNL     1      -3.105   2.209  -2.293  1.00  0.00     0.162 HD
BRANCH  21  24
HETATM   24  C5  UNL     1      -5.112   1.312  -0.848  1.00  0.00     0.278 C 
BRANCH  24  25
HETATM   25  C3  UNL     1      -5.682   0.194  -0.022  1.00  0.00     0.021 C 
HETATM   26  C4  UNL     1      -4.819  -1.008   0.124  1.00  0.00     0.012 C 
BRANCH  25  27
HETATM   27  C2  UNL     1      -6.256   0.592   1.289  1.00  0.00     0.002 C 
HETATM   28  C1  UNL     1      -7.105  -0.595   1.787  1.00  0.00     0.005 C 
ENDBRANCH  25  27
ENDBRANCH  24  25
BRANCH  24  29
HETATM   29  N1  UNL     1      -4.044   1.964  -0.143  1.00  0.00    -0.066 N 
ATOM     30  H13 UNL     1      -4.339   2.286   0.779  1.00  0.00     0.275 HD
ATOM     31  H12 UNL     1      -3.324   1.304   0.150  1.00  0.00     0.275 HD
ATOM     32  H11 UNL     1      -3.657   2.723  -0.704  1.00  0.00     0.275 HD
ENDBRANCH  24  29
ENDBRANCH  21  24
ENDBRANCH  19  20
ENDBRANCH  18  19
ENDBRANCH  17  18
ENDBRANCH   1  17
BRANCH   9  33
HETATM   33  C13 UNL     1       3.798  -1.096   2.515  1.00  0.00     0.227 C 
BRANCH  33  34
HETATM   34  N6  UNL     1       5.118  -1.201   1.902  1.00  0.00    -0.258 N 
HETATM   35  N7  UNL     1       5.762  -2.340   1.699  1.00  0.00    -0.128 N 
HETATM   36  C14 UNL     1       6.930  -2.064   1.108  1.00  0.00     0.692 A 
ATOM     37  H7  UNL     1       5.425  -3.269   1.950  1.00  0.00     0.206 HD
HETATM   38  N9  UNL     1       6.994  -0.738   0.952  1.00  0.00    -0.178 N 
HETATM   39  C15 UNL     1       5.861  -0.179   1.446  1.00  0.00     0.118 A 
ATOM     40  H9  UNL     1       7.770  -0.228   0.529  1.00  0.00     0.185 HD
BRANCH  36  41
HETATM   41  N8  UNL     1       7.822  -2.949   0.760  1.00  0.00    -0.233 N 
ATOM     42  H82 UNL     1       7.773  -3.961   0.879  1.00  0.00     0.174 HD
ATOM     43  H81 UNL     1       8.713  -2.739   0.309  1.00  0.00     0.174 HD
ENDBRANCH  36  41
BRANCH  39  44
HETATM   44  C16 UNL     1       5.551   1.301   1.474  1.00  0.00     0.047 C 
HETATM   45  C17 UNL     1       5.569   1.900   0.103  1.00  0.00     0.017 C 
HETATM   46  C18 UNL     1       6.587   1.977   2.387  1.00  0.00     0.017 C 
ENDBRANCH  39  44
ENDBRANCH  33  34
ENDBRANCH   9  33
TORSDOF 12
