REMARK  5 active torsions:
REMARK  status: ('A' for Active; 'I' for Inactive)
REMARK    1  A    between atoms: C2_2  and  N1_3 
REMARK    2  A    between atoms: N1_3  and  C3_5 
REMARK    3  A    between atoms: C4_8  and  N3_9 
REMARK    4  A    between atoms: N3_9  and  C5_11 
REMARK    5  A    between atoms: N5_17  and  C9_19 
ROOT
HETATM    1  C3  UNL     1      -1.861   2.289  -0.743  1.00  0.00     0.707 A 
HETATM    2  N2  UNL     1      -2.646   1.324  -0.204  1.00  0.00    -0.022 N 
ATOM      3  H2  UNL     1      -3.649   1.485  -0.106  1.00  0.00     0.203 HD
HETATM    4  C4  UNL     1      -2.116   0.157   0.203  1.00  0.00     0.707 A 
HETATM    5  N4  UNL     1      -0.789  -0.026   0.062  1.00  0.00    -0.021 N 
ATOM      6  H4  UNL     1      -0.381  -0.909   0.370  1.00  0.00     0.203 HD
HETATM    7  C8  UNL     1       0.018   0.907  -0.467  1.00  0.00     0.707 A 
HETATM    8  N5  UNL     1       1.257   0.798  -0.626  1.00  0.00    -0.216 N 
ATOM      9  H5  UNL     1       1.686   1.622  -1.047  1.00  0.00     0.178 HD
HETATM   10  N6  UNL     1      -0.539   2.089  -0.876  1.00  0.00    -0.021 N 
ATOM     11  H6  UNL     1       0.049   2.817  -1.281  1.00  0.00     0.203 HD
ENDROOT
BRANCH   8  12
HETATM   12  C9  UNL     1       2.184  -0.235  -0.341  1.00  0.00     0.043 C 
HETATM   13  C10 UNL     1       1.749  -1.505  -1.031  1.00  0.00     0.039 C 
HETATM   14  C11 UNL     1       2.449  -0.443   1.133  1.00  0.00     0.031 C 
HETATM   15  C12 UNL     1       3.302  -1.651   1.319  1.00  0.00     0.002 C 
HETATM   16  C13 UNL     1       4.463  -1.718   0.367  1.00  0.00     0.000 C 
HETATM   17  C14 UNL     1       4.693  -0.470  -0.405  1.00  0.00     0.002 C 
HETATM   18  C15 UNL     1       3.496   0.155  -1.014  1.00  0.00     0.031 C 
ENDBRANCH   8  12
BRANCH   4  19
HETATM   19  N3  UNL     1      -2.886  -0.711   0.698  1.00  0.00    -0.221 N 
ATOM     20  H3  UNL     1      -3.866  -0.432   0.741  1.00  0.00     0.178 HD
BRANCH  19  21
HETATM   21  C5  UNL     1      -2.620  -2.008   1.204  1.00  0.00     0.091 C 
HETATM   22  C6  UNL     1      -1.719  -2.074   2.394  1.00  0.00     0.032 C 
HETATM   23  C7  UNL     1      -2.136  -2.935   0.106  1.00  0.00     0.032 C 
ENDBRANCH  19  21
ENDBRANCH   4  19
BRANCH   1  24
HETATM   24  N1  UNL     1      -2.397   3.404  -1.127  1.00  0.00    -0.225 N 
ATOM     25  H1  UNL     1      -1.813   4.135  -1.533  1.00  0.00     0.177 HD
BRANCH  24  26
HETATM   26  C2  UNL     1      -3.817   3.616  -0.982  1.00  0.00     0.133 C 
HETATM   27  C1  UNL     1      -4.175   5.011  -1.448  1.00  0.00     0.027 C 
ENDBRANCH  24  26
ENDBRANCH   1  24
TORSDOF 5
