REMARK  8 active torsions:
REMARK  status: ('A' for Active; 'I' for Inactive)
REMARK    1  A    between atoms: N1_2  and  C2_4 
REMARK    2  A    between atoms: C4_8  and  N3_9 
REMARK    3  A    between atoms: N3_9  and  C5_11 
REMARK    4  A    between atoms: C5_11  and  C6_12 
REMARK    5  A    between atoms: C6_12  and  C7_13 
REMARK    6  A    between atoms: C7_13  and  N4_14 
REMARK    7  A    between atoms: N4_14  and  C9_16 
REMARK    8  A    between atoms: C12_21  and  N6_22 
ROOT
HETATM    1  C2  UNL     1       4.968   0.388   0.824  1.00  0.00     0.146 A 
HETATM    2  N2  UNL     1       3.677   0.054   0.847  1.00  0.00    -0.331 N 
ATOM      3  H2  UNL     1       3.163   0.030   1.728  1.00  0.00     0.168 HD
HETATM    4  C3  UNL     1       3.078  -0.243  -0.284  1.00  0.00     0.114 A 
HETATM    5  C4  UNL     1       1.717  -0.617  -0.453  1.00  0.00     0.146 A 
HETATM    6  N5  UNL     1       1.270  -0.884  -1.684  1.00  0.00    -0.175 N 
ATOM      7  H5  UNL     1       0.291  -1.150  -1.787  1.00  0.00     0.186 HD
HETATM    8  C12 UNL     1       2.026  -0.825  -2.800  1.00  0.00     0.678 A 
HETATM    9  N7  UNL     1       3.303  -0.476  -2.655  1.00  0.00    -0.183 N 
ATOM     10  H7  UNL     1       3.903  -0.422  -3.478  1.00  0.00     0.185 HD
HETATM   11  C13 UNL     1       3.827  -0.189  -1.424  1.00  0.00     0.124 A 
HETATM   12  S1  UNL     1       5.358   0.285  -0.830  1.00  0.00    -0.034 SA
ENDROOT
BRANCH   5  13
HETATM   13  N3  UNL     1       0.959  -0.688   0.576  1.00  0.00    -0.374 N 
ATOM     14  H3  UNL     1       1.429  -0.458   1.452  1.00  0.00     0.161 HD
BRANCH  13  15
HETATM   15  C5  UNL     1      -0.402  -1.023   0.730  1.00  0.00     0.126 C 
BRANCH  15  16
HETATM   16  C6  UNL     1      -1.102  -0.001   1.567  1.00  0.00     0.064 C 
BRANCH  16  17
HETATM   17  C7  UNL     1      -2.541  -0.215   1.853  1.00  0.00     0.059 C 
BRANCH  17  18
HETATM   18  N4  UNL     1      -3.472  -0.289   0.821  1.00  0.00    -0.394 N 
HETATM   19  C8  UNL     1      -3.485  -1.431  -0.022  1.00  0.00     0.149 C 
BRANCH  18  20
HETATM   20  C9  UNL     1      -3.828   0.925   0.158  1.00  0.00     0.074 C 
HETATM   21  C10 UNL     1      -4.456   1.951   1.029  1.00  0.00     0.032 C 
HETATM   22  C11 UNL     1      -4.799   0.620  -0.966  1.00  0.00     0.032 C 
ENDBRANCH  18  20
ENDBRANCH  17  18
ENDBRANCH  16  17
ENDBRANCH  15  16
ENDBRANCH  13  15
ENDBRANCH   5  13
BRANCH   8  23
HETATM   23  N6  UNL     1       1.449  -1.108  -3.912  1.00  0.00    -0.234 N 
ATOM     24  H62 UNL     1       0.471  -1.375  -4.023  1.00  0.00     0.174 HD
ATOM     25  H61 UNL     1       2.021  -1.063  -4.756  1.00  0.00     0.174 HD
ENDBRANCH   8  23
BRANCH   1  26
HETATM   26  N1  UNL     1       5.724   0.714   1.854  1.00  0.00    -0.375 N 
HETATM   27  C1  UNL     1       7.097   1.039   1.582  1.00  0.00     0.148 C 
ATOM     28  H1  UNL     1       5.350   0.735   2.803  1.00  0.00     0.161 HD
ENDBRANCH   1  26
TORSDOF 8
