REMARK  4 active torsions:
REMARK  status: ('A' for Active; 'I' for Inactive)
REMARK    1  A    between atoms: C2_2  and  N1_3 
REMARK    2  A    between atoms: N1_3  and  C3_5 
REMARK    3  A    between atoms: C4_8  and  N3_9 
REMARK    4  A    between atoms: C5_14  and  N5_15 
ROOT
HETATM    1  N5  UNL     1      -2.963  -1.642   0.334  1.00  0.00    -0.125 N 
ATOM      2  H5  UNL     1      -2.826  -2.566   0.744  1.00  0.00     0.197 HD
HETATM    3  C6  UNL     1      -4.229  -1.285  -0.081  1.00  0.00     0.196 C 
HETATM    4  N6  UNL     1      -5.296  -1.004  -0.422  1.00  0.00    -0.171 NA
ENDROOT
BRANCH   1   5
HETATM    5  C5  UNL     1      -1.944  -0.858   0.226  1.00  0.00     0.720 A 
HETATM    6  N4  UNL     1      -2.020   0.374  -0.300  1.00  0.00    -0.021 N 
HETATM    7  C4  UNL     1      -0.990   1.203  -0.426  1.00  0.00     0.705 A 
ATOM      8  H4  UNL     1      -2.931   0.696  -0.625  1.00  0.00     0.203 HD
HETATM    9  N2  UNL     1       0.225   0.758   0.015  1.00  0.00    -0.022 N 
HETATM   10  C3  UNL     1       0.361  -0.462   0.549  1.00  0.00     0.707 A 
ATOM     11  H2  UNL     1       1.041   1.365  -0.064  1.00  0.00     0.203 HD
HETATM   12  N7  UNL     1      -0.733  -1.263   0.649  1.00  0.00    -0.021 N 
ATOM     13  H7  UNL     1      -0.633  -2.194   1.055  1.00  0.00     0.203 HD
BRANCH   7  14
HETATM   14  N3  UNL     1      -1.090   2.385  -0.936  1.00  0.00    -0.234 N 
ATOM     15  H32 UNL     1      -0.299   3.022  -1.033  1.00  0.00     0.174 HD
ATOM     16  H31 UNL     1      -1.997   2.717  -1.265  1.00  0.00     0.174 HD
ENDBRANCH   7  14
BRANCH  10  17
HETATM   17  N1  UNL     1       1.497  -0.888   0.965  1.00  0.00    -0.225 N 
ATOM     18  H1  UNL     1       1.576  -1.822   1.368  1.00  0.00     0.177 HD
BRANCH  17  19
HETATM   19  C2  UNL     1       2.651  -0.052   0.863  1.00  0.00     0.133 C 
HETATM   20  C1  UNL     1       3.182  -0.079  -0.571  1.00  0.00     0.027 C 
ENDBRANCH  17  19
ENDBRANCH  10  17
ENDBRANCH   1   5
TORSDOF 4
