REMARK  9 active torsions:
REMARK  status: ('A' for Active; 'I' for Inactive)
REMARK    1  A    between atoms: C4_5  and  C5_6 
REMARK    2  A    between atoms: C5_6  and  N2_7 
REMARK    3  A    between atoms: N2_7  and  N3_9 
REMARK    4  A    between atoms: N3_9  and  C6_11 
REMARK    5  A    between atoms: C6_11  and  O1_12 
REMARK    6  A    between atoms: C6_11  and  C7_14 
REMARK    7  A    between atoms: C7_14  and  C8_15 
REMARK    8  A    between atoms: C8_15  and  N4_16 
REMARK    9  A    between atoms: N4_16  and  C9_19 
ROOT
HETATM    1  C6  UNL     1       0.421  -0.517   0.491  1.00  0.00     0.234 C 
ENDROOT
BRANCH   1   2
HETATM    2  N3  UNL     1       1.457  -1.530   0.474  1.00  0.00    -0.308 N 
ATOM      3  H3  UNL     1       2.009  -1.735   1.307  1.00  0.00     0.183 HD
BRANCH   2   4
HETATM    4  N2  UNL     1       1.672  -2.210  -0.712  1.00  0.00    -0.312 N 
ATOM      5  H2  UNL     1       1.020  -2.938  -1.004  1.00  0.00     0.185 HD
BRANCH   4   6
HETATM    6  C5  UNL     1       2.678  -1.932  -1.440  1.00  0.00     0.137 C 
BRANCH   6   7
HETATM    7  C4  UNL     1       3.609  -0.893  -1.024  1.00  0.00     0.066 A 
HETATM    8  C3  UNL     1       4.753  -0.484  -1.724  1.00  0.00     0.051 A 
HETATM    9  C2  UNL     1       5.349   0.518  -0.988  1.00  0.00     0.112 A 
HETATM   10  N1  UNL     1       4.598   0.709   0.111  1.00  0.00    -0.307 N 
HETATM   11  C1  UNL     1       4.924   1.707   1.140  1.00  0.00     0.177 C 
HETATM   12  N6  UNL     1       3.590  -0.121   0.072  1.00  0.00    -0.298 N 
ATOM     13  H6  UNL     1       2.871  -0.176   0.793  1.00  0.00     0.187 HD
ENDBRANCH   6   7
ENDBRANCH   4   6
ENDBRANCH   2   4
ENDBRANCH   1   2
BRANCH   1  14
HETATM   14  O1  UNL     1       0.301   0.095   1.736  1.00  0.00    -0.376 OA
ATOM     15  H1  UNL     1      -0.378   0.759   1.747  1.00  0.00     0.212 HD
ENDBRANCH   1  14
BRANCH   1  16
HETATM   16  C7  UNL     1      -0.948  -1.142   0.197  1.00  0.00     0.082 C 
BRANCH  16  17
HETATM   17  C8  UNL     1      -1.949  -0.002   0.239  1.00  0.00     0.237 C 
BRANCH  17  18
HETATM   18  N4  UNL     1      -3.295  -0.468  -0.027  1.00  0.00    -0.068 N 
ATOM     19  H42 UNL     1      -3.373  -0.981  -0.905  1.00  0.00     0.277 HD
ATOM     20  H41 UNL     1      -3.586  -1.223   0.594  1.00  0.00     0.277 HD
BRANCH  18  21
HETATM   21  C9  UNL     1      -4.172   0.687   0.035  1.00  0.00     0.236 C 
HETATM   22  C10 UNL     1      -5.628   0.363  -0.220  1.00  0.00     0.267 C 
HETATM   23  N5  UNL     1      -5.773   0.187   1.226  1.00  0.00    -0.071 N 
HETATM   24  C11 UNL     1      -4.590   0.974   1.460  1.00  0.00     0.267 C 
ATOM     25  H52 UNL     1      -6.649   0.445   1.681  1.00  0.00     0.277 HD
ATOM     26  H51 UNL     1      -5.839  -0.753   1.616  1.00  0.00     0.277 HD
ENDBRANCH  18  21
ENDBRANCH  17  18
ENDBRANCH  16  17
ENDBRANCH   1  16
TORSDOF 9
