REMARK  11 active torsions:
REMARK  status: ('A' for Active; 'I' for Inactive)
REMARK    1  A    between atoms: O1_2  and  C2_3 
REMARK    2  A    between atoms: C6_9  and  C7_10 
REMARK    3  A    between atoms: C7_10  and  N2_11 
REMARK    4  A    between atoms: C7_10  and  C8_15 
REMARK    5  A    between atoms: C7_10  and  C11_24 
REMARK    6  A    between atoms: C8_15  and  N3_16 
REMARK    7  A    between atoms: N3_16  and  C9_18 
REMARK    8  A    between atoms: C9_18  and  C10_19 
REMARK    9  A    between atoms: C10_19  and  N4_20 
REMARK   10  A    between atoms: C11_24  and  N5_25 
REMARK   11  A    between atoms: C11_24  and  N6_29 
ROOT
HETATM    1  C7  UNL     1      -0.374  -0.511  -0.444  1.00  0.00     0.238 C 
ENDROOT
BRANCH   1   2
HETATM    2  C6  UNL     1      -1.715  -0.640   0.152  1.00  0.00     0.038 A 
HETATM    3  C2  UNL     1      -2.147   0.126   1.195  1.00  0.00     0.151 A 
HETATM    4  N1  UNL     1      -3.392  -0.071   1.750  1.00  0.00    -0.346 N 
HETATM    5  C3  UNL     1      -4.245  -1.000   1.319  1.00  0.00     0.090 A 
ATOM      6  H1  UNL     1      -3.675   0.523   2.529  1.00  0.00     0.167 HD
HETATM    7  C4  UNL     1      -3.847  -1.792   0.267  1.00  0.00     0.018 A 
HETATM    8  C5  UNL     1      -2.584  -1.614  -0.316  1.00  0.00     0.016 A 
BRANCH   3   9
HETATM    9  O1  UNL     1      -1.331   1.112   1.695  1.00  0.00    -0.340 OA
HETATM   10  C1  UNL     1      -1.800   1.888   2.777  1.00  0.00     0.211 C 
ENDBRANCH   3   9
ENDBRANCH   1   2
BRANCH   1  11
HETATM   11  N2  UNL     1      -0.397  -1.521  -1.594  1.00  0.00    -0.057 N 
ATOM     12  H23 UNL     1      -0.648  -2.470  -1.318  1.00  0.00     0.276 HD
ATOM     13  H22 UNL     1      -1.166  -1.395  -2.252  1.00  0.00     0.276 HD
ATOM     14  H21 UNL     1       0.532  -1.432  -2.007  1.00  0.00     0.276 HD
ENDBRANCH   1  11
BRANCH   1  15
HETATM   15  C8  UNL     1      -0.119   0.763  -1.118  1.00  0.00     0.103 C 
BRANCH  15  16
HETATM   16  N3  UNL     1       1.123   0.969  -1.708  1.00  0.00    -0.398 N 
ATOM     17  H3  UNL     1       1.162   0.920  -2.726  1.00  0.00     0.158 HD
BRANCH  16  18
HETATM   18  C9  UNL     1       2.310   1.234  -1.051  1.00  0.00     0.146 C 
BRANCH  18  19
HETATM   19  C10 UNL     1       3.398   1.393  -2.150  1.00  0.00     0.249 C 
BRANCH  19  20
HETATM   20  N4  UNL     1       4.680   1.698  -1.573  1.00  0.00    -0.078 N 
ATOM     21  H43 UNL     1       4.634   2.519  -0.970  1.00  0.00     0.274 HD
ATOM     22  H42 UNL     1       4.951   1.006  -0.875  1.00  0.00     0.274 HD
ATOM     23  H41 UNL     1       5.394   1.802  -2.294  1.00  0.00     0.274 HD
ENDBRANCH  19  20
ENDBRANCH  18  19
ENDBRANCH  16  18
ENDBRANCH  15  16
ENDBRANCH   1  15
BRANCH   1  24
HETATM   24  C11 UNL     1       0.689  -1.085   0.416  1.00  0.00     0.423 C 
BRANCH  24  25
HETATM   25  N5  UNL     1       0.901  -0.563   1.712  1.00  0.00    -0.047 N 
ATOM     26  H53 UNL     1       1.054   0.442   1.635  1.00  0.00     0.276 HD
ATOM     27  H52 UNL     1       0.019  -0.595   2.223  1.00  0.00     0.276 HD
ATOM     28  H51 UNL     1       1.632  -0.958   2.304  1.00  0.00     0.276 HD
ENDBRANCH  24  25
BRANCH  24  29
HETATM   29  N6  UNL     1       0.215  -2.505   0.664  1.00  0.00    -0.047 N 
ATOM     30  H63 UNL     1      -0.726  -2.575   1.052  1.00  0.00     0.276 HD
ATOM     31  H62 UNL     1       0.021  -3.040  -0.183  1.00  0.00     0.276 HD
ATOM     32  H61 UNL     1       0.946  -2.900   1.256  1.00  0.00     0.276 HD
ENDBRANCH  24  29
ENDBRANCH   1  24
TORSDOF 11
