REMARK  12 active torsions:
REMARK  status: ('A' for Active; 'I' for Inactive)
REMARK    1  A    between atoms: N1_2  and  C2_4 
REMARK    2  A    between atoms: C2_4  and  C3_5 
REMARK    3  A    between atoms: C3_5  and  N2_6 
REMARK    4  A    between atoms: C4_12  and  S1_13 
REMARK    5  A    between atoms: S1_13  and  C5_14 
REMARK    6  A    between atoms: C5_14  and  C6_15 
REMARK    7  A    between atoms: C6_15  and  N6_16 
REMARK    8  A    between atoms: N6_16  and  C7_18 
REMARK    9  A    between atoms: C8_21  and  N8_22 
REMARK   10  A    between atoms: C9_27  and  N10_28 
REMARK   11  A    between atoms: C10_31  and  C11_32 
REMARK   12  A    between atoms: C11_32  and  N11_33 
ROOT
HETATM    1  C7  UNL     1      -2.704   0.252  -0.216  1.00  0.00     0.132 A 
HETATM    2  N7  UNL     1      -2.598   1.528  -0.606  1.00  0.00    -0.176 N 
ATOM      3  H7  UNL     1      -1.682   1.971  -0.681  1.00  0.00     0.186 HD
HETATM    4  C8  UNL     1      -3.738   2.234  -0.904  1.00  0.00     0.679 A 
HETATM    5  N9  UNL     1      -4.960   1.722  -0.834  1.00  0.00    -0.177 N 
ATOM      6  H9  UNL     1      -5.768   2.297  -1.073  1.00  0.00     0.186 HD
HETATM    7  C9  UNL     1      -5.137   0.428  -0.443  1.00  0.00     0.126 A 
HETATM    8  C10 UNL     1      -4.034  -0.276  -0.145  1.00  0.00     0.056 A 
ENDROOT
BRANCH   1   9
HETATM    9  N6  UNL     1      -1.690  -0.520   0.352  1.00  0.00    -0.354 N 
ATOM     10  H6  UNL     1      -2.132  -1.267   0.888  1.00  0.00     0.166 HD
BRANCH   9  11
HETATM   11  C6  UNL     1      -0.337  -0.667   0.471  1.00  0.00     0.073 C 
BRANCH  11  12
HETATM   12  C5  UNL     1       0.662   0.451   0.442  1.00  0.00     0.127 C 
BRANCH  12  13
HETATM   13  S1  UNL     1       2.206  -0.089   1.154  1.00  0.00    -0.086 SA
BRANCH  13  14
HETATM   14  C4  UNL     1       3.089  -1.387   0.359  1.00  0.00     0.175 A 
HETATM   15  N2  UNL     1       4.196  -1.274  -0.410  1.00  0.00    -0.251 N 
HETATM   16  N3  UNL     1       4.522  -2.466  -0.930  1.00  0.00    -0.002 NA
HETATM   17  N4  UNL     1       3.601  -3.366  -0.468  1.00  0.00    -0.224 N 
HETATM   18  N5  UNL     1       2.762  -2.711   0.293  1.00  0.00    -0.266 N 
ATOM     19  H4  UNL     1       3.573  -4.364  -0.678  1.00  0.00     0.205 HD
ATOM     20  H5  UNL     1       1.968  -3.134   0.774  1.00  0.00     0.190 HD
BRANCH  15  21
HETATM   21  C3  UNL     1       4.927  -0.071  -0.509  1.00  0.00     0.168 C 
BRANCH  21  22
HETATM   22  C2  UNL     1       6.186  -0.047   0.360  1.00  0.00     0.139 C 
BRANCH  22  23
HETATM   23  N1  UNL     1       6.587   1.378   0.222  1.00  0.00    -0.406 N 
HETATM   24  C1  UNL     1       6.090   2.089   1.155  1.00  0.00     0.112 C 
ATOM     25  H1  UNL     1       7.183   1.739  -0.523  1.00  0.00     0.158 HD
ENDBRANCH  22  23
ENDBRANCH  21  22
ENDBRANCH  15  21
ENDBRANCH  13  14
ENDBRANCH  12  13
ENDBRANCH  11  12
ENDBRANCH   9  11
ENDBRANCH   1   9
BRANCH   8  26
HETATM   26  C11 UNL     1      -4.016  -1.760   0.017  1.00  0.00     0.275 C 
BRANCH  26  27
HETATM   27  N11 UNL     1      -4.762  -2.136   1.219  1.00  0.00    -0.075 N 
ATOM     28 3H11 UNL     1      -4.418  -1.655   2.050  1.00  0.00     0.274 HD
ATOM     29 2H11 UNL     1      -5.711  -1.762   1.214  1.00  0.00     0.274 HD
ATOM     30 1H11 UNL     1      -4.750  -3.150   1.330  1.00  0.00     0.274 HD
ENDBRANCH  26  27
ENDBRANCH   8  26
BRANCH   4  31
HETATM   31  N8  UNL     1      -3.595   3.451  -1.207  1.00  0.00    -0.234 N 
ATOM     32  H82 UNL     1      -2.656   3.845  -1.261  1.00  0.00     0.174 HD
ATOM     33  H81 UNL     1      -4.442   3.975  -1.428  1.00  0.00     0.174 HD
ENDBRANCH   4  31
BRANCH   7  34
HETATM   34  N10 UNL     1      -6.323  -0.041  -0.469  1.00  0.00    -0.384 N 
ATOM     35 2H10 UNL     1      -7.161   0.494  -0.695  1.00  0.00     0.157 HD
ATOM     36 1H10 UNL     1      -6.455  -1.009  -0.176  1.00  0.00     0.157 HD
ENDBRANCH   7  34
TORSDOF 12
