REMARK  8 active torsions:
REMARK  status: ('A' for Active; 'I' for Inactive)
REMARK    1  A    between atoms: C10_10  and  O1_11 
REMARK    2  A    between atoms: C10_10  and  C11_13 
REMARK    3  A    between atoms: C11_13  and  O2_14 
REMARK    4  A    between atoms: C14_17  and  C15_18 
REMARK    5  A    between atoms: C15_18  and  C16_19 
REMARK    6  A    between atoms: C16_19  and  C17_20 
REMARK    7  A    between atoms: C19_22  and  C20_23 
REMARK    8  A    between atoms: C20_23  and  O3_24 
ROOT
HETATM    1  C1  UNL     1       0.283  -2.501   1.486  1.00  0.00     0.015 C 
HETATM    2  C2  UNL     1       0.271  -1.879   0.349  1.00  0.00    -0.081 C 
HETATM    3  C3  UNL     1       0.026  -2.690  -0.901  1.00  0.00     0.010 C 
HETATM    4  C4  UNL     1      -0.112  -4.164  -0.548  1.00  0.00     0.015 C 
HETATM    5  C5  UNL     1      -1.310  -2.218  -1.424  1.00  0.00     0.009 C 
HETATM    6  C6  UNL     1      -1.248  -0.756  -1.696  1.00  0.00     0.011 C 
HETATM    7  C7  UNL     1      -0.885   0.095  -0.494  1.00  0.00    -0.030 C 
HETATM    8  C8  UNL     1      -0.901   1.520  -0.862  1.00  0.00     0.013 C 
HETATM    9  C9  UNL     1      -1.822   2.236   0.134  1.00  0.00     0.041 C 
HETATM   10  C10 UNL     1      -2.849   1.159   0.403  1.00  0.00     0.080 C 
HETATM   11  C13 UNL     1      -1.955  -0.060   0.585  1.00  0.00     0.050 C 
HETATM   12  C14 UNL     1       0.438  -0.408   0.098  1.00  0.00     0.023 C 
ENDROOT
BRANCH  12  13
HETATM   13  C15 UNL     1       1.582  -0.168  -0.787  1.00  0.00     0.014 C 
BRANCH  13  14
HETATM   14  C16 UNL     1       2.955  -0.538  -0.392  1.00  0.00     0.034 C 
BRANCH  14  15
HETATM   15  C17 UNL     1       3.583   0.224   0.691  1.00  0.00    -0.086 C 
HETATM   16  C18 UNL     1       3.010   0.239   2.060  1.00  0.00     0.043 C 
HETATM   17  C19 UNL     1       4.709   0.955   0.564  1.00  0.00     0.001 C 
BRANCH  17  18
HETATM   18  C20 UNL     1       5.442   1.075  -0.689  1.00  0.00     0.191 C 
BRANCH  18  19
HETATM   19  O3  UNL     1       5.462   2.460  -1.033  1.00  0.00    -0.397 OA
ATOM     20  H3  UNL     1       5.940   2.538  -1.850  1.00  0.00     0.209 HD
ENDBRANCH  18  19
ENDBRANCH  17  18
ENDBRANCH  14  15
ENDBRANCH  13  14
ENDBRANCH  12  13
BRANCH  10  21
HETATM   21  O1  UNL     1      -3.653   1.059  -0.700  1.00  0.00    -0.388 OA
ATOM     22  H1  UNL     1      -4.298   0.382  -0.531  1.00  0.00     0.210 HD
ENDBRANCH  10  21
BRANCH  10  23
HETATM   23  C11 UNL     1      -3.653   1.438   1.630  1.00  0.00     0.204 C 
BRANCH  23  24
HETATM   24  O2  UNL     1      -4.318   2.614   1.596  1.00  0.00    -0.393 OA
HETATM   25  C12 UNL     1      -5.250   2.864   0.654  1.00  0.00     0.201 C 
ENDBRANCH  23  24
ENDBRANCH  10  23
TORSDOF 8
