REMARK  8 active torsions:
REMARK  status: ('A' for Active; 'I' for Inactive)
REMARK       I    between atoms: C1_2  and  N1_3 
REMARK    1  A    between atoms: C1_2  and  O2_23 
REMARK    2  A    between atoms: N1_3  and  C2_5 
REMARK    3  A    between atoms: C7_10  and  N2_11 
REMARK    4  A    between atoms: N2_11  and  C8_13 
REMARK    5  A    between atoms: C8_13  and  C9_14 
REMARK    6  A    between atoms: C11_16  and  C12_17 
REMARK    7  A    between atoms: O2_23  and  C16_24 
REMARK    8  A    between atoms: C16_24  and  C17_25 
ROOT
HETATM    1  C2  UNL     1      -0.910  -2.701  -0.135  1.00  0.00     0.109 C 
HETATM    2  C3  UNL     1      -0.372  -3.997  -0.794  1.00  0.00     0.027 C 
HETATM    3  C4  UNL     1      -1.476  -4.874  -1.288  1.00  0.00     0.002 C 
HETATM    4  C5  UNL     1      -2.613  -5.010  -0.329  1.00  0.00     0.002 C 
HETATM    5  C6  UNL     1      -3.117  -3.660   0.033  1.00  0.00     0.027 C 
HETATM    6  C7  UNL     1      -2.290  -2.537  -0.630  1.00  0.00     0.099 C 
ENDROOT
BRANCH   1   7
HETATM    7  N1  UNL     1       0.046  -1.702  -0.457  1.00  0.00    -0.330 N 
HETATM    8  C1  UNL     1       0.965  -1.250   0.520  1.00  0.00     0.360 C 
HETATM    9  O1  UNL     1       0.964  -1.717   1.692  1.00  0.00    -0.239 OA
ATOM     10  H1  UNL     1       0.071  -1.308  -1.397  1.00  0.00     0.165 HD
BRANCH   8  11
HETATM   11  O2  UNL     1       1.921  -0.273   0.263  1.00  0.00    -0.304 OA
BRANCH  11  12
HETATM   12  C16 UNL     1       2.835   0.174   1.235  1.00  0.00     0.185 C 
BRANCH  12  13
HETATM   13  C17 UNL     1       3.762   1.243   0.692  1.00  0.00     0.010 C 
HETATM   14  C18 UNL     1       4.691   1.635   1.818  1.00  0.00     0.007 C 
HETATM   15  C19 UNL     1       5.489   2.858   1.496  1.00  0.00     0.000 C 
HETATM   16  C20 UNL     1       6.412   2.572   0.342  1.00  0.00     0.000 C 
HETATM   17  C21 UNL     1       5.652   2.831  -0.936  1.00  0.00     0.000 C 
HETATM   18  C22 UNL     1       4.980   1.609  -1.466  1.00  0.00     0.000 C 
HETATM   19  C23 UNL     1       4.585   0.621  -0.404  1.00  0.00     0.007 C 
ENDBRANCH  12  13
ENDBRANCH  11  12
ENDBRANCH   8  11
ENDBRANCH   1   7
BRANCH   6  20
HETATM   20  N2  UNL     1      -2.998  -1.345  -0.359  1.00  0.00    -0.415 N 
ATOM     21  H2  UNL     1      -3.840  -1.365   0.216  1.00  0.00     0.153 HD
BRANCH  20  22
HETATM   22  C8  UNL     1      -2.527  -0.124  -0.893  1.00  0.00     0.119 C 
BRANCH  22  23
HETATM   23  C9  UNL     1      -3.531   0.998  -0.598  1.00  0.00     0.010 A 
HETATM   24  C10 UNL     1      -4.931   0.726  -1.228  1.00  0.00     0.014 A 
HETATM   25  C11 UNL     1      -4.699   0.806   0.253  1.00  0.00     0.018 A 
BRANCH  25  26
HETATM   26  C12 UNL     1      -5.335   2.020   0.945  1.00  0.00     0.108 A 
HETATM   27  C13 UNL     1      -4.315   2.637   1.826  1.00  0.00    -0.000 A 
HETATM   28  C14 UNL     1      -4.079   3.867   1.381  1.00  0.00     0.015 A 
HETATM   29  C15 UNL     1      -4.924   4.090   0.211  1.00  0.00     0.083 A 
HETATM   30  N3  UNL     1      -5.629   3.054  -0.034  1.00  0.00    -0.391 N 
ATOM     31  H3  UNL     1      -6.297   2.965  -0.800  1.00  0.00     0.159 HD
ENDBRANCH  25  26
ENDBRANCH  22  23
ENDBRANCH  20  22
ENDBRANCH   6  20
TORSDOF 8
