REMARK  11 active torsions:
REMARK  status: ('A' for Active; 'I' for Inactive)
REMARK    1  A    between atoms: O1_2  and  C2_3 
REMARK    2  A    between atoms: C4_5  and  C5_6 
REMARK    3  A    between atoms: C5_6  and  N1_7 
REMARK    4  A    between atoms: N1_7  and  C6_8 
REMARK    5  A    between atoms: C9_11  and  O2_12 
REMARK    6  A    between atoms: C9_11  and  C10_14 
REMARK    7  A    between atoms: C10_14  and  C11_15 
REMARK    8  A    between atoms: C10_14  and  C17_21 
REMARK    9  A    between atoms: C11_15  and  C12_16 
REMARK   10  A    between atoms: C12_16  and  C13_17 
REMARK   11  A    between atoms: C17_21  and  O3_24 
ROOT
HETATM    1  C2  UNL     1      -2.043  -1.732  -0.692  1.00  0.00     0.132 C 
HETATM    2  C3  UNL     1      -1.619  -0.675  -1.672  1.00  0.00     0.046 C 
HETATM    3  C4  UNL     1      -0.730   0.176  -0.894  1.00  0.00     0.076 C 
HETATM    4  C9  UNL     1      -0.124  -0.730   0.200  1.00  0.00     0.083 C 
HETATM    5  C20 UNL     1      -1.334  -1.461   0.627  1.00  0.00     0.011 C 
HETATM    6  C21 UNL     1      -1.028  -2.865   1.167  1.00  0.00     0.020 C 
HETATM    7  C22 UNL     1      -2.329  -0.835   1.493  1.00  0.00     0.020 C 
ENDROOT
BRANCH   4   8
HETATM    8  O2  UNL     1       0.538  -1.732  -0.487  1.00  0.00    -0.388 OA
ATOM      9  H2  UNL     1       0.911  -2.289   0.186  1.00  0.00     0.210 HD
ENDBRANCH   4   8
BRANCH   4  10
HETATM   10  C10 UNL     1       0.759  -0.017   1.065  1.00  0.00     0.055 C 
BRANCH  10  11
HETATM   11  C11 UNL     1       1.927   0.657   0.313  1.00  0.00     0.014 C 
BRANCH  11  12
HETATM   12  C12 UNL     1       2.849  -0.169  -0.422  1.00  0.00     0.028 C 
BRANCH  12  13
HETATM   13  C13 UNL     1       3.966   0.570  -1.052  1.00  0.00    -0.025 C 
HETATM   14  C14 UNL     1       4.349   1.784  -1.126  1.00  0.00    -0.091 C 
HETATM   15  C15 UNL     1       5.632   2.048  -1.937  1.00  0.00     0.042 C 
HETATM   16  C16 UNL     1       3.758   2.986  -0.554  1.00  0.00     0.042 C 
ENDBRANCH  12  13
ENDBRANCH  11  12
ENDBRANCH  10  11
BRANCH  10  17
HETATM   17  C17 UNL     1       1.277  -0.449   2.367  1.00  0.00     0.057 C 
HETATM   18  C18 UNL     1       2.070  -1.669   2.506  1.00  0.00     0.045 C 
HETATM   19  C19 UNL     1       0.311  -0.365   3.544  1.00  0.00     0.045 C 
BRANCH  17  20
HETATM   20  O3  UNL     1       2.164   0.616   2.762  1.00  0.00    -0.390 OA
ATOM     21  H3  UNL     1       2.500   0.336   3.606  1.00  0.00     0.210 HD
ENDBRANCH  17  20
ENDBRANCH  10  17
ENDBRANCH   4  10
BRANCH   3  22
HETATM   22  C5  UNL     1      -1.194   1.456  -0.461  1.00  0.00     0.162 C 
BRANCH  22  23
HETATM   23  N1  UNL     1      -2.344   1.796  -0.849  1.00  0.00    -0.431 NA
BRANCH  23  24
HETATM   24  C6  UNL     1      -3.493   2.093  -1.311  1.00  0.00     0.053 C 
HETATM   25  C7  UNL     1      -4.580   1.677  -0.450  1.00  0.00     0.079 C 
HETATM   26  C8  UNL     1      -3.481   2.771  -2.587  1.00  0.00     0.079 C 
ENDBRANCH  23  24
ENDBRANCH  22  23
ENDBRANCH   3  22
BRANCH   1  27
HETATM   27  O1  UNL     1      -1.789  -2.990  -1.218  1.00  0.00    -0.390 OA
HETATM   28  C1  UNL     1      -2.957  -3.703  -1.482  1.00  0.00     0.202 C 
ENDBRANCH   1  27
TORSDOF 11
