REMARK  9 active torsions:
REMARK  status: ('A' for Active; 'I' for Inactive)
REMARK    1  A    between atoms: C2_2  and  C3_4 
REMARK    2  A    between atoms: C3_4  and  O2_5 
REMARK    3  A    between atoms: C3_4  and  C4_7 
REMARK    4  A    between atoms: C4_7  and  O3_8 
REMARK    5  A    between atoms: C4_7  and  C5_10 
REMARK    6  A    between atoms: C6_12  and  O5_13 
REMARK    7  A    between atoms: C7_15  and  O6_16 
REMARK    8  A    between atoms: C7_15  and  C8_18 
REMARK    9  A    between atoms: N2_23  and  N3_24 
ROOT
HETATM    1  C5  UNL     1      -0.061   0.431  -0.460  1.00  0.00     0.196 C 
HETATM    2  O4  UNL     1      -0.126  -0.223  -1.655  1.00  0.00    -0.332 OA
HETATM    3  C6  UNL     1      -0.705  -1.470  -1.409  1.00  0.00     0.306 C 
HETATM    4  C7  UNL     1      -1.668  -1.270  -0.246  1.00  0.00     0.218 C 
HETATM    5  C9  UNL     1      -1.417   0.125   0.144  1.00  0.00     0.194 C 
HETATM    6  N1  UNL     1      -1.422   0.483   1.510  1.00  0.00    -0.112 NA
HETATM    7  N2  UNL     1      -1.139   1.828   1.630  1.00  0.00    -0.049 NA
HETATM    8  N4  UNL     1      -0.898   2.523   0.472  1.00  0.00    -0.253 N 
ATOM      9  H4  UNL     1      -1.274   3.464   0.356  1.00  0.00     0.187 HD
HETATM   10  C10 UNL     1      -0.122   1.933  -0.571  1.00  0.00     0.274 C 
HETATM   11  O9  UNL     1       0.427   2.597  -1.451  1.00  0.00    -0.268 OA
ENDROOT
BRANCH   1  12
HETATM   12  C4  UNL     1       1.106   0.089   0.389  1.00  0.00     0.200 C 
BRANCH  12  13
HETATM   13  C3  UNL     1       2.370   0.365  -0.442  1.00  0.00     0.219 C 
BRANCH  13  14
HETATM   14  C2  UNL     1       3.505  -0.025   0.464  1.00  0.00     0.154 C 
HETATM   15  C1  UNL     1       4.388  -1.168   0.188  1.00  0.00     0.093 C 
HETATM   16  O1  UNL     1       3.654   0.678   1.462  1.00  0.00    -0.295 OA
ENDBRANCH  13  14
BRANCH  13  17
HETATM   17  O2  UNL     1       2.306  -0.504  -1.531  1.00  0.00    -0.385 OA
ATOM     18  H2  UNL     1       1.589  -0.258  -2.103  1.00  0.00     0.210 HD
ENDBRANCH  13  17
ENDBRANCH  12  13
BRANCH  12  19
HETATM   19  O3  UNL     1       1.204  -1.250   0.752  1.00  0.00    -0.389 OA
ATOM     20  H3  UNL     1       0.423  -1.421   1.265  1.00  0.00     0.210 HD
ENDBRANCH  12  19
ENDBRANCH   1  12
BRANCH   3  21
HETATM   21  O5  UNL     1      -1.360  -1.862  -2.569  1.00  0.00    -0.368 OA
ATOM     22  H5  UNL     1      -1.754  -2.710  -2.402  1.00  0.00     0.212 HD
ENDBRANCH   3  21
BRANCH   4  23
HETATM   23  O6  UNL     1      -1.489  -2.205   0.747  1.00  0.00    -0.373 OA
ATOM     24  H6  UNL     1      -2.090  -2.080   1.472  1.00  0.00     0.211 HD
ENDBRANCH   4  23
BRANCH   4  25
HETATM   25  C8  UNL     1      -3.040  -1.429  -0.799  1.00  0.00     0.216 C 
HETATM   26  O7  UNL     1      -3.775  -2.324  -0.328  1.00  0.00    -0.646 OA
HETATM   27  O8  UNL     1      -3.538  -0.625  -1.815  1.00  0.00    -0.646 OA
ENDBRANCH   4  25
BRANCH   7  28
HETATM   28  N3  UNL     1      -2.066   2.468   2.448  1.00  0.00    -0.330 NA
ATOM     29  H32 UNL     1      -2.245   1.951   3.309  1.00  0.00     0.174 HD
ATOM     30  H31 UNL     1      -1.857   3.462   2.537  1.00  0.00     0.174 HD
ENDBRANCH   7  28
TORSDOF 9
