REMARK  5 active torsions:
REMARK  status: ('A' for Active; 'I' for Inactive)
REMARK    1  A    between atoms: O1_2  and  C2_3 
REMARK    2  A    between atoms: C2_3  and  C3_5 
REMARK    3  A    between atoms: C8_12  and  O3_13 
REMARK    4  A    between atoms: O3_13  and  S1_14 
REMARK    5  A    between atoms: S1_14  and  N1_17 
REMARK       I    between atoms: N1_17  and  C9_19 
ROOT
HETATM    1  C3  UNL     1      -1.923  -0.857  -0.022  1.00  0.00     0.076 A 
HETATM    2  C4  UNL     1      -2.465  -2.152  -0.122  1.00  0.00     0.039 A 
HETATM    3  C5  UNL     1      -1.802  -3.209   0.457  1.00  0.00     0.013 A 
HETATM    4 BR1  UNL     1      -2.563  -4.961   0.303  1.00  0.00    -0.051 Br
HETATM    5  C6  UNL     1      -0.621  -2.996   1.125  1.00  0.00     0.041 A 
HETATM    6  C7  UNL     1      -0.097  -1.706   1.213  1.00  0.00     0.048 A 
HETATM    7 BR2  UNL     1       1.537  -1.481   2.194  1.00  0.00    -0.048 Br
HETATM    8  C8  UNL     1      -0.750  -0.636   0.635  1.00  0.00     0.124 A 
ENDROOT
BRANCH   8   9
HETATM    9  O3  UNL     1      -0.214   0.613   0.722  1.00  0.00    -0.214 OA
BRANCH   9  10
HETATM   10  S1  UNL     1       0.896   1.355  -0.288  1.00  0.00     0.369 S 
HETATM   11  O4  UNL     1       1.159   2.731   0.316  1.00  0.00    -0.175 OA
HETATM   12  O5  UNL     1       0.459   1.549  -1.705  1.00  0.00    -0.175 OA
BRANCH  10  13
HETATM   13  N1  UNL     1       2.424   0.552  -0.371  1.00  0.00    -0.231 N 
HETATM   14  C9  UNL     1       3.582   1.240   0.057  1.00  0.00     0.228 C 
HETATM   15  C10 UNL     1       4.881   0.517  -0.032  1.00  0.00     0.118 C 
HETATM   16  O6  UNL     1       3.517   2.409   0.493  1.00  0.00    -0.273 OA
ATOM     17  H1  UNL     1       2.489  -0.403  -0.723  1.00  0.00     0.183 HD
ENDBRANCH  10  13
ENDBRANCH   9  10
ENDBRANCH   8   9
BRANCH   1  18
HETATM   18  C2  UNL     1      -2.782   0.176  -0.584  1.00  0.00     0.295 C 
HETATM   19  O2  UNL     1      -3.822  -0.081  -1.243  1.00  0.00    -0.259 OA
BRANCH  18  20
HETATM   20  O1  UNL     1      -2.464   1.497  -0.392  1.00  0.00    -0.322 OA
HETATM   21  C1  UNL     1      -3.242   2.556  -0.898  1.00  0.00     0.213 C 
ENDBRANCH  18  20
ENDBRANCH   1  18
TORSDOF 5
