REMARK  3 active torsions:
REMARK  status: ('A' for Active; 'I' for Inactive)
REMARK    1  A    between atoms: C4_5  and  C5_6 
REMARK    2  A    between atoms: N2_7  and  C6_9 
REMARK    3  A    between atoms: C12_15  and  O1_16 
ROOT
HETATM    1  N1  UNL     1       6.704   2.064  -1.134  1.00  0.00    -0.190 NA
HETATM    2  C1  UNL     1       5.723   1.546  -0.783  1.00  0.00     0.117 C 
HETATM    3  C2  UNL     1       4.506   0.895  -0.371  1.00  0.00     0.116 A 
HETATM    4  C3  UNL     1       3.216   1.235  -0.753  1.00  0.00     0.058 A 
HETATM    5  C4  UNL     1       2.368   0.327  -0.104  1.00  0.00     0.033 A 
HETATM    6  C12 UNL     1       3.160  -0.522   0.641  1.00  0.00     0.152 A 
HETATM    7  N3  UNL     1       4.440  -0.166   0.469  1.00  0.00    -0.328 N 
ATOM      8  H3  UNL     1       5.242  -0.623   0.904  1.00  0.00     0.168 HD
ENDROOT
BRANCH   5   9
HETATM    9  C5  UNL     1       0.926   0.305  -0.213  1.00  0.00     0.099 C 
HETATM   10  N2  UNL     1       0.264  -0.577   0.432  1.00  0.00    -0.393 N 
ATOM     11  H2  UNL     1       0.777  -1.245   1.008  1.00  0.00     0.159 HD
BRANCH  10  12
HETATM   12  C6  UNL     1      -1.161  -0.672   0.384  1.00  0.00     0.081 C 
HETATM   13  C7  UNL     1      -1.781   0.298   1.369  1.00  0.00     0.025 C 
HETATM   14  C8  UNL     1      -3.254  -0.050   1.460  1.00  0.00     0.002 C 
HETATM   15  C9  UNL     1      -3.893   0.050   0.112  1.00  0.00     0.000 C 
HETATM   16  C10 UNL     1      -3.186  -0.707  -0.964  1.00  0.00     0.002 C 
HETATM   17  C11 UNL     1      -1.712  -0.293  -0.990  1.00  0.00     0.025 C 
ENDBRANCH  10  12
ENDBRANCH   5   9
BRANCH   6  18
HETATM   18  O1  UNL     1       2.679  -1.554   1.421  1.00  0.00    -0.345 OA
ATOM     19  H1  UNL     1       3.224  -2.139   1.934  1.00  0.00     0.219 HD
ENDBRANCH   6  18
TORSDOF 3
