REMARK  14 active torsions:
REMARK  status: ('A' for Active; 'I' for Inactive)
REMARK    1  A    between atoms: C2_2  and  C3_3 
REMARK    2  A    between atoms: C3_3  and  N1_4 
REMARK       I    between atoms: N1_4  and  C4_5 
REMARK    3  A    between atoms: C4_5  and  C5_7 
REMARK    4  A    between atoms: C5_7  and  C6_8 
REMARK    5  A    between atoms: C6_8  and  C7_9 
REMARK    6  A    between atoms: C7_9  and  C8_10 
REMARK    7  A    between atoms: C8_10  and  C9_11 
REMARK    8  A    between atoms: C16_19  and  C17_20 
REMARK    9  A    between atoms: C19_22  and  C20_23 
REMARK   10  A    between atoms: C20_23  and  O2_24 
REMARK   11  A    between atoms: C22_26  and  O3_27 
REMARK   12  A    between atoms: C23_29  and  O4_30 
REMARK   13  A    between atoms: C24_32  and  O5_33 
REMARK   14  A    between atoms: O5_33  and  C25_34 
ROOT
HETATM    1  C9  UNL     1      -0.269   2.490   0.011  1.00  0.00     0.022 C 
HETATM    2  C10 UNL     1      -0.761   3.903   0.168  1.00  0.00     0.014 C 
HETATM    3  C11 UNL     1      -0.539   4.821  -1.005  1.00  0.00     0.006 C 
HETATM    4  C12 UNL     1      -0.476   4.049  -2.234  1.00  0.00    -0.008 A 
HETATM    5  C13 UNL     1      -1.458   3.653  -3.193  1.00  0.00     0.012 A 
HETATM    6  C14 UNL     1      -1.543   2.933  -1.977  1.00  0.00     0.024 A 
HETATM    7  C15 UNL     1      -0.704   1.884  -1.334  1.00  0.00     0.239 C 
HETATM    8  N2  UNL     1      -1.478   0.874  -0.745  1.00  0.00     0.107 N 
HETATM    9  C16 UNL     1      -1.082  -0.473  -0.681  1.00  0.00     0.260 C 
HETATM   10  C24 UNL     1      -0.531  -0.810   0.678  1.00  0.00     0.167 C 
HETATM   11  C27 UNL     1      -0.914   0.429   1.459  1.00  0.00     0.071 C 
HETATM   12  C28 UNL     1      -1.243   1.516   0.543  1.00  0.00     0.237 C 
ENDROOT
BRANCH   9  13
HETATM   13  C17 UNL     1      -2.222  -1.418  -0.971  1.00  0.00     0.053 C 
HETATM   14  C18 UNL     1      -3.470  -1.136  -0.179  1.00  0.00     0.019 C 
HETATM   15  C19 UNL     1      -4.473  -2.082  -0.852  1.00  0.00     0.041 C 
HETATM   16  C22 UNL     1      -3.889  -2.437  -2.201  1.00  0.00     0.153 C 
HETATM   17  C23 UNL     1      -2.745  -1.398  -2.379  1.00  0.00     0.153 C 
BRANCH  15  18
HETATM   18  C20 UNL     1      -4.586  -3.303   0.026  1.00  0.00     0.174 C 
BRANCH  18  19
HETATM   19  O2  UNL     1      -5.020  -2.991   1.308  1.00  0.00    -0.395 OA
HETATM   20  C21 UNL     1      -6.242  -2.384   1.395  1.00  0.00     0.201 C 
ENDBRANCH  18  19
ENDBRANCH  15  18
BRANCH  16  21
HETATM   21  O3  UNL     1      -4.756  -2.253  -3.259  1.00  0.00    -0.393 OA
ATOM     22  H3  UNL     1      -4.389  -2.476  -4.106  1.00  0.00     0.210 HD
ENDBRANCH  16  21
BRANCH  17  23
HETATM   23  O4  UNL     1      -3.308  -0.190  -2.751  1.00  0.00    -0.393 OA
ATOM     24  H4  UNL     1      -3.639  -0.177  -3.641  1.00  0.00     0.210 HD
ENDBRANCH  17  23
ENDBRANCH   9  13
BRANCH  10  25
HETATM   25  O5  UNL     1      -1.166  -1.952   1.194  1.00  0.00    -0.314 OA
BRANCH  25  26
HETATM   26  C25 UNL     1      -0.523  -3.130   1.578  1.00  0.00     0.255 C 
HETATM   27  C26 UNL     1      -1.251  -4.276   2.135  1.00  0.00     0.126 C 
HETATM   28  O6  UNL     1       0.763  -3.118   1.409  1.00  0.00    -0.266 OA
ENDBRANCH  25  26
ENDBRANCH  10  25
BRANCH   1  29
HETATM   29  C8  UNL     1       1.196   2.344   0.187  1.00  0.00     0.014 C 
BRANCH  29  30
HETATM   30  C7  UNL     1       1.742   2.776   1.525  1.00  0.00     0.001 C 
BRANCH  30  31
HETATM   31  C6  UNL     1       3.241   2.661   1.621  1.00  0.00     0.010 C 
BRANCH  31  32
HETATM   32  C5  UNL     1       3.760   1.279   1.330  1.00  0.00     0.119 C 
BRANCH  32  33
HETATM   33  C4  UNL     1       5.251   1.230   1.433  1.00  0.00     0.290 C 
HETATM   34  N1  UNL     1       5.902   0.122   0.807  1.00  0.00    -0.388 NA
HETATM   35  O1  UNL     1       5.808   2.171   2.059  1.00  0.00    -0.257 OA
BRANCH  34  36
HETATM   36  C3  UNL     1       6.515  -0.874   0.245  1.00  0.00     0.158 C 
BRANCH  36  37
HETATM   37  C2  UNL     1       7.499  -1.756   1.020  1.00  0.00     0.055 C 
HETATM   38  C1  UNL     1       8.022  -2.815   0.104  1.00  0.00     0.011 C 
ENDBRANCH  36  37
ENDBRANCH  34  36
ENDBRANCH  32  33
ENDBRANCH  31  32
ENDBRANCH  30  31
ENDBRANCH  29  30
ENDBRANCH   1  29
TORSDOF 14
