REMARK  13 active torsions:
REMARK  status: ('A' for Active; 'I' for Inactive)
REMARK    1  A    between atoms: C3_3  and  C4_4 
REMARK    2  A    between atoms: C4_4  and  C5_5 
REMARK    3  A    between atoms: C6_6  and  O1_7 
REMARK    4  A    between atoms: N1_11  and  C9_12 
REMARK    5  A    between atoms: C9_12  and  C10_13 
REMARK       I    between atoms: C10_13  and  N2_15 
REMARK    6  A    between atoms: N2_15  and  C11_17 
REMARK    7  A    between atoms: C11_17  and  C12_18 
REMARK    8  A    between atoms: C12_18  and  N3_19 
REMARK    9  A    between atoms: N3_19  and  C13_20 
REMARK   10  A    between atoms: N3_19  and  C15_22 
REMARK   11  A    between atoms: C17_24  and  O3_25 
REMARK   12  A    between atoms: N4_31  and  C22_32 
REMARK   13  A    between atoms: C27_37  and  O4_38 
ROOT
HETATM    1  C5  UNL     1       0.033   0.461   0.278  1.00  0.00     0.051 A 
HETATM    2  C6  UNL     1      -0.386   0.692   1.583  1.00  0.00     0.102 A 
HETATM    3  C7  UNL     1      -1.318  -0.256   1.927  1.00  0.00     0.044 A 
HETATM    4  C8  UNL     1      -2.004  -0.345   3.244  1.00  0.00     0.071 C 
HETATM    5  N1  UNL     1      -1.481  -1.065   0.862  1.00  0.00    -0.320 N 
HETATM    6  C17 UNL     1      -0.686  -0.662  -0.143  1.00  0.00     0.156 A 
ENDROOT
BRANCH   1   7
HETATM    7  C4  UNL     1       0.964   1.228  -0.502  1.00  0.00     0.033 C 
BRANCH   7   8
HETATM    8  C3  UNL     1       2.249   1.087  -0.669  1.00  0.00    -0.001 A 
HETATM    9  C2  UNL     1       3.165   0.172  -0.169  1.00  0.00     0.041 A 
HETATM   10  C1  UNL     1       2.946  -0.812   0.652  1.00  0.00     0.044 C 
HETATM   11  N4  UNL     1       4.414   0.442  -0.660  1.00  0.00    -0.315 N 
HETATM   12  C20 UNL     1       4.313   1.500  -1.454  1.00  0.00     0.020 A 
HETATM   13  C18 UNL     1       3.013   1.934  -1.495  1.00  0.00    -0.027 A 
HETATM   14  C21 UNL     1       5.450   2.142  -2.205  1.00  0.00     0.069 C 
HETATM   15  C19 UNL     1       2.454   3.080  -2.251  1.00  0.00     0.051 C 
BRANCH  11  16
HETATM   16  C22 UNL     1       5.587  -0.287  -0.370  1.00  0.00     0.043 A 
HETATM   17  C23 UNL     1       5.773  -1.597  -0.825  1.00  0.00     0.037 A 
HETATM   18  C24 UNL     1       6.923  -2.300  -0.540  1.00  0.00    -0.057 A 
HETATM   19  C25 UNL     1       7.147  -3.690  -1.010  1.00  0.00     0.048 C 
HETATM   20  C26 UNL     1       7.915  -1.705   0.208  1.00  0.00     0.043 A 
HETATM   21  C27 UNL     1       7.772  -0.401   0.682  1.00  0.00     0.070 A 
HETATM   22  C29 UNL     1       6.611   0.270   0.378  1.00  0.00     0.066 A 
BRANCH  21  23
HETATM   23  O4  UNL     1       8.764   0.206   1.434  1.00  0.00    -0.356 OA
HETATM   24  C28 UNL     1       8.565   1.528   1.887  1.00  0.00     0.210 C 
ENDBRANCH  21  23
ENDBRANCH  11  16
ENDBRANCH   7   8
ENDBRANCH   1   7
BRANCH   2  25
HETATM   25  O1  UNL     1       0.098   1.729   2.355  1.00  0.00    -0.358 OA
ATOM     26  H1  UNL     1      -0.188   1.887   3.247  1.00  0.00     0.217 HD
ENDBRANCH   2  25
BRANCH   6  27
HETATM   27  O3  UNL     1      -0.528  -1.199  -1.421  1.00  0.00    -0.345 OA
ATOM     28  H3  UNL     1      -1.016  -1.962  -1.707  1.00  0.00     0.219 HD
ENDBRANCH   6  27
BRANCH   5  29
HETATM   29  C9  UNL     1      -2.375  -2.200   0.814  1.00  0.00     0.234 C 
BRANCH  29  30
HETATM   30  C10 UNL     1      -3.715  -1.765   0.317  1.00  0.00     0.235 C 
HETATM   31  O2  UNL     1      -4.578  -2.673   0.242  1.00  0.00    -0.272 OA
HETATM   32  N2  UNL     1      -3.960  -0.423  -0.035  1.00  0.00    -0.358 N 
ATOM     33  H2  UNL     1      -3.204   0.257   0.049  1.00  0.00     0.162 HD
BRANCH  32  34
HETATM   34  C11 UNL     1      -5.242   0.016  -0.509  1.00  0.00     0.142 C 
BRANCH  34  35
HETATM   35  C12 UNL     1      -6.296  -0.162   0.516  1.00  0.00     0.141 C 
BRANCH  35  36
HETATM   36  N3  UNL     1      -7.612   0.228   0.182  1.00  0.00    -0.393 N 
BRANCH  36  37
HETATM   37  C13 UNL     1      -7.962   1.557  -0.007  1.00  0.00     0.054 C 
HETATM   38  C14 UNL     1      -7.465   2.315  -1.165  1.00  0.00     0.054 C 
ENDBRANCH  36  37
BRANCH  36  39
HETATM   39  C15 UNL     1      -8.386  -0.756  -0.511  1.00  0.00     0.117 C 
HETATM   40  C16 UNL     1      -8.669  -1.902   0.433  1.00  0.00     0.026 C 
ENDBRANCH  36  39
ENDBRANCH  35  36
ENDBRANCH  34  35
ENDBRANCH  32  34
ENDBRANCH  29  30
ENDBRANCH   5  29
TORSDOF 13
