REMARK  14 active torsions:
REMARK  status: ('A' for Active; 'I' for Inactive)
REMARK    1  A    between atoms: C2_2  and  C3_3 
REMARK    2  A    between atoms: C3_3  and  C4_4 
REMARK    3  A    between atoms: C4_4  and  C5_5 
REMARK    4  A    between atoms: C5_5  and  O1_6 
REMARK    5  A    between atoms: C5_5  and  C6_8 
REMARK       I    between atoms: C6_8  and  N1_10 
REMARK    6  A    between atoms: N1_10  and  C7_12 
REMARK    7  A    between atoms: C8_17  and  C9_18 
REMARK    8  A    between atoms: C9_18  and  C10_19 
REMARK    9  A    between atoms: C10_19  and  C11_20 
REMARK   10  A    between atoms: C11_20  and  C12_21 
REMARK   11  A    between atoms: C12_21  and  C13_22 
REMARK   12  A    between atoms: C14_24  and  N4_25 
REMARK       I    between atoms: N4_25  and  C15_27 
REMARK   13  A    between atoms: C15_27  and  C16_29 
REMARK   14  A    between atoms: C16_29  and  C17_30 
ROOT
HETATM    1  C10 UNL     1      -0.364  -0.766  -1.282  1.00  0.00     0.007 C 
ENDROOT
BRANCH   1   2
HETATM    2  C9  UNL     1      -0.632   0.296  -2.327  1.00  0.00     0.066 C 
BRANCH   2   3
HETATM    3  C8  UNL     1      -2.098   0.617  -2.316  1.00  0.00     0.069 A 
HETATM    4  N3  UNL     1      -2.769   1.479  -3.066  1.00  0.00    -0.296 N 
HETATM    5  N2  UNL     1      -4.016   1.620  -2.917  1.00  0.00    -0.279 N 
ATOM      6  H3  UNL     1      -2.276   2.032  -3.767  1.00  0.00     0.187 HD
HETATM    7  C7  UNL     1      -4.650   0.893  -1.999  1.00  0.00     0.167 A 
ATOM      8  H2  UNL     1      -4.532   2.284  -3.494  1.00  0.00     0.189 HD
HETATM    9  S2  UNL     1      -3.357  -0.024  -1.340  1.00  0.00    -0.038 SA
BRANCH   7  10
HETATM   10  N1  UNL     1      -5.931   0.903  -1.708  1.00  0.00    -0.304 N 
HETATM   11  C6  UNL     1      -6.415   0.052  -0.695  1.00  0.00     0.256 C 
HETATM   12  O2  UNL     1      -5.775  -0.910  -0.229  1.00  0.00    -0.270 OA
ATOM     13  H1  UNL     1      -6.569   1.521  -2.210  1.00  0.00     0.171 HD
BRANCH  11  14
HETATM   14  C5  UNL     1      -7.800   0.337  -0.147  1.00  0.00     0.233 C 
BRANCH  14  15
HETATM   15  C4  UNL     1      -7.833   1.775   0.184  1.00  0.00     0.010 C 
BRANCH  15  16
HETATM   16  C3  UNL     1      -9.019   2.487   0.622  1.00  0.00    -0.028 C 
BRANCH  16  17
HETATM   17  C2  UNL     1      -9.788   2.183   1.830  1.00  0.00     0.022 C 
HETATM   18  C1  UNL     1     -10.510   0.887   1.923  1.00  0.00     0.009 C 
ENDBRANCH  16  17
ENDBRANCH  15  16
ENDBRANCH  14  15
BRANCH  14  19
HETATM   19  O1  UNL     1      -8.090  -0.566   0.838  1.00  0.00    -0.382 OA
ATOM     20  H1  UNL     1      -8.069  -1.492   0.625  1.00  0.00     0.211 HD
ENDBRANCH  14  19
ENDBRANCH  11  14
ENDBRANCH   7  10
ENDBRANCH   2   3
ENDBRANCH   1   2
BRANCH   1  21
HETATM   21  C11 UNL     1       1.121  -1.046  -1.349  1.00  0.00     0.006 C 
BRANCH  21  22
HETATM   22  C12 UNL     1       1.577  -2.100  -0.369  1.00  0.00     0.048 C 
BRANCH  22  23
HETATM   23  C13 UNL     1       3.065  -2.227  -0.603  1.00  0.00     0.008 A 
HETATM   24  S1  UNL     1       4.343  -1.579   0.320  1.00  0.00    -0.057 SA
HETATM   25  C14 UNL     1       5.650  -2.158  -0.612  1.00  0.00     0.151 A 
HETATM   26  N6  UNL     1       5.038  -2.825  -1.592  1.00  0.00    -0.339 N 
HETATM   27  C22 UNL     1       3.734  -2.874  -1.608  1.00  0.00     0.020 A 
ATOM     28  H6  UNL     1       5.582  -3.290  -2.319  1.00  0.00     0.168 HD
HETATM   29  C23 UNL     1       2.931  -3.612  -2.674  1.00  0.00     0.069 C 
BRANCH  25  30
HETATM   30  N4  UNL     1       6.946  -2.009  -0.459  1.00  0.00    -0.307 N 
HETATM   31  C15 UNL     1       7.426  -1.262   0.626  1.00  0.00     0.229 C 
HETATM   32  O3  UNL     1       8.275  -1.871   1.375  1.00  0.00    -0.273 OA
ATOM     33  H4  UNL     1       7.596  -2.432  -1.122  1.00  0.00     0.171 HD
BRANCH  31  34
HETATM   34  C16 UNL     1       7.081   0.110   0.997  1.00  0.00     0.160 C 
BRANCH  34  35
HETATM   35  C17 UNL     1       7.874   0.566   2.190  1.00  0.00     0.019 A 
HETATM   36  C18 UNL     1       7.585   0.390   3.520  1.00  0.00     0.027 A 
HETATM   37  C19 UNL     1       8.577   0.973   4.288  1.00  0.00     0.019 A 
HETATM   38  C20 UNL     1       9.472   1.505   3.388  1.00  0.00     0.090 A 
HETATM   39  N5  UNL     1       9.046   1.259   2.128  1.00  0.00    -0.364 N 
HETATM   40  C21 UNL     1       9.707   1.658   0.916  1.00  0.00     0.155 C 
ENDBRANCH  34  35
ENDBRANCH  31  34
ENDBRANCH  25  30
ENDBRANCH  22  23
ENDBRANCH  21  22
ENDBRANCH   1  21
TORSDOF 14
