REMARK  12 active torsions:
REMARK  status: ('A' for Active; 'I' for Inactive)
REMARK       I    between atoms: C1_2  and  N1_3 
REMARK    1  A    between atoms: C1_2  and  O7_30 
REMARK       I    between atoms: N1_3  and  C2_5 
REMARK    2  A    between atoms: C2_5  and  C3_7 
REMARK       I    between atoms: C3_7  and  N2_9 
REMARK    3  A    between atoms: C7_13  and  C8_14 
REMARK       I    between atoms: C8_14  and  N3_16 
REMARK    4  A    between atoms: N3_16  and  C9_18 
REMARK    5  A    between atoms: C9_18  and  C10_19 
REMARK    6  A    between atoms: C9_18  and  C17_27 
REMARK    7  A    between atoms: C10_19  and  C11_20 
REMARK    8  A    between atoms: C11_20  and  S1_21 
REMARK    9  A    between atoms: S1_21  and  C12_22 
REMARK   10  A    between atoms: O7_30  and  C18_31 
REMARK   11  A    between atoms: C18_31  and  C19_32 
REMARK   12  A    between atoms: C19_32  and  C20_33 
ROOT
HETATM    1  C3  UNL     1       0.138  -3.438  -0.075  1.00  0.00     0.312 C 
HETATM    2  O3  UNL     1      -0.217  -4.077   0.953  1.00  0.00    -0.262 OA
HETATM    3  N2  UNL     1      -0.597  -3.470  -1.285  1.00  0.00    -0.331 N 
HETATM    4  C4  UNL     1      -1.798  -4.255  -1.435  1.00  0.00     0.127 C 
HETATM    5  C5  UNL     1      -2.382  -3.956  -2.770  1.00  0.00     0.022 C 
HETATM    6  C6  UNL     1      -1.167  -3.493  -3.561  1.00  0.00     0.037 C 
HETATM    7  C7  UNL     1      -0.320  -2.773  -2.502  1.00  0.00     0.179 C 
ENDROOT
BRANCH   1   8
HETATM    8  C2  UNL     1       1.355  -2.638  -0.001  1.00  0.00     0.318 C 
HETATM    9  N1  UNL     1       2.103  -2.552   1.230  1.00  0.00    -0.265 N 
HETATM   10  C1  UNL     1       3.272  -1.752   1.273  1.00  0.00     0.367 C 
ATOM     11  H1  UNL     1       1.794  -3.060   2.059  1.00  0.00     0.174 HD
HETATM   12  O1  UNL     1       3.929  -1.654   2.343  1.00  0.00    -0.238 OA
HETATM   13  O2  UNL     1       1.822  -1.989  -0.969  1.00  0.00    -0.262 OA
BRANCH  10  14
HETATM   14  O7  UNL     1       3.667  -1.092   0.134  1.00  0.00    -0.304 OA
BRANCH  14  15
HETATM   15  C18 UNL     1       4.780  -0.264   0.017  1.00  0.00     0.181 C 
BRANCH  15  16
HETATM   16  C19 UNL     1       4.677   0.935   0.915  1.00  0.00     0.031 C 
BRANCH  16  17
HETATM   17  C20 UNL     1       5.874   1.849   0.776  1.00  0.00    -0.013 C 
HETATM   18  C21 UNL     1       5.737   3.036   1.688  1.00  0.00     0.005 C 
HETATM   19  C22 UNL     1       7.163   3.413   2.082  1.00  0.00     0.000 C 
HETATM   20  C23 UNL     1       8.056   2.440   1.360  1.00  0.00     0.000 C 
HETATM   21  C24 UNL     1       7.175   1.216   1.150  1.00  0.00     0.005 C 
ENDBRANCH  16  17
ENDBRANCH  15  16
ENDBRANCH  14  15
ENDBRANCH  10  14
ENDBRANCH   1   8
BRANCH   7  22
HETATM   22  C8  UNL     1      -0.747  -1.332  -2.439  1.00  0.00     0.241 C 
HETATM   23  O4  UNL     1      -0.434  -0.557  -3.374  1.00  0.00    -0.271 OA
HETATM   24  N3  UNL     1      -1.487  -0.820  -1.370  1.00  0.00    -0.345 N 
ATOM     25  H3  UNL     1      -1.746  -1.454  -0.614  1.00  0.00     0.163 HD
BRANCH  24  26
HETATM   26  C9  UNL     1      -1.911   0.582  -1.279  1.00  0.00     0.186 C 
BRANCH  26  27
HETATM   27  C10 UNL     1      -3.353   0.718  -1.565  1.00  0.00     0.046 C 
BRANCH  27  28
HETATM   28  C11 UNL     1      -4.007   2.039  -1.501  1.00  0.00     0.077 C 
BRANCH  28  29
HETATM   29  S1  UNL     1      -4.153   2.863   0.054  1.00  0.00    -0.164 SA
BRANCH  29  30
HETATM   30  C12 UNL     1      -5.296   2.216   1.237  1.00  0.00     0.047 C 
HETATM   31  C13 UNL     1      -4.989   0.889   1.815  1.00  0.00     0.015 C 
HETATM   32  C14 UNL     1      -6.102  -0.057   1.410  1.00  0.00     0.001 C 
HETATM   33  C15 UNL     1      -6.999   0.696   0.458  1.00  0.00     0.001 C 
HETATM   34  C16 UNL     1      -6.730   2.175   0.745  1.00  0.00     0.015 C 
ENDBRANCH  29  30
ENDBRANCH  28  29
ENDBRANCH  27  28
ENDBRANCH  26  27
BRANCH  26  35
HETATM   35  C17 UNL     1      -1.433   1.222  -0.066  1.00  0.00     0.196 C 
HETATM   36  O5  UNL     1      -1.200   0.534   0.993  1.00  0.00    -0.646 OA
HETATM   37  O6  UNL     1      -1.206   2.615  -0.017  1.00  0.00    -0.646 OA
ENDBRANCH  26  35
ENDBRANCH  24  26
ENDBRANCH   7  22
TORSDOF 12
