REMARK  11 active torsions:
REMARK  status: ('A' for Active; 'I' for Inactive)
REMARK    1  A    between atoms: C2_2  and  C3_3 
REMARK    2  A    between atoms: N2_7  and  C5_9 
REMARK    3  A    between atoms: C5_9  and  C6_10 
REMARK    4  A    between atoms: C6_10  and  N3_11 
REMARK    5  A    between atoms: N3_11  and  C7_12 
REMARK       I    between atoms: N3_11  and  C13_21 
REMARK    6  A    between atoms: C7_12  and  C8_13 
REMARK    7  A    between atoms: C8_13  and  C9_14 
REMARK       I    between atoms: C9_14  and  N4_16 
REMARK    8  A    between atoms: N4_16  and  C10_18 
REMARK       I    between atoms: C13_21  and  N5_23 
REMARK    9  A    between atoms: N5_23  and  C14_25 
REMARK   10  A    between atoms: C20_33  and  N7_34 
REMARK   11  A    between atoms: C24_38  and  N8_39 
ROOT
HETATM    1  C6  UNL     1       0.234   1.184   0.350  1.00  0.00     0.147 C 
ENDROOT
BRANCH   1   2
HETATM    2  C5  UNL     1       0.855   0.826   1.681  1.00  0.00     0.158 C 
BRANCH   2   3
HETATM    3  N2  UNL     1       2.205   1.268   1.829  1.00  0.00    -0.224 N 
HETATM    4  C4  UNL     1       3.194   0.599   1.368  1.00  0.00     0.680 A 
HETATM    5  N1  UNL     1       3.061  -0.549   0.721  1.00  0.00    -0.193 N 
HETATM    6  N6  UNL     1       4.465   1.084   1.549  1.00  0.00    -0.174 N 
HETATM    7  C3  UNL     1       4.105  -1.285   0.221  1.00  0.00     0.063 A 
ATOM      8  H1  UNL     1       2.117  -0.911   0.585  1.00  0.00     0.184 HD
HETATM    9  C24 UNL     1       5.366  -0.766   0.421  1.00  0.00     0.170 A 
HETATM   10  C20 UNL     1       5.537   0.446   1.101  1.00  0.00     0.154 A 
ATOM     11  H6  UNL     1       4.589   1.966   2.046  1.00  0.00     0.186 HD
ATOM     12  H2  UNL     1       2.387   2.145   2.318  1.00  0.00     0.177 HD
BRANCH   7  13
HETATM   13  C2  UNL     1       3.844  -2.558  -0.494  1.00  0.00     0.056 C 
HETATM   14  C1  UNL     1       3.914  -2.437  -1.983  1.00  0.00     0.011 C 
ENDBRANCH   7  13
BRANCH   9  15
HETATM   15  N8  UNL     1       6.460  -1.504  -0.055  1.00  0.00    -0.110 N 
HETATM   16  O3  UNL     1       6.756  -1.565  -1.257  1.00  0.00    -0.532 OA
HETATM   17  O4  UNL     1       7.297  -2.227   0.795  1.00  0.00    -0.532 OA
ENDBRANCH   9  15
BRANCH  10  18
HETATM   18  N7  UNL     1       6.857   0.929   1.272  1.00  0.00    -0.365 N 
HETATM   19  C21 UNL     1       7.875   1.409   0.379  1.00  0.00     0.126 C 
HETATM   20  C22 UNL     1       8.930   0.970   1.396  1.00  0.00     0.040 C 
HETATM   21  C23 UNL     1       7.791   1.167   2.373  1.00  0.00     0.126 C 
ENDBRANCH  10  18
ENDBRANCH   2   3
ENDBRANCH   1   2
BRANCH   1  22
HETATM   22  N3  UNL     1      -1.146   0.657   0.396  1.00  0.00    -0.332 N 
HETATM   23  C13 UNL     1      -1.445  -0.641  -0.052  1.00  0.00     0.318 C 
HETATM   24  O2  UNL     1      -0.539  -1.382  -0.489  1.00  0.00    -0.247 OA
HETATM   25  N5  UNL     1      -2.758  -1.139  -0.023  1.00  0.00    -0.338 N 
ATOM     26  H5  UNL     1      -3.499  -0.535   0.333  1.00  0.00     0.164 HD
BRANCH  22  27
HETATM   27  C7  UNL     1      -2.199   1.503   0.929  1.00  0.00     0.136 C 
BRANCH  27  28
HETATM   28  C8  UNL     1      -2.840   2.296  -0.178  1.00  0.00     0.122 C 
BRANCH  28  29
HETATM   29  C9  UNL     1      -3.920   3.171   0.316  1.00  0.00     0.219 C 
HETATM   30  O1  UNL     1      -4.249   3.221   1.539  1.00  0.00    -0.274 OA
HETATM   31  N4  UNL     1      -4.631   3.993  -0.591  1.00  0.00    -0.356 N 
ATOM     32  H4  UNL     1      -4.382   3.967  -1.580  1.00  0.00     0.162 HD
BRANCH  31  33
HETATM   33  C10 UNL     1      -5.709   4.877  -0.159  1.00  0.00     0.084 A 
HETATM   34  C11 UNL     1      -5.752   6.243  -0.812  1.00  0.00     0.027 A 
HETATM   35  C12 UNL     1      -6.812   5.205  -1.085  1.00  0.00     0.027 A 
ENDBRANCH  31  33
ENDBRANCH  28  29
ENDBRANCH  27  28
ENDBRANCH  22  27
BRANCH  25  36
HETATM   36  C14 UNL     1      -3.110  -2.477  -0.477  1.00  0.00     0.086 C 
HETATM   37  C15 UNL     1      -3.796  -3.260   0.636  1.00  0.00     0.025 C 
HETATM   38  C16 UNL     1      -3.970  -4.689   0.140  1.00  0.00     0.002 C 
HETATM   39  C17 UNL     1      -4.930  -4.648  -1.030  1.00  0.00     0.000 C 
HETATM   40  C18 UNL     1      -4.442  -3.725  -2.122  1.00  0.00     0.002 C 
HETATM   41  C19 UNL     1      -4.108  -2.361  -1.614  1.00  0.00     0.025 C 
ENDBRANCH  25  36
ENDBRANCH   1  22
TORSDOF 11
