REMARK  8 active torsions:
REMARK  status: ('A' for Active; 'I' for Inactive)
REMARK    1  A    between atoms: O1_2  and  C2_3 
REMARK    2  A    between atoms: C4_5  and  C5_6 
REMARK    3  A    between atoms: C11_15  and  N2_16 
REMARK    4  A    between atoms: N2_16  and  N3_18 
REMARK    5  A    between atoms: N3_18  and  N4_19 
REMARK    6  A    between atoms: C12_22  and  O2_23 
REMARK    7  A    between atoms: C15_27  and  O3_28 
REMARK    8  A    between atoms: C17_30  and  O4_31 
ROOT
HETATM    1  C5  UNL     1       1.069   0.133  -1.323  1.00  0.00     0.003 A 
HETATM    2  C6  UNL     1       1.623   0.704  -2.446  1.00  0.00    -0.007 A 
HETATM    3  C7  UNL     1       1.108   1.887  -3.236  1.00  0.00     0.057 C 
HETATM    4  S1  UNL     1       3.010  -0.244  -2.718  1.00  0.00    -0.075 SA
HETATM    5  C8  UNL     1       2.863  -1.335  -1.417  1.00  0.00     0.088 A 
HETATM    6  N1  UNL     1       3.633  -2.387  -1.008  1.00  0.00    -0.351 N 
ATOM      7  H1  UNL     1       4.474  -2.622  -1.535  1.00  0.00     0.166 HD
HETATM    8  C9  UNL     1       3.307  -3.128   0.082  1.00  0.00     0.038 A 
HETATM    9  C10 UNL     1       4.173  -4.252   0.500  1.00  0.00     0.070 C 
HETATM   10  C11 UNL     1       2.156  -2.728   0.718  1.00  0.00     0.118 A 
HETATM   11  C12 UNL     1       1.367  -1.689   0.342  1.00  0.00     0.110 A 
HETATM   12  C13 UNL     1       1.721  -0.927  -0.795  1.00  0.00     0.045 A 
ENDROOT
BRANCH   1  13
HETATM   13  C4  UNL     1      -0.174   0.737  -0.784  1.00  0.00    -0.018 A 
HETATM   14  C3  UNL     1      -0.151   1.881  -0.021  1.00  0.00     0.052 A 
HETATM   15  C2  UNL     1      -1.283   2.475   0.473  1.00  0.00     0.105 A 
HETATM   16  C17 UNL     1      -2.481   1.867   0.169  1.00  0.00     0.135 A 
HETATM   17  C15 UNL     1      -2.535   0.709  -0.599  1.00  0.00     0.105 A 
HETATM   18  C14 UNL     1      -1.357   0.129  -1.087  1.00  0.00     0.052 A 
BRANCH  15  19
HETATM   19  O1  UNL     1      -1.292   3.635   1.249  1.00  0.00    -0.353 OA
HETATM   20  C1  UNL     1      -0.001   4.200   1.521  1.00  0.00     0.210 C 
ENDBRANCH  15  19
BRANCH  16  21
HETATM   21  O4  UNL     1      -3.640   2.421   0.638  1.00  0.00    -0.351 OA
HETATM   22  C18 UNL     1      -4.261   2.128   1.873  1.00  0.00     0.210 C 
ENDBRANCH  16  21
BRANCH  17  23
HETATM   23  O3  UNL     1      -3.771   0.142  -0.869  1.00  0.00    -0.353 OA
HETATM   24  C16 UNL     1      -3.911  -1.035  -1.621  1.00  0.00     0.210 C 
ENDBRANCH  17  23
ENDBRANCH   1  13
BRANCH  11  25
HETATM   25  O2  UNL     1       0.233  -1.395   1.076  1.00  0.00    -0.357 OA
ATOM     26  H2  UNL     1      -0.319  -0.668   0.813  1.00  0.00     0.217 HD
ENDBRANCH  11  25
BRANCH  10  27
HETATM   27  N2  UNL     1       1.739  -3.479   1.878  1.00  0.00    -0.212 N 
ATOM     28  H2  UNL     1       0.762  -3.755   1.980  1.00  0.00     0.204 HD
BRANCH  27  29
HETATM   29  N3  UNL     1       2.560  -3.789   2.748  1.00  0.00    -0.243 NA
BRANCH  29  30
HETATM   30  N4  UNL     1       3.016  -4.221   3.800  1.00  0.00    -0.260 N 
ATOM     31  H42 UNL     1       2.125  -4.503   4.210  1.00  0.00     0.193 HD
ATOM     32  H41 UNL     1       3.694  -4.477   4.518  1.00  0.00     0.193 HD
ENDBRANCH  29  30
ENDBRANCH  27  29
ENDBRANCH  10  27
TORSDOF 8
