REMARK  6 active torsions:
REMARK  status: ('A' for Active; 'I' for Inactive)
REMARK    1  A    between atoms: C2_2  and  S1_3 
REMARK    2  A    between atoms: S1_3  and  C3_4 
REMARK    3  A    between atoms: C8_13  and  O1_14 
REMARK    4  A    between atoms: C10_17  and  O2_18 
REMARK    5  A    between atoms: N3_20  and  C11_21 
REMARK    6  A    between atoms: C15_26  and  C17_28 
ROOT
HETATM    1  C3  UNL     1       0.444   2.424  -0.321  1.00  0.00     0.165 A 
HETATM    2  N1  UNL     1       1.611   3.076  -0.273  1.00  0.00    -0.278 N 
ATOM      3  H1  UNL     1       1.753   4.051  -0.538  1.00  0.00     0.189 HD
HETATM    4  N2  UNL     1       2.543   2.268   0.167  1.00  0.00    -0.282 N 
ATOM      5  H2  UNL     1       3.524   2.516   0.298  1.00  0.00     0.188 HD
HETATM    6  C4  UNL     1       1.992   1.027   0.426  1.00  0.00     0.139 A 
HETATM    7  C5  UNL     1       2.789  -0.056   0.958  1.00  0.00     0.043 A 
HETATM    8  C6  UNL     1       2.492  -1.362   0.661  1.00  0.00     0.021 A 
HETATM    9  C7  UNL     1       3.235  -2.414   1.219  1.00  0.00     0.037 A 
HETATM   10  C8  UNL     1       4.280  -2.172   2.076  1.00  0.00     0.068 A 
HETATM   11  C9  UNL     1       4.570  -0.874   2.364  1.00  0.00     0.074 A 
HETATM   12  C10 UNL     1       3.839   0.212   1.818  1.00  0.00     0.082 A 
HETATM   13  N3  UNL     1       0.694   1.168   0.113  1.00  0.00    -0.283 N 
ENDROOT
BRANCH  13  14
HETATM   14  C11 UNL     1      -0.324   0.182   0.256  1.00  0.00     0.233 C 
HETATM   15  C12 UNL     1      -1.608   0.717   0.894  1.00  0.00     0.057 C 
HETATM   16  C13 UNL     1      -2.301  -0.557   1.431  1.00  0.00     0.044 C 
HETATM   17  C14 UNL     1      -2.725  -1.270   0.149  1.00  0.00     0.204 C 
HETATM   18  F1  UNL     1      -3.793  -0.555  -0.406  1.00  0.00    -0.246 F 
HETATM   19  C15 UNL     1      -1.653  -1.376  -0.876  1.00  0.00     0.090 C 
HETATM   20  C16 UNL     1      -2.354  -1.284  -2.252  1.00  0.00     0.049 C 
HETATM   21  O3  UNL     1      -0.696  -0.413  -0.904  1.00  0.00    -0.353 OA
BRANCH  19  22
HETATM   22  C17 UNL     1      -1.055  -2.789  -0.877  1.00  0.00     0.036 C 
HETATM   23  C18 UNL     1      -2.122  -3.790  -1.186  1.00  0.00     0.008 C 
ENDBRANCH  19  22
ENDBRANCH  13  14
BRANCH  12  24
HETATM   24  O2  UNL     1       4.231   1.467   2.193  1.00  0.00    -0.360 OA
ATOM     25  H2  UNL     1       4.952   1.651   2.784  1.00  0.00     0.217 HD
ENDBRANCH  12  24
BRANCH   1  26
HETATM   26  S1  UNL     1      -1.082   3.109  -0.863  1.00  0.00    -0.093 SA
BRANCH  26  27
HETATM   27  C2  UNL     1      -0.839   4.832  -1.348  1.00  0.00     0.078 C 
HETATM   28  C1  UNL     1      -2.166   5.402  -1.812  1.00  0.00     0.016 C 
ENDBRANCH  26  27
ENDBRANCH   1  26
BRANCH  10  29
HETATM   29  O1  UNL     1       5.025  -3.236   2.634  1.00  0.00    -0.361 OA
ATOM     30  H1  UNL     1       5.748  -3.069   3.227  1.00  0.00     0.217 HD
ENDBRANCH  10  29
TORSDOF 6
