REMARK  8 active torsions:
REMARK  status: ('A' for Active; 'I' for Inactive)
REMARK    1  A    between atoms: O1_2  and  C2_3 
REMARK    2  A    between atoms: C4_5  and  N1_6 
REMARK    3  A    between atoms: C6_10  and  C7_11 
REMARK    4  A    between atoms: C7_11  and  N2_12 
REMARK    5  A    between atoms: N2_12  and  C8_14 
REMARK    6  A    between atoms: N4_17  and  O4_18 
REMARK    7  A    between atoms: N5_26  and  O5_27 
REMARK    8  A    between atoms: C16_30  and  N6_31 
ROOT
HETATM    1  C2  UNL     1       4.442   1.358   0.152  1.00  0.00     0.071 A 
HETATM    2  C3  UNL     1       3.815   1.540   1.332  1.00  0.00     0.073 A 
HETATM    3  C4  UNL     1       2.623   0.829   1.669  1.00  0.00     0.117 A 
HETATM    4  C5  UNL     1       2.144  -0.035   0.737  1.00  0.00     0.015 A 
HETATM    5  C6  UNL     1       0.935  -0.696   0.939  1.00  0.00    -0.024 A 
HETATM    6  C15 UNL     1       0.480  -1.510  -0.111  1.00  0.00     0.045 A 
HETATM    7  C16 UNL     1       1.143  -1.681  -1.296  1.00  0.00     0.104 A 
HETATM    8  C17 UNL     1       2.319  -1.019  -1.473  1.00  0.00     0.048 A 
HETATM    9  C18 UNL     1       2.822  -0.202  -0.482  1.00  0.00    -0.018 A 
HETATM   10  C19 UNL     1       3.985   0.488  -0.799  1.00  0.00     0.049 A 
ENDROOT
BRANCH   5  11
HETATM   11  C7  UNL     1       0.151  -0.567   2.157  1.00  0.00     0.177 C 
BRANCH  11  12
HETATM   12  N2  UNL     1      -1.143  -1.267   1.928  1.00  0.00    -0.218 N 
ATOM     13  H2  UNL     1      -1.314  -2.194   2.317  1.00  0.00     0.178 HD
BRANCH  12  14
HETATM   14  C8  UNL     1      -2.147  -0.596   1.140  1.00  0.00     0.721 A 
HETATM   15  N3  UNL     1      -1.892   0.623   0.642  1.00  0.00    -0.103 N 
HETATM   16  N4  UNL     1      -2.779   1.274  -0.081  1.00  0.00    -0.147 N 
ATOM     17  H3  UNL     1      -0.988   1.057   0.828  1.00  0.00     0.208 HD
HETATM   18  C9  UNL     1      -3.990   0.688  -0.326  1.00  0.00     0.111 A 
HETATM   19  C10 UNL     1      -4.960   1.298  -1.066  1.00  0.00     0.036 A 
HETATM   20  C14 UNL     1      -4.261  -0.576   0.188  1.00  0.00     0.112 A 
HETATM   21  C11 UNL     1      -6.177   0.703  -1.307  1.00  0.00     0.003 A 
HETATM   22  C12 UNL     1      -6.451  -0.549  -0.801  1.00  0.00     0.002 A 
HETATM   23  C13 UNL     1      -5.492  -1.183  -0.055  1.00  0.00     0.035 A 
HETATM   24  N5  UNL     1      -3.322  -1.175   0.908  1.00  0.00    -0.049 N 
BRANCH  16  25
HETATM   25  O4  UNL     1      -2.524   2.530  -0.599  1.00  0.00    -0.267 OA
ATOM     26  H4  UNL     1      -3.164   3.000  -1.121  1.00  0.00     0.247 HD
ENDBRANCH  16  25
BRANCH  24  27
HETATM   27  O5  UNL     1      -3.525  -2.412   1.440  1.00  0.00    -0.269 OA
ATOM     28  H5  UNL     1      -4.364  -2.825   1.274  1.00  0.00     0.245 HD
ENDBRANCH  24  27
ENDBRANCH  12  14
ENDBRANCH  11  12
ENDBRANCH   5  11
BRANCH   3  29
HETATM   29  N1  UNL     1       2.104   1.137   2.916  1.00  0.00    -0.115 N 
HETATM   30  O2  UNL     1       1.860   0.481   3.886  1.00  0.00    -0.532 OA
HETATM   31  O3  UNL     1       2.098   2.542   3.239  1.00  0.00    -0.532 OA
ENDBRANCH   3  29
BRANCH   7  32
HETATM   32  N6  UNL     1       0.614  -2.527  -2.301  1.00  0.00    -0.116 N 
HETATM   33  O6  UNL     1       1.193  -2.711  -3.394  1.00  0.00    -0.532 OA
HETATM   34  O7  UNL     1      -0.577  -3.204  -2.135  1.00  0.00    -0.532 OA
ENDBRANCH   7  32
BRANCH   1  35
HETATM   35  O1  UNL     1       5.622   2.084  -0.140  1.00  0.00    -0.356 OA
HETATM   36  C1  UNL     1       6.308   1.921  -1.361  1.00  0.00     0.210 C 
ENDBRANCH   1  35
TORSDOF 8
