REMARK  3 active torsions:
REMARK  status: ('A' for Active; 'I' for Inactive)
REMARK    1  A    between atoms: C4_4  and  C5_5 
REMARK    2  A    between atoms: C9_11  and  C10_12 
REMARK    3  A    between atoms: C16_27  and  N7_28 
ROOT
HETATM    1  C5  UNL     1       1.079   0.169   0.290  1.00  0.00     0.045 A 
HETATM    2  C6  UNL     1       0.867   0.830  -0.894  1.00  0.00     0.060 A 
HETATM    3  C7  UNL     1      -0.406   0.947  -1.465  1.00  0.00     0.046 A 
HETATM    4  N1  UNL     1      -0.872   1.524  -2.581  1.00  0.00    -0.364 N 
ATOM      5  H1  UNL     1      -0.295   2.023  -3.258  1.00  0.00     0.165 HD
HETATM    6  C8  UNL     1      -2.205   1.357  -2.689  1.00  0.00     0.103 A 
HETATM    7  C9  UNL     1      -2.615   0.639  -1.593  1.00  0.00     0.023 A 
HETATM    8  C13 UNL     1      -1.489   0.389  -0.837  1.00  0.00     0.020 A 
HETATM    9  C14 UNL     1      -1.249  -0.270   0.350  1.00  0.00     0.103 A 
HETATM   10  N5  UNL     1      -0.020  -0.373   0.886  1.00  0.00    -0.364 N 
ATOM     11  H5  UNL     1       0.093  -0.873   1.768  1.00  0.00     0.165 HD
ENDROOT
BRANCH   1  12
HETATM   12  C4  UNL     1       2.380   0.018   0.928  1.00  0.00     0.007 A 
HETATM   13  C3  UNL     1       3.513   0.550   0.358  1.00  0.00     0.025 A 
HETATM   14  C2  UNL     1       4.749   0.399   0.977  1.00  0.00    -0.018 A 
HETATM   15  C1  UNL     1       6.000   0.957   0.399  1.00  0.00     0.052 C 
HETATM   16  C16 UNL     1       4.786  -0.293   2.162  1.00  0.00     0.104 A 
HETATM   17  N6  UNL     1       3.695  -0.820   2.736  1.00  0.00    -0.351 N 
HETATM   18  C15 UNL     1       2.514  -0.662   2.121  1.00  0.00     0.103 A 
ATOM     19  H6  UNL     1       3.762  -1.328   3.618  1.00  0.00     0.166 HD
BRANCH  16  20
HETATM   20  N7  UNL     1       5.928  -0.460   2.781  1.00  0.00    -0.385 N 
ATOM     21  H72 UNL     1       6.758  -0.059   2.344  1.00  0.00     0.157 HD
ATOM     22  H71 UNL     1       5.955  -0.974   3.661  1.00  0.00     0.157 HD
ENDBRANCH  16  20
ENDBRANCH   1  12
BRANCH   7  23
HETATM   23  C10 UNL     1      -3.980   0.225  -1.292  1.00  0.00     0.079 A 
HETATM   24  C11 UNL     1      -5.090   0.490  -2.067  1.00  0.00     0.140 A 
HETATM   25  N2  UNL     1      -6.137  -0.066  -1.431  1.00  0.00    -0.293 N 
HETATM   26  N3  UNL     1      -5.735  -0.654  -0.316  1.00  0.00    -0.239 N 
ATOM     27  H2  UNL     1      -7.102  -0.038  -1.761  1.00  0.00     0.187 HD
HETATM   28  C12 UNL     1      -6.637  -1.349   0.597  1.00  0.00     0.200 C 
HETATM   29  N4  UNL     1      -4.440  -0.472  -0.243  1.00  0.00    -0.282 N 
ATOM     30  H4  UNL     1      -3.854  -0.818   0.517  1.00  0.00     0.189 HD
ENDBRANCH   7  23
TORSDOF 3
