REMARK  4 active torsions:
REMARK  status: ('A' for Active; 'I' for Inactive)
REMARK    1  A    between atoms: N1_1  and  C1_4 
REMARK    2  A    between atoms: C3_10  and  C4_11 
REMARK    3  A    between atoms: C4_11  and  N4_12 
REMARK       I    between atoms: N4_12  and  C5_15 
REMARK       I    between atoms: C5_15  and  N5_16 
REMARK       I    between atoms: C5_15  and  N6_20 
REMARK    4  A    between atoms: C6_26  and  N8_27 
ROOT
HETATM    1  C1  UNL     1       3.388   0.742   0.732  1.00  0.00     0.681 A 
HETATM    2  N2  UNL     1       2.416   1.662   0.668  1.00  0.00    -0.141 N 
ATOM      3  H2  UNL     1       2.583   2.620   0.976  1.00  0.00     0.189 HD
HETATM    4  C2  UNL     1       1.216   1.293   0.188  1.00  0.00     0.348 A 
HETATM    5  O1  UNL     1       0.286   2.156   0.123  1.00  0.00    -0.245 OA
HETATM    6  N3  UNL     1       0.978   0.027  -0.227  1.00  0.00    -0.232 N 
HETATM    7  C3  UNL     1      -0.117  -0.543  -0.729  1.00  0.00     0.121 A 
HETATM    8  N7  UNL     1       0.183  -1.844  -0.981  1.00  0.00    -0.322 N 
ATOM      9  H7  UNL     1      -0.463  -2.531  -1.370  1.00  0.00     0.169 HD
HETATM   10  C6  UNL     1       1.456  -2.089  -0.641  1.00  0.00     0.221 A 
HETATM   11  C7  UNL     1       1.960  -0.912  -0.166  1.00  0.00     0.183 A 
HETATM   12  N9  UNL     1       3.149  -0.500   0.323  1.00  0.00    -0.172 N 
ATOM     13  H9  UNL     1       3.907  -1.180   0.382  1.00  0.00     0.186 HD
ENDROOT
BRANCH   7  14
HETATM   14  C4  UNL     1      -1.429   0.111  -0.973  1.00  0.00     0.313 C 
BRANCH  14  15
HETATM   15  N4  UNL     1      -2.207   0.001   0.217  1.00  0.00    -0.015 N 
HETATM   16  C5  UNL     1      -3.501   0.585   0.092  1.00  0.00     0.576 C 
HETATM   17  N5  UNL     1      -4.195   0.410   1.355  1.00  0.00    -0.026 N 
HETATM   18  N6  UNL     1      -3.374   1.973  -0.266  1.00  0.00    -0.026 N 
ATOM     19  H53 UNL     1      -4.229  -0.564   1.655  1.00  0.00     0.278 HD
ATOM     20  H52 UNL     1      -3.670   0.779   2.148  1.00  0.00     0.278 HD
ATOM     21  H51 UNL     1      -5.121   0.828   1.266  1.00  0.00     0.278 HD
ATOM     22  H63 UNL     1      -2.783   2.486   0.388  1.00  0.00     0.278 HD
ATOM     23  H62 UNL     1      -2.811   2.103  -1.107  1.00  0.00     0.278 HD
ATOM     24  H61 UNL     1      -4.300   2.391  -0.355  1.00  0.00     0.278 HD
ATOM     25  H42 UNL     1      -2.274  -0.971   0.520  1.00  0.00     0.282 HD
ATOM     26  H41 UNL     1      -1.707   0.391   1.016  1.00  0.00     0.282 HD
ENDBRANCH  14  15
ENDBRANCH   7  14
BRANCH  10  27
HETATM   27  N8  UNL     1       2.183  -3.303  -0.735  1.00  0.00    -0.094 N 
HETATM   28  O2  UNL     1       1.912  -4.193  -1.588  1.00  0.00    -0.530 OA
HETATM   29  O3  UNL     1       3.235  -3.588   0.103  1.00  0.00    -0.530 OA
ENDBRANCH  10  27
BRANCH   1  30
HETATM   30  N1  UNL     1       4.534   1.100   1.193  1.00  0.00    -0.234 N 
ATOM     31  H12 UNL     1       4.717   2.053   1.507  1.00  0.00     0.174 HD
ATOM     32  H11 UNL     1       5.274   0.400   1.242  1.00  0.00     0.174 HD
ENDBRANCH   1  30
TORSDOF 4
