REMARK  9 active torsions:
REMARK  status: ('A' for Active; 'I' for Inactive)
REMARK    1  A    between atoms: N1_1  and  N2_4 
REMARK    2  A    between atoms: N2_4  and  C1_6 
REMARK    3  A    between atoms: C1_6  and  O1_7 
REMARK    4  A    between atoms: C1_6  and  C2_9 
REMARK    5  A    between atoms: C2_9  and  N3_10 
REMARK    6  A    between atoms: C2_9  and  N6_25 
REMARK    7  A    between atoms: C7_20  and  N5_21 
REMARK    8  A    between atoms: N5_21  and  O4_23 
REMARK    9  A    between atoms: N6_25  and  N7_26 
ROOT
HETATM    1  N3  UNL     1       0.182  -0.580   0.523  1.00  0.00    -0.360 N 
ATOM      2  H3  UNL     1      -0.073  -1.190   1.300  1.00  0.00     0.161 HD
HETATM    3  C3  UNL     1       1.419  -0.583   0.278  1.00  0.00     0.127 A 
HETATM    4  C4  UNL     1       2.320  -1.433   1.107  1.00  0.00     0.277 A 
HETATM    5  O2  UNL     1       1.817  -2.130   2.035  1.00  0.00    -0.266 OA
HETATM    6  N4  UNL     1       3.698  -1.425   0.821  1.00  0.00    -0.288 N 
ATOM      7  H4  UNL     1       4.313  -2.007   1.389  1.00  0.00     0.172 HD
HETATM    8  C5  UNL     1       4.274  -0.651  -0.214  1.00  0.00     0.250 A 
HETATM    9  O3  UNL     1       5.520  -0.688  -0.421  1.00  0.00    -0.268 OA
HETATM   10  C6  UNL     1       3.361   0.164  -1.000  1.00  0.00     0.108 A 
HETATM   11  C7  UNL     1       2.049   0.194  -0.772  1.00  0.00     0.091 A 
ENDROOT
BRANCH   1  12
HETATM   12  C2  UNL     1      -0.927   0.085  -0.045  1.00  0.00     0.246 C 
BRANCH  12  13
HETATM   13  C1  UNL     1      -2.249  -0.614   0.322  1.00  0.00     0.272 C 
BRANCH  13  14
HETATM   14  N2  UNL     1      -3.385   0.157  -0.062  1.00  0.00    -0.311 N 
ATOM     15  H2  UNL     1      -4.028   0.558   0.621  1.00  0.00     0.182 HD
BRANCH  14  16
HETATM   16  N1  UNL     1      -3.554   0.323  -1.418  1.00  0.00    -0.347 N 
ATOM     17  H12 UNL     1      -2.902  -0.084  -2.089  1.00  0.00     0.176 HD
ATOM     18  H11 UNL     1      -4.367   0.875  -1.693  1.00  0.00     0.176 HD
ENDBRANCH  14  16
ENDBRANCH  13  14
BRANCH  13  19
HETATM   19  O1  UNL     1      -2.213  -1.900  -0.151  1.00  0.00    -0.372 OA
ATOM     20  H1  UNL     1      -1.456  -2.414   0.105  1.00  0.00     0.212 HD
ENDBRANCH  13  19
ENDBRANCH  12  13
BRANCH  12  21
HETATM   21  N6  UNL     1      -1.016   1.490   0.306  1.00  0.00    -0.118 NA
BRANCH  21  22
HETATM   22  N7  UNL     1      -1.244   1.715   1.644  1.00  0.00    -0.346 N 
ATOM     23  H72 UNL     1      -1.339   0.953   2.315  1.00  0.00     0.172 HD
ATOM     24  H71 UNL     1      -1.307   2.703   1.891  1.00  0.00     0.172 HD
ENDBRANCH  21  22
ENDBRANCH  12  21
ENDBRANCH   1  12
BRANCH  11  25
HETATM   25  N5  UNL     1       1.331   1.063  -1.659  1.00  0.00    -0.267 N 
ATOM     26  H5  UNL     1       0.505   0.752  -2.170  1.00  0.00     0.194 HD
BRANCH  25  27
HETATM   27  O4  UNL     1       1.785   2.237  -1.769  1.00  0.00    -0.289 OA
ATOM     28  H4  UNL     1       1.309   2.813  -2.356  1.00  0.00     0.244 HD
ENDBRANCH  25  27
ENDBRANCH  11  25
TORSDOF 9
