REMARK  6 active torsions:
REMARK  status: ('A' for Active; 'I' for Inactive)
REMARK       I    between atoms: C1_4  and  N2_5 
REMARK       I    between atoms: C1_4  and  N9_23 
REMARK    1  A    between atoms: N2_5  and  N3_7 
REMARK    2  A    between atoms: C2_9  and  C3_10 
REMARK    3  A    between atoms: C3_10  and  C4_12 
REMARK    4  A    between atoms: C5_15  and  N5_16 
REMARK    5  A    between atoms: N5_16  and  N6_17 
REMARK    6  A    between atoms: N9_23  and  N10_25 
ROOT
HETATM    1  N3  UNL     1      -1.119   0.260  -0.123  1.00  0.00    -0.294 N 
ATOM      2  H3  UNL     1      -0.229   0.741  -0.249  1.00  0.00     0.186 HD
HETATM    3  C2  UNL     1      -1.133  -0.939   0.384  1.00  0.00     0.166 C 
ENDROOT
BRANCH   3   4
HETATM    4  C3  UNL     1       0.105  -1.608   0.776  1.00  0.00     0.233 C 
HETATM    5  O1  UNL     1       0.020  -2.763   1.258  1.00  0.00    -0.283 OA
BRANCH   4   6
HETATM    6  C4  UNL     1       1.407  -0.960   0.615  1.00  0.00     0.168 C 
HETATM    7  N4  UNL     1       1.665   0.211   0.142  1.00  0.00    -0.338 N 
HETATM    8  C5  UNL     1       3.083   0.490   0.148  1.00  0.00     0.312 C 
ATOM      9  H4  UNL     1       0.955   0.861  -0.195  1.00  0.00     0.164 HD
HETATM   10  N7  UNL     1       3.704  -0.810   0.352  1.00  0.00    -0.095 NA
HETATM   11  N8  UNL     1       2.666  -1.524   0.965  1.00  0.00    -0.283 N 
ATOM     12  H8  UNL     1       2.794  -2.332   1.574  1.00  0.00     0.184 HD
BRANCH   8  13
HETATM   13  N5  UNL     1       3.559   1.052  -1.087  1.00  0.00    -0.103 NA
BRANCH  13  14
HETATM   14  N6  UNL     1       4.919   1.281  -0.979  1.00  0.00    -0.345 N 
ATOM     15  H62 UNL     1       5.479   1.079  -0.151  1.00  0.00     0.172 HD
ATOM     16  H61 UNL     1       5.257   1.680  -1.855  1.00  0.00     0.172 HD
ENDBRANCH  13  14
ENDBRANCH   8  13
ENDBRANCH   4   6
ENDBRANCH   3   4
BRANCH   1  17
HETATM   17  N2  UNL     1      -2.302   0.896  -0.496  1.00  0.00    -0.131 N 
HETATM   18  C1  UNL     1      -3.487   0.181  -0.827  1.00  0.00     0.709 C 
HETATM   19  N1  UNL     1      -3.468  -0.824  -1.622  1.00  0.00    -0.232 N 
HETATM   20  N9  UNL     1      -4.728   0.588  -0.263  1.00  0.00    -0.071 N 
ATOM     21  H12 UNL     1      -2.578  -1.116  -2.026  1.00  0.00     0.174 HD
ATOM     22  H11 UNL     1      -4.317  -1.336  -1.859  1.00  0.00     0.174 HD
ATOM     23  H9  UNL     1      -5.585   0.506  -0.811  1.00  0.00     0.212 HD
ATOM     24  H2  UNL     1      -2.319   1.915  -0.533  1.00  0.00     0.205 HD
BRANCH  20  25
HETATM   25  N10 UNL     1      -4.781   1.097   1.029  1.00  0.00    -0.024 N 
HETATM   26  O2  UNL     1      -4.586   2.307   1.211  1.00  0.00    -0.516 OA
HETATM   27  O3  UNL     1      -5.045   0.272   2.075  1.00  0.00    -0.516 OA
ENDBRANCH  20  25
ENDBRANCH   1  17
TORSDOF 6
