REMARK  4 active torsions:
REMARK  status: ('A' for Active; 'I' for Inactive)
REMARK    1  A    between atoms: C2_2  and  N1_3 
REMARK    2  A    between atoms: N1_3  and  C3_5 
REMARK    3  A    between atoms: C8_11  and  O1_12 
REMARK    4  A    between atoms: C10_15  and  C11_16 
ROOT
HETATM    1  C3  UNL     1       3.632   0.351   0.766  1.00  0.00     0.065 A 
HETATM    2  C4  UNL     1       2.952  -0.155  -0.351  1.00  0.00     0.040 A 
HETATM    3  C5  UNL     1       1.580  -0.271  -0.330  1.00  0.00    -0.045 A 
HETATM    4  C6  UNL     1       0.815   0.092   0.756  1.00  0.00    -0.005 A 
HETATM    5  C7  UNL     1       1.484   0.587   1.847  1.00  0.00     0.158 A 
HETATM    6  F1  UNL     1       0.816   0.972   2.967  1.00  0.00    -0.203 F 
HETATM    7  C8  UNL     1       2.890   0.718   1.857  1.00  0.00     0.131 A 
HETATM    8  C9  UNL     1      -0.623   0.055   0.993  1.00  0.00     0.095 C 
HETATM    9  C10 UNL     1      -1.490   0.053  -0.179  1.00  0.00    -0.010 C 
HETATM   10  N2  UNL     1      -1.249   0.071  -1.414  1.00  0.00    -0.395 N 
ATOM     11  H2  UNL     1      -2.085   0.062  -1.998  1.00  0.00     0.159 HD
HETATM   12  C17 UNL     1      -0.035   0.101  -2.148  1.00  0.00     0.124 C 
HETATM   13  C18 UNL     1       1.023  -0.822  -1.593  1.00  0.00     0.059 C 
ENDROOT
BRANCH   9  14
HETATM   14  C11 UNL     1      -2.955   0.023   0.186  1.00  0.00     0.031 C 
HETATM   15  C12 UNL     1      -3.280  -1.199   0.978  1.00  0.00     0.010 C 
HETATM   16  C13 UNL     1      -4.771  -1.373   1.069  1.00  0.00     0.001 C 
HETATM   17  C14 UNL     1      -5.529  -0.121   0.672  1.00  0.00     0.000 C 
HETATM   18  C15 UNL     1      -5.231   0.237  -0.773  1.00  0.00     0.001 C 
HETATM   19  C16 UNL     1      -3.785  -0.012  -1.082  1.00  0.00     0.010 C 
ENDBRANCH   9  14
BRANCH   7  20
HETATM   20  O1  UNL     1       3.502   1.224   2.988  1.00  0.00    -0.356 OA
ATOM     21  H1  UNL     1       2.987   1.479   3.745  1.00  0.00     0.218 HD
ENDBRANCH   7  20
BRANCH   1  22
HETATM   22  N1  UNL     1       5.032   0.441   0.715  1.00  0.00    -0.388 N 
ATOM     23  H1  UNL     1       5.522   0.748   1.555  1.00  0.00     0.159 HD
BRANCH  22  24
HETATM   24  C2  UNL     1       5.822   0.126  -0.452  1.00  0.00     0.115 C 
HETATM   25  C1  UNL     1       5.579   1.073  -1.612  1.00  0.00     0.026 C 
ENDBRANCH  22  24
ENDBRANCH   1  22
TORSDOF 4
