REMARK  2 active torsions:
REMARK  status: ('A' for Active; 'I' for Inactive)
REMARK    1  A    between atoms: C4_4  and  N1_5 
REMARK    2  A    between atoms: N1_5  and  C5_7 
ROOT
HETATM    1  C5  UNL     1       1.187  -0.363   0.529  1.00  0.00     0.090 C 
HETATM    2  C6  UNL     1       1.983   0.175   1.703  1.00  0.00     0.019 C 
HETATM    3  C7  UNL     1       2.079   1.673   1.704  1.00  0.00     0.087 C 
HETATM    4  S1  UNL     1       2.707   2.209   0.082  1.00  0.00    -0.116 SA
HETATM    5  C8  UNL     1       3.853   0.950  -0.448  1.00  0.00     0.045 C 
HETATM    6  N2  UNL     1       4.847   1.155  -1.190  1.00  0.00    -0.397 N 
ATOM      7  H21 UNL     1       5.503   0.435  -1.493  1.00  0.00     0.156 HD
ATOM      8  H22 UNL     1       5.037   2.096  -1.535  1.00  0.00     0.156 HD
HETATM    9  C9  UNL     1       3.573  -0.437   0.060  1.00  0.00     0.052 C 
HETATM   10  C10 UNL     1       3.380  -0.374   1.562  1.00  0.00     0.019 C 
HETATM   11  C11 UNL     1       2.200  -0.822  -0.449  1.00  0.00    -0.018 C 
HETATM   12  C12 UNL     1       2.193  -2.352  -0.498  1.00  0.00     0.018 C 
HETATM   13  C13 UNL     1       2.044  -0.326  -1.843  1.00  0.00     0.018 C 
ENDROOT
BRANCH   1  14
HETATM   14  N1  UNL     1       0.224   0.579   0.078  1.00  0.00    -0.412 N 
ATOM     15  H1  UNL     1       0.316   1.577   0.267  1.00  0.00     0.154 HD
BRANCH  14  16
HETATM   16  C4  UNL     1      -0.880   0.048  -0.655  1.00  0.00     0.080 C 
HETATM   17  C3  UNL     1      -1.728  -0.907   0.175  1.00  0.00     0.029 C 
HETATM   18  C2  UNL     1      -3.102  -1.037  -0.409  1.00  0.00    -0.014 C 
HETATM   19  C1  UNL     1      -3.857  -2.132   0.338  1.00  0.00     0.010 C 
HETATM   20  C17 UNL     1      -3.869   0.255  -0.402  1.00  0.00     0.047 C 
HETATM   21  C15 UNL     1      -2.926   1.441  -0.247  1.00  0.00     0.102 C 
HETATM   22  C14 UNL     1      -1.726   1.244  -1.113  1.00  0.00     0.067 C 
HETATM   23  C16 UNL     1      -3.627   2.701  -0.715  1.00  0.00     0.051 C 
HETATM   24  F1  UNL     1      -2.584   1.641   1.083  1.00  0.00    -0.243 F 
ENDBRANCH  14  16
ENDBRANCH   1  14
TORSDOF 2
