REMARK  14 active torsions:
REMARK  status: ('A' for Active; 'I' for Inactive)
REMARK    1  A    between atoms: S1_2  and  C2_3 
REMARK    2  A    between atoms: C2_3  and  C3_4 
REMARK    3  A    between atoms: C3_4  and  C4_5 
REMARK    4  A    between atoms: C4_5  and  N1_6 
REMARK    5  A    between atoms: C4_5  and  C9_16 
REMARK       I    between atoms: N1_6  and  C5_8 
REMARK    6  A    between atoms: C5_8  and  C6_10 
REMARK       I    between atoms: C9_16  and  N3_18 
REMARK    7  A    between atoms: N3_18  and  C10_20 
REMARK    8  A    between atoms: C10_20  and  C11_21 
REMARK    9  A    between atoms: C10_20  and  C15_25 
REMARK   10  A    between atoms: C11_21  and  C12_22 
REMARK   11  A    between atoms: C15_25  and  O3_26 
REMARK   12  A    between atoms: C15_25  and  N4_28 
REMARK   13  A    between atoms: C20_34  and  C21_35 
REMARK       I    between atoms: C21_35  and  N5_37 
REMARK   14  A    between atoms: N5_37  and  C22_39 
ROOT
HETATM    1  C10 UNL     1      -0.257  -0.781  -1.221  1.00  0.00     0.159 C 
ENDROOT
BRANCH   1   2
HETATM    2  N3  UNL     1      -1.222  -0.976  -0.078  1.00  0.00    -0.347 N 
HETATM    3  C9  UNL     1      -2.573  -0.677  -0.328  1.00  0.00     0.241 C 
HETATM    4  O2  UNL     1      -2.905  -0.260  -1.498  1.00  0.00    -0.271 OA
ATOM      5  H3  UNL     1      -0.909  -1.309   0.834  1.00  0.00     0.163 HD
BRANCH   3   6
HETATM    6  C4  UNL     1      -3.653  -0.803   0.632  1.00  0.00     0.177 C 
BRANCH   6   7
HETATM    7  C3  UNL     1      -3.584   0.325   1.646  1.00  0.00     0.045 C 
BRANCH   7   8
HETATM    8  C2  UNL     1      -4.415   0.064   2.878  1.00  0.00     0.076 C 
BRANCH   8   9
HETATM    9  S1  UNL     1      -3.845  -1.456   3.718  1.00  0.00    -0.173 SA
HETATM   10  C1  UNL     1      -2.186  -1.295   4.375  1.00  0.00     0.089 C 
ENDBRANCH   8   9
ENDBRANCH   7   8
ENDBRANCH   6   7
BRANCH   6  11
HETATM   11  N1  UNL     1      -4.915  -1.067   0.069  1.00  0.00    -0.342 N 
HETATM   12  C5  UNL     1      -6.023  -0.233  -0.145  1.00  0.00     0.269 C 
HETATM   13  O1  UNL     1      -5.974   0.978   0.178  1.00  0.00    -0.266 OA
ATOM     14  H1  UNL     1      -5.047  -2.031  -0.236  1.00  0.00     0.163 HD
BRANCH  12  15
HETATM   15  C6  UNL     1      -7.275  -0.782  -0.761  1.00  0.00     0.107 A 
HETATM   16  C7  UNL     1      -8.352   0.036  -1.020  1.00  0.00     0.086 A 
HETATM   17  S2  UNL     1      -9.466  -1.059  -1.703  1.00  0.00    -0.094 SA
HETATM   18  C8  UNL     1      -8.522  -2.474  -1.624  1.00  0.00     0.138 A 
HETATM   19  N2  UNL     1      -7.404  -2.044  -1.082  1.00  0.00    -0.355 N 
ATOM     20  H2  UNL     1      -6.637  -2.694  -0.912  1.00  0.00     0.166 HD
ENDBRANCH  12  15
ENDBRANCH   6  11
ENDBRANCH   3   6
ENDBRANCH   1   2
BRANCH   1  21
HETATM   21  C11 UNL     1      -0.126  -2.015  -1.991  1.00  0.00     0.037 C 
BRANCH  21  22
HETATM   22  C12 UNL     1       0.630  -2.024  -3.262  1.00  0.00    -0.020 C 
HETATM   23  C13 UNL     1       0.624  -3.439  -3.874  1.00  0.00     0.009 C 
HETATM   24  C14 UNL     1      -0.185  -1.210  -4.320  1.00  0.00     0.009 C 
ENDBRANCH  21  22
ENDBRANCH   1  21
BRANCH   1  25
HETATM   25  C15 UNL     1       0.810   0.043  -0.734  1.00  0.00     0.138 C 
BRANCH  25  26
HETATM   26  O3  UNL     1       0.302   1.188  -0.199  1.00  0.00    -0.348 OA
ATOM     27  H3  UNL     1       1.009   1.734   0.124  1.00  0.00     0.219 HD
ENDBRANCH  25  26
BRANCH  25  28
HETATM   28  N4  UNL     1       2.203   0.007  -0.645  1.00  0.00    -0.340 N 
HETATM   29  C16 UNL     1       3.147  -1.057  -0.911  1.00  0.00     0.200 C 
HETATM   30  S3  UNL     1       4.162  -0.150  -2.167  1.00  0.00    -0.137 SA
HETATM   31  C17 UNL     1       4.036   1.475  -1.301  1.00  0.00     0.032 C 
HETATM   32  C18 UNL     1       5.416   1.819  -0.803  1.00  0.00     0.029 C 
HETATM   33  C19 UNL     1       3.568   2.528  -2.286  1.00  0.00     0.029 C 
HETATM   34  C20 UNL     1       3.019   1.193  -0.256  1.00  0.00     0.197 C 
BRANCH  34  35
HETATM   35  C21 UNL     1       3.458   1.105   1.127  1.00  0.00     0.242 C 
HETATM   36  O4  UNL     1       3.224   0.057   1.831  1.00  0.00    -0.271 OA
HETATM   37  N5  UNL     1       4.156   2.123   1.811  1.00  0.00    -0.355 N 
ATOM     38  H5  UNL     1       4.370   2.982   1.304  1.00  0.00     0.162 HD
BRANCH  37  39
HETATM   39  C22 UNL     1       4.590   2.019   3.200  1.00  0.00     0.076 C 
HETATM   40  C23 UNL     1       4.073   3.222   3.959  1.00  0.00     0.032 C 
HETATM   41  C24 UNL     1       6.110   2.075   3.241  1.00  0.00     0.032 C 
ENDBRANCH  37  39
ENDBRANCH  34  35
ENDBRANCH  25  28
ENDBRANCH   1  25
TORSDOF 14
