REMARK  14 active torsions:
REMARK  status: ('A' for Active; 'I' for Inactive)
REMARK    1  A    between atoms: N2_5  and  C4_6 
REMARK    2  A    between atoms: C6_8  and  O1_9 
REMARK    3  A    between atoms: O1_9  and  C7_10 
REMARK    4  A    between atoms: C7_10  and  C8_11 
REMARK    5  A    between atoms: C8_11  and  C9_12 
REMARK    6  A    between atoms: C9_12  and  C10_13 
REMARK    7  A    between atoms: C11_14  and  C12_15 
REMARK    8  A    between atoms: C12_15  and  C13_16 
REMARK    9  A    between atoms: C13_16  and  C14_17 
REMARK   10  A    between atoms: C14_17  and  O2_18 
REMARK   11  A    between atoms: O2_18  and  C15_19 
REMARK   12  A    between atoms: C15_19  and  O3_20 
REMARK   13  A    between atoms: C15_19  and  C16_22 
REMARK   14  A    between atoms: C25_34  and  C26_35 
ROOT
HETATM    1  N1  UNL     1      -8.229  -7.013  -0.365  1.00  0.00    -0.190 NA
HETATM    2  C1  UNL     1      -7.438  -6.313   0.136  1.00  0.00     0.119 C 
HETATM    3  C2  UNL     1      -6.469  -5.469   0.770  1.00  0.00     0.130 A 
HETATM    4  C3  UNL     1      -5.445  -4.767   0.153  1.00  0.00     0.133 A 
HETATM    5  N2  UNL     1      -4.757  -4.097   1.089  1.00  0.00    -0.343 N 
HETATM    6  C34 UNL     1      -5.327  -4.360   2.293  1.00  0.00     0.184 A 
HETATM    7  N5  UNL     1      -6.356  -5.189   2.083  1.00  0.00    -0.343 N 
ATOM      8  H5  UNL     1      -6.967  -5.556   2.812  1.00  0.00     0.167 HD
ENDROOT
BRANCH   5   9
HETATM    9  C4  UNL     1      -3.610  -3.228   0.946  1.00  0.00     0.118 C 
HETATM   10  C5  UNL     1      -2.524  -3.574   1.958  1.00  0.00     0.069 C 
HETATM   11  C6  UNL     1      -1.239  -2.912   1.423  1.00  0.00     0.215 C 
HETATM   12  C23 UNL     1      -1.529  -1.472   1.306  1.00  0.00     0.256 C 
HETATM   13  O4  UNL     1      -0.638  -0.603   1.560  1.00  0.00    -0.270 OA
HETATM   14  N3  UNL     1      -2.803  -0.982   0.911  1.00  0.00    -0.276 N 
HETATM   15  C24 UNL     1      -2.899   0.294   0.276  1.00  0.00     0.258 C 
HETATM   16  C33 UNL     1      -3.964  -1.785   1.173  1.00  0.00     0.145 C 
HETATM   17  O5  UNL     1      -1.900   1.048   0.221  1.00  0.00    -0.271 OA
HETATM   18  C25 UNL     1      -4.173   0.687  -0.297  1.00  0.00     0.281 C 
HETATM   19  N4  UNL     1      -5.257   0.083   0.501  1.00  0.00    -0.060 N 
HETATM   20  C32 UNL     1      -5.147  -1.350   0.329  1.00  0.00     0.261 C 
ATOM     21  H42 UNL     1      -5.248   0.374   1.479  1.00  0.00     0.278 HD
ATOM     22  H41 UNL     1      -6.181   0.448   0.268  1.00  0.00     0.278 HD
BRANCH  11  23
HETATM   23  O1  UNL     1      -0.150  -3.165   2.130  1.00  0.00    -0.376 OA
BRANCH  23  24
HETATM   24  C7  UNL     1       0.825  -4.003   1.776  1.00  0.00     0.169 C 
BRANCH  24  25
HETATM   25  C8  UNL     1       1.600  -3.875   0.542  1.00  0.00     0.030 C 
BRANCH  25  26
HETATM   26  C9  UNL     1       2.374  -2.548   0.484  1.00  0.00     0.029 C 
BRANCH  26  27
HETATM   27  C10 UNL     1       3.145  -2.615  -0.793  1.00  0.00    -0.031 C 
HETATM   28  C11 UNL     1       4.072  -1.588  -1.214  1.00  0.00    -0.031 C 
BRANCH  28  29
HETATM   29  C12 UNL     1       3.686  -0.215  -1.504  1.00  0.00     0.029 C 
BRANCH  29  30
HETATM   30  C13 UNL     1       3.152   0.594  -0.392  1.00  0.00     0.030 C 
BRANCH  30  31
HETATM   31  C14 UNL     1       2.872   2.019  -0.888  1.00  0.00     0.171 C 
BRANCH  31  32
HETATM   32  O2  UNL     1       3.940   2.714  -1.320  1.00  0.00    -0.360 OA
BRANCH  32  33
HETATM   33  C15 UNL     1       4.929   3.051  -0.455  1.00  0.00     0.273 C 
BRANCH  33  34
HETATM   34  O3  UNL     1       4.996   4.445  -0.240  1.00  0.00    -0.370 OA
ATOM     35  H3  UNL     1       5.689   4.681   0.366  1.00  0.00     0.212 HD
ENDBRANCH  33  34
BRANCH  33  36
HETATM   36  C16 UNL     1       6.328   2.634  -0.832  1.00  0.00     0.051 A 
HETATM   37  C17 UNL     1       6.839   3.148  -2.102  1.00  0.00    -0.004 A 
HETATM   38  C18 UNL     1       7.371   3.612  -0.979  1.00  0.00    -0.065 A 
HETATM   39  C19 UNL     1       7.993   4.158   0.289  1.00  0.00     0.035 C 
HETATM   40  C20 UNL     1       7.843   3.090   1.370  1.00  0.00     0.004 C 
HETATM   41  C21 UNL     1       8.127   1.765   0.657  1.00  0.00     0.002 C 
HETATM   42  C22 UNL     1       6.934   1.387  -0.213  1.00  0.00     0.023 C 
ENDBRANCH  33  36
ENDBRANCH  32  33
ENDBRANCH  31  32
ENDBRANCH  30  31
ENDBRANCH  29  30
ENDBRANCH  28  29
ENDBRANCH  26  27
ENDBRANCH  25  26
ENDBRANCH  24  25
ENDBRANCH  23  24
ENDBRANCH  11  23
BRANCH  18  43
HETATM   43  C26 UNL     1      -4.475   2.151  -0.360  1.00  0.00     0.026 C 
HETATM   44  C27 UNL     1      -5.905   2.301  -0.932  1.00  0.00     0.007 C 
HETATM   45  C28 UNL     1      -6.354   3.722  -0.857  1.00  0.00     0.000 C 
HETATM   46  C29 UNL     1      -5.349   4.682  -1.459  1.00  0.00     0.000 C 
HETATM   47  C30 UNL     1      -3.960   4.444  -0.937  1.00  0.00     0.000 C 
HETATM   48  C31 UNL     1      -3.600   2.975  -1.234  1.00  0.00     0.007 C 
ENDBRANCH  18  43
ENDBRANCH   5   9
TORSDOF 14
