REMARK  15 active torsions:
REMARK  status: ('A' for Active; 'I' for Inactive)
REMARK    1  A    between atoms: C6_8  and  C7_9 
REMARK    2  A    between atoms: C7_9  and  C8_10 
REMARK    3  A    between atoms: C8_10  and  N2_11 
REMARK    4  A    between atoms: C8_10  and  C9_15 
REMARK    5  A    between atoms: C8_10  and  N7_30 
REMARK    6  A    between atoms: C9_15  and  C10_16 
REMARK    7  A    between atoms: C10_16  and  C11_17 
REMARK    8  A    between atoms: C11_17  and  N3_18 
REMARK       I    between atoms: N3_18  and  C12_20 
REMARK    9  A    between atoms: C12_20  and  C13_22 
REMARK   10  A    between atoms: C13_22  and  N4_23 
REMARK   11  A    between atoms: N4_23  and  N5_25 
REMARK   12  A    between atoms: N7_30  and  C14_32 
REMARK   13  A    between atoms: C14_32  and  C15_33 
REMARK   14  A    between atoms: C15_33  and  C16_34 
REMARK   15  A    between atoms: C16_34  and  N8_35 
ROOT
HETATM    1  C8  UNL     1      -0.082   1.043   0.111  1.00  0.00     0.195 C 
ENDROOT
BRANCH   1   2
HETATM    2  C7  UNL     1      -0.264   1.878  -1.103  1.00  0.00     0.101 C 
BRANCH   2   3
HETATM    3  C6  UNL     1      -0.888   3.190  -0.939  1.00  0.00    -0.033 A 
HETATM    4  C2  UNL     1      -0.183   4.301  -0.625  1.00  0.00    -0.053 A 
HETATM    5  C1  UNL     1       1.274   4.339  -0.542  1.00  0.00     0.049 C 
HETATM    6  C3  UNL     1      -0.855   5.512  -0.428  1.00  0.00     0.024 A 
HETATM    7  C4  UNL     1      -2.221   5.620  -0.545  1.00  0.00     0.088 A 
HETATM    8  N1  UNL     1      -2.895   4.512  -0.859  1.00  0.00    -0.375 N 
HETATM    9  C5  UNL     1      -2.271   3.340  -1.051  1.00  0.00     0.095 A 
ATOM     10  H1  UNL     1      -3.909   4.557  -0.955  1.00  0.00     0.164 HD
ENDBRANCH   2   3
ENDBRANCH   1   2
BRANCH   1  11
HETATM   11  N2  UNL     1       0.709   1.696   1.110  1.00  0.00    -0.053 N 
ATOM     12  H23 UNL     1       1.608   1.994   0.731  1.00  0.00     0.277 HD
ATOM     13  H22 UNL     1       0.321   2.609   1.347  1.00  0.00     0.277 HD
ATOM     14  H21 UNL     1       0.834   1.122   1.944  1.00  0.00     0.277 HD
ENDBRANCH   1  11
BRANCH   1  15
HETATM   15  C9  UNL     1       0.752  -0.223  -0.253  1.00  0.00     0.063 C 
BRANCH  15  16
HETATM   16  C10 UNL     1       0.926  -1.006   1.031  1.00  0.00     0.024 C 
BRANCH  16  17
HETATM   17  C11 UNL     1       1.699  -2.265   0.827  1.00  0.00     0.123 C 
BRANCH  17  18
HETATM   18  N3  UNL     1       3.016  -2.027   0.305  1.00  0.00    -0.360 N 
HETATM   19  C12 UNL     1       4.018  -1.279   0.953  1.00  0.00     0.236 C 
HETATM   20  O1  UNL     1       3.717  -0.788   2.088  1.00  0.00    -0.272 OA
ATOM     21  H3  UNL     1       3.243  -2.430  -0.604  1.00  0.00     0.162 HD
BRANCH  19  22
HETATM   22  C13 UNL     1       5.365  -1.008   0.457  1.00  0.00     0.243 C 
BRANCH  22  23
HETATM   23  N4  UNL     1       5.675  -1.569  -0.812  1.00  0.00    -0.314 N 
ATOM     24  H4  UNL     1       4.990  -2.119  -1.331  1.00  0.00     0.182 HD
BRANCH  23  25
HETATM   25  N5  UNL     1       6.963  -1.336  -1.323  1.00  0.00    -0.253 N 
HETATM   26  N6  UNL     1       7.652  -2.315  -1.689  1.00  0.00    -0.331 N 
ATOM     27  H62 UNL     1       7.271  -3.258  -1.611  1.00  0.00     0.178 HD
ATOM     28  H61 UNL     1       8.587  -2.146  -2.060  1.00  0.00     0.178 HD
ATOM     29  H5  UNL     1       7.330  -0.387  -1.394  1.00  0.00     0.207 HD
ENDBRANCH  23  25
ENDBRANCH  22  23
ENDBRANCH  19  22
ENDBRANCH  17  18
ENDBRANCH  16  17
ENDBRANCH  15  16
ENDBRANCH   1  15
BRANCH   1  30
HETATM   30  N7  UNL     1      -1.309   0.591   0.726  1.00  0.00    -0.391 N 
ATOM     31  H7  UNL     1      -1.577   0.870   1.670  1.00  0.00     0.155 HD
BRANCH  30  32
HETATM   32  C14 UNL     1      -2.120  -0.267  -0.066  1.00  0.00     0.117 C 
BRANCH  32  33
HETATM   33  C15 UNL     1      -3.332  -0.659   0.749  1.00  0.00     0.039 C 
BRANCH  33  34
HETATM   34  C16 UNL     1      -4.252  -1.585  -0.013  1.00  0.00     0.123 C 
BRANCH  34  35
HETATM   35  N8  UNL     1      -3.550  -2.799  -0.376  1.00  0.00    -0.367 N 
HETATM   36  C17 UNL     1      -4.044  -3.968  -0.416  1.00  0.00     0.196 C 
HETATM   37  N9  UNL     1      -3.207  -5.051  -0.796  1.00  0.00    -0.067 NA
HETATM   38  N10 UNL     1      -5.414  -4.252  -0.095  1.00  0.00    -0.067 NA
ATOM     39  H8  UNL     1      -2.565  -2.706  -0.623  1.00  0.00     0.161 HD
ENDBRANCH  34  35
ENDBRANCH  33  34
ENDBRANCH  32  33
ENDBRANCH  30  32
ENDBRANCH   1  30
TORSDOF 15
