REMARK  6 active torsions:
REMARK  status: ('A' for Active; 'I' for Inactive)
REMARK    1  A    between atoms: C2_2  and  C3_3 
REMARK       I    between atoms: N3_9  and  C5_11 
REMARK    2  A    between atoms: C5_11  and  C6_13 
REMARK    3  A    between atoms: C6_13  and  S1_14 
REMARK    4  A    between atoms: S1_14  and  C7_15 
REMARK    5  A    between atoms: C10_21  and  N6_22 
REMARK    6  A    between atoms: C13_27  and  N8_28 
ROOT
HETATM    1  C7  UNL     1       0.453  -0.700  -1.822  1.00  0.00     0.131 A 
HETATM    2  N4  UNL     1      -0.652  -0.519  -1.125  1.00  0.00    -0.278 N 
ATOM      3  H4  UNL     1      -0.846   0.391  -0.706  1.00  0.00     0.189 HD
HETATM    4  N5  UNL     1      -1.488  -1.488  -0.971  1.00  0.00    -0.212 N 
HETATM    5  C8  UNL     1      -2.698  -1.682  -0.337  1.00  0.00     0.162 A 
HETATM    6  C9  UNL     1      -3.456  -0.734   0.430  1.00  0.00     0.100 A 
HETATM    7  C10 UNL     1      -4.465   0.040  -0.149  1.00  0.00     0.136 A 
HETATM    8  N7  UNL     1      -5.148   0.929   0.607  1.00  0.00    -0.176 N 
ATOM      9  H7  UNL     1      -5.882   1.487   0.169  1.00  0.00     0.186 HD
HETATM   10  C13 UNL     1      -4.894   1.103   1.913  1.00  0.00     0.679 A 
HETATM   11  N9  UNL     1      -3.928   0.368   2.488  1.00  0.00    -0.176 N 
ATOM     12  H9  UNL     1      -3.726   0.491   3.480  1.00  0.00     0.186 HD
HETATM   13  C14 UNL     1      -3.221  -0.532   1.771  1.00  0.00     0.132 A 
HETATM   14  N10 UNL     1      -2.321  -1.201   2.359  1.00  0.00    -0.384 N 
ATOM     15 1H10 UNL     1      -2.147  -1.051   3.353  1.00  0.00     0.157 HD
ATOM     16 2H10 UNL     1      -1.787  -1.881   1.817  1.00  0.00     0.157 HD
HETATM   17  N11 UNL     1      -3.055  -2.957  -0.560  1.00  0.00    -0.281 N 
ATOM     18  H11 UNL     1      -3.914  -3.379  -0.206  1.00  0.00     0.188 HD
HETATM   19  N12 UNL     1      -2.180  -3.589  -1.278  1.00  0.00    -0.276 N 
ATOM     20  H12 UNL     1      -2.211  -4.561  -1.587  1.00  0.00     0.189 HD
HETATM   21  C15 UNL     1      -1.205  -2.660  -1.529  1.00  0.00     0.189 A 
HETATM   22  S2  UNL     1       0.297  -2.342  -2.285  1.00  0.00    -0.024 SA
ENDROOT
BRANCH   7  23
HETATM   23  N6  UNL     1      -4.790  -0.092  -1.514  1.00  0.00    -0.375 N 
HETATM   24  C11 UNL     1      -4.150   0.743  -2.486  1.00  0.00     0.150 C 
HETATM   25  C12 UNL     1      -5.762  -1.061  -1.932  1.00  0.00     0.150 C 
ENDBRANCH   7  23
BRANCH   1  26
HETATM   26  S1  UNL     1       1.774   0.475  -2.186  1.00  0.00    -0.094 SA
BRANCH  26  27
HETATM   27  C6  UNL     1       2.977   0.323  -0.810  1.00  0.00     0.184 C 
BRANCH  27  28
HETATM   28  C5  UNL     1       2.391   0.785   0.455  1.00  0.00     0.234 C 
HETATM   29  N3  UNL     1       3.117   0.738   1.652  1.00  0.00    -0.291 N 
HETATM   30  C4  UNL     1       4.387   0.619   1.794  1.00  0.00     0.247 A 
ATOM     31  H3  UNL     1       2.572   0.806   2.512  1.00  0.00     0.172 HD
HETATM   32  N2  UNL     1       5.085   0.574   2.947  1.00  0.00    -0.263 N 
HETATM   33  O2  UNL     1       5.282   0.516   0.851  1.00  0.00    -0.264 OA
HETATM   34  N1  UNL     1       6.361   0.448   2.659  1.00  0.00    -0.280 N 
ATOM     35  H2  UNL     1       4.689   0.629   3.885  1.00  0.00     0.190 HD
HETATM   36  C3  UNL     1       6.497   0.410   1.324  1.00  0.00     0.141 A 
ATOM     37  H1  UNL     1       7.121   0.389   3.337  1.00  0.00     0.189 HD
HETATM   38  O1  UNL     1       1.217   1.228   0.460  1.00  0.00    -0.272 OA
BRANCH  36  39
HETATM   39  C2  UNL     1       7.780   0.274   0.620  1.00  0.00     0.081 C 
HETATM   40  C1  UNL     1       7.488   0.274  -0.885  1.00  0.00     0.013 C 
ENDBRANCH  36  39
ENDBRANCH  27  28
ENDBRANCH  26  27
ENDBRANCH   1  26
BRANCH  10  41
HETATM   41  N8  UNL     1      -5.575   1.976   2.615  1.00  0.00    -0.234 N 
ATOM     42  H82 UNL     1      -6.309   2.534   2.178  1.00  0.00     0.174 HD
ATOM     43  H81 UNL     1      -5.382   2.108   3.608  1.00  0.00     0.174 HD
ENDBRANCH  10  41
TORSDOF 6
