REMARK  10 active torsions:
REMARK  status: ('A' for Active; 'I' for Inactive)
REMARK    1  A    between atoms: C1_4  and  S1_5 
REMARK    2  A    between atoms: S1_5  and  C2_6 
REMARK    3  A    between atoms: C3_10  and  N3_11 
REMARK    4  A    between atoms: C4_16  and  C5_17 
REMARK    5  A    between atoms: C5_17  and  S2_18 
REMARK    6  A    between atoms: S2_18  and  C6_19 
REMARK    7  A    between atoms: C6_19  and  C7_20 
REMARK    8  A    between atoms: C9_25  and  O2_26 
REMARK    9  A    between atoms: C10_28  and  O3_29 
REMARK   10  A    between atoms: C11_31  and  O4_32 
ROOT
HETATM    1  C5  UNL     1       0.909  -0.476   0.734  1.00  0.00     0.109 C 
ENDROOT
BRANCH   1   2
HETATM    2  C4  UNL     1       2.075   0.442   1.117  1.00  0.00     0.176 C 
HETATM    3  C2  UNL     1       3.291   0.137   0.283  1.00  0.00     0.287 C 
HETATM    4  N2  UNL     1       4.333  -0.027   1.273  1.00  0.00    -0.007 N 
HETATM    5  C3  UNL     1       3.586  -0.538   2.406  1.00  0.00     0.523 C 
ATOM      6  H22 UNL     1       5.123  -0.602   0.980  1.00  0.00     0.283 HD
ATOM      7  H21 UNL     1       4.888   0.808   1.461  1.00  0.00     0.283 HD
HETATM    8  O1  UNL     1       2.446   0.240   2.448  1.00  0.00    -0.330 OA
BRANCH   3   9
HETATM    9  S1  UNL     1       3.728   1.546  -0.766  1.00  0.00    -0.089 SA
BRANCH   9  10
HETATM   10  C1  UNL     1       5.192   1.154  -1.697  1.00  0.00     0.128 C 
HETATM   11  N1  UNL     1       5.201   0.155  -2.486  1.00  0.00    -0.403 N 
ATOM     12  H12 UNL     1       4.358  -0.412  -2.573  1.00  0.00     0.155 HD
ATOM     13  H11 UNL     1       6.041  -0.070  -3.020  1.00  0.00     0.155 HD
ENDBRANCH   9  10
ENDBRANCH   3   9
BRANCH   5  14
HETATM   14  N3  UNL     1       4.378  -0.445   3.603  1.00  0.00    -0.027 N 
ATOM     15  H33 UNL     1       5.281  -0.909   3.500  1.00  0.00     0.279 HD
ATOM     16  H32 UNL     1       4.715   0.504   3.765  1.00  0.00     0.279 HD
ATOM     17  H31 UNL     1       3.853  -0.804   4.400  1.00  0.00     0.279 HD
ENDBRANCH   5  14
ENDBRANCH   1   2
BRANCH   1  18
HETATM   18  S2  UNL     1       0.556  -0.184  -0.990  1.00  0.00    -0.164 SA
BRANCH  18  19
HETATM   19  C6  UNL     1      -0.764  -1.153  -1.686  1.00  0.00     0.109 C 
BRANCH  19  20
HETATM   20  C7  UNL     1      -2.131  -0.878  -1.179  1.00  0.00     0.226 C 
HETATM   21  N4  UNL     1      -2.340  -1.070   0.224  1.00  0.00    -0.065 N 
HETATM   22  C8  UNL     1      -3.793  -1.284   0.363  1.00  0.00     0.267 C 
ATOM     23  H42 UNL     1      -1.771  -1.813   0.630  1.00  0.00     0.277 HD
ATOM     24  H41 UNL     1      -1.975  -0.315   0.804  1.00  0.00     0.277 HD
HETATM   25  C9  UNL     1      -4.527  -0.040   0.009  1.00  0.00     0.175 C 
HETATM   26  C10 UNL     1      -3.904   0.885  -0.947  1.00  0.00     0.179 C 
HETATM   27  C11 UNL     1      -2.648   0.467  -1.618  1.00  0.00     0.180 C 
BRANCH  25  28
HETATM   28  O2  UNL     1      -4.840   0.609   1.228  1.00  0.00    -0.391 OA
ATOM     29  H2  UNL     1      -5.309   1.404   1.002  1.00  0.00     0.210 HD
ENDBRANCH  25  28
BRANCH  26  30
HETATM   30  O3  UNL     1      -4.841   1.273  -1.936  1.00  0.00    -0.390 OA
ATOM     31  H3  UNL     1      -4.438   1.871  -2.554  1.00  0.00     0.210 HD
ENDBRANCH  26  30
BRANCH  27  32
HETATM   32  O4  UNL     1      -1.614   1.390  -1.460  1.00  0.00    -0.391 OA
ATOM     33  H4  UNL     1      -1.940   2.238  -1.737  1.00  0.00     0.210 HD
ENDBRANCH  27  32
ENDBRANCH  19  20
ENDBRANCH  18  19
ENDBRANCH   1  18
TORSDOF 10
