REMARK  5 active torsions:
REMARK  status: ('A' for Active; 'I' for Inactive)
REMARK    1  A    between atoms: O1_1  and  C1_3 
REMARK    2  A    between atoms: C1_3  and  C2_4 
REMARK    3  A    between atoms: C5_7  and  C6_8 
REMARK    4  A    between atoms: N1_14  and  C11_15 
REMARK    5  A    between atoms: C11_15  and  C12_16 
ROOT
HETATM    1  C6  UNL     1       3.190  -1.076   0.881  1.00  0.00     0.182 C 
HETATM    2  C7  UNL     1       3.263  -2.570   0.911  1.00  0.00     0.208 C 
HETATM    3  O2  UNL     1       1.903  -2.893   0.680  1.00  0.00    -0.351 OA
HETATM    4  C8  UNL     1       1.317  -1.803   0.080  1.00  0.00     0.182 C 
HETATM    5  C9  UNL     1       0.565  -2.110  -1.185  1.00  0.00     0.090 C 
HETATM    6  C10 UNL     1      -0.906  -2.041  -0.729  1.00  0.00     0.127 C 
HETATM    7  N1  UNL     1      -0.887  -1.001   0.194  1.00  0.00    -0.387 N 
HETATM    8  C22 UNL     1       0.304  -1.092   0.956  1.00  0.00     0.190 C 
HETATM    9  O3  UNL     1       2.345  -0.914  -0.250  1.00  0.00    -0.341 OA
ENDROOT
BRANCH   7  10
HETATM   10  C11 UNL     1      -1.462   0.230  -0.012  1.00  0.00     0.068 C 
BRANCH  10  11
HETATM   11  C12 UNL     1      -2.962   0.363   0.032  1.00  0.00    -0.007 C 
HETATM   12  C13 UNL     1      -3.495  -0.067   1.392  1.00  0.00     0.019 C 
HETATM   13  C14 UNL     1      -4.980   0.154   1.400  1.00  0.00    -0.013 C 
HETATM   14  C15 UNL     1      -5.687  -0.565   0.272  1.00  0.00     0.009 C 
HETATM   15  C19 UNL     1      -5.217   1.653   1.284  1.00  0.00     0.009 C 
HETATM   16  C16 UNL     1      -5.109  -0.118  -1.055  1.00  0.00    -0.013 C 
HETATM   17  C17 UNL     1      -5.350   1.351  -1.215  1.00  0.00     0.009 C 
HETATM   18  C21 UNL     1      -3.618  -0.451  -1.018  1.00  0.00     0.019 C 
HETATM   19  C18 UNL     1      -4.722   2.106  -0.073  1.00  0.00    -0.013 C 
HETATM   20  C20 UNL     1      -3.237   1.859  -0.141  1.00  0.00     0.019 C 
ENDBRANCH  10  11
ENDBRANCH   7  10
BRANCH   1  21
HETATM   21  C5  UNL     1       4.441  -0.384   0.589  1.00  0.00    -0.027 A 
HETATM   22  C4  UNL     1       4.370   0.908   0.061  1.00  0.00     0.010 A 
HETATM   23  C3  UNL     1       5.510   1.624  -0.241  1.00  0.00     0.010 A 
HETATM   24  C2  UNL     1       6.771   1.108  -0.041  1.00  0.00    -0.035 A 
HETATM   25  C24 UNL     1       6.831  -0.169   0.480  1.00  0.00     0.010 A 
HETATM   26  C23 UNL     1       5.703  -0.896   0.787  1.00  0.00     0.010 A 
BRANCH  24  27
HETATM   27  C1  UNL     1       7.986   1.910  -0.372  1.00  0.00     0.202 C 
BRANCH  27  28
HETATM   28  O1  UNL     1       7.587   3.193  -0.693  1.00  0.00    -0.396 OA
ATOM     29  H1  UNL     1       8.360   3.703  -0.904  1.00  0.00     0.209 HD
ENDBRANCH  27  28
ENDBRANCH  24  27
ENDBRANCH   1  21
TORSDOF 5
