REMARK  5 active torsions:
REMARK  status: ('A' for Active; 'I' for Inactive)
REMARK    1  A    between atoms: C1_2  and  C2_4 
REMARK    2  A    between atoms: C5_7  and  C6_8 
REMARK       I    between atoms: C6_8  and  N2_10 
REMARK    3  A    between atoms: N2_10  and  N3_12 
REMARK    4  A    between atoms: C7_14  and  C8_15 
REMARK    5  A    between atoms: C8_15  and  C9_16 
ROOT
HETATM    1  C6  UNL     1       2.112  -1.080   1.003  1.00  0.00     0.240 C 
HETATM    2  O2  UNL     1       1.949  -1.606   2.132  1.00  0.00    -0.271 OA
HETATM    3  N2  UNL     1       0.964  -0.803   0.220  1.00  0.00    -0.270 N 
ATOM      4  H2  UNL     1       1.080  -0.376  -0.699  1.00  0.00     0.190 HD
ENDROOT
BRANCH   3   5
HETATM    5  N3  UNL     1      -0.319  -1.100   0.675  1.00  0.00    -0.313 N 
HETATM    6  C7  UNL     1      -1.257  -1.449  -0.143  1.00  0.00     0.080 C 
ATOM      7  H3  UNL     1      -0.522  -1.041   1.673  1.00  0.00     0.185 HD
BRANCH   6   8
HETATM    8  C8  UNL     1      -2.626  -1.773   0.277  1.00  0.00     0.050 C 
BRANCH   8   9
HETATM    9  C9  UNL     1      -3.421  -0.523   0.642  1.00  0.00    -0.010 C 
HETATM   10  C10 UNL     1      -3.463   0.337  -0.581  1.00  0.00     0.005 C 
HETATM   11  C11 UNL     1      -4.020   1.690  -0.388  1.00  0.00     0.000 C 
HETATM   12  C12 UNL     1      -5.029   1.824   0.708  1.00  0.00     0.000 C 
HETATM   13  C13 UNL     1      -6.202   0.921   0.595  1.00  0.00     0.000 C 
HETATM   14  C14 UNL     1      -5.861  -0.513   0.310  1.00  0.00     0.000 C 
HETATM   15  C15 UNL     1      -4.733  -0.942   1.195  1.00  0.00     0.005 C 
ENDBRANCH   8   9
ENDBRANCH   6   8
ENDBRANCH   3   5
BRANCH   1  16
HETATM   16  C5  UNL     1       3.485  -0.779   0.552  1.00  0.00     0.079 C 
HETATM   17  C4  UNL     1       3.557   0.718   0.317  1.00  0.00     0.015 C 
HETATM   18  C3  UNL     1       3.951   0.943  -1.123  1.00  0.00     0.014 C 
HETATM   19  C2  UNL     1       5.347   0.359  -1.295  1.00  0.00     0.075 C 
HETATM   20  C17 UNL     1       5.220  -1.131  -1.155  1.00  0.00     0.014 C 
HETATM   21  C16 UNL     1       3.854  -1.558  -0.691  1.00  0.00     0.015 C 
BRANCH  19  22
HETATM   22  C1  UNL     1       6.203   0.920  -0.195  1.00  0.00     0.235 C 
HETATM   23  N1  UNL     1       6.390   2.316  -0.088  1.00  0.00    -0.062 NA
HETATM   24  O1  UNL     1       6.739   0.110   0.615  1.00  0.00    -0.277 OA
ENDBRANCH  19  22
ENDBRANCH   1  16
TORSDOF 5
