REMARK  14 active torsions:
REMARK  status: ('A' for Active; 'I' for Inactive)
REMARK    1  A    between atoms: N1_1  and  C1_4 
REMARK    2  A    between atoms: C2_7  and  C3_8 
REMARK       I    between atoms: C3_8  and  N3_10 
REMARK    3  A    between atoms: N3_10  and  N4_12 
REMARK    4  A    between atoms: C4_15  and  S1_16 
REMARK    5  A    between atoms: S1_16  and  N5_19 
REMARK    6  A    between atoms: N5_19  and  C5_21 
REMARK    7  A    between atoms: C5_21  and  C6_22 
REMARK    8  A    between atoms: C5_21  and  C7_25 
REMARK    9  A    between atoms: C6_22  and  O4_23 
REMARK   10  A    between atoms: C7_25  and  O5_26 
REMARK   11  A    between atoms: C7_25  and  N6_28 
REMARK   12  A    between atoms: N6_28  and  C8_30 
REMARK   13  A    between atoms: C8_30  and  C9_31 
REMARK   14  A    between atoms: C9_31  and  O6_32 
ROOT
HETATM    1  C1  UNL     1      -4.174  -1.680   0.823  1.00  0.00     0.676 A 
HETATM    2  N2  UNL     1      -4.261  -0.384   0.545  1.00  0.00    -0.185 N 
ATOM      3  H2  UNL     1      -5.122   0.105   0.790  1.00  0.00     0.184 HD
HETATM    4  C2  UNL     1      -3.250   0.336  -0.057  1.00  0.00     0.143 A 
HETATM    5  C4  UNL     1      -2.085  -0.307  -0.391  1.00  0.00     0.128 A 
HETATM    6  C10 UNL     1      -2.013  -1.659  -0.094  1.00  0.00     0.134 A 
HETATM    7  N7  UNL     1      -3.038  -2.296   0.493  1.00  0.00    -0.201 N 
ATOM      8  H7  UNL     1      -2.945  -3.291   0.695  1.00  0.00     0.183 HD
ENDROOT
BRANCH   5   9
HETATM    9  S1  UNL     1      -0.797   0.553  -1.136  1.00  0.00     0.263 S 
HETATM   10  O2  UNL     1      -1.292   1.099  -2.474  1.00  0.00    -0.200 OA
HETATM   11  O3  UNL     1      -0.393   1.736  -0.262  1.00  0.00    -0.200 OA
BRANCH   9  12
HETATM   12  N5  UNL     1       0.608  -0.328  -1.509  1.00  0.00    -0.304 N 
ATOM     13  H5  UNL     1       0.927  -0.432  -2.472  1.00  0.00     0.173 HD
BRANCH  12  14
HETATM   14  C5  UNL     1       1.327  -0.918  -0.423  1.00  0.00     0.164 C 
BRANCH  14  15
HETATM   15  C6  UNL     1       1.820  -2.271  -0.823  1.00  0.00     0.194 C 
BRANCH  15  16
HETATM   16  O4  UNL     1       2.654  -2.129  -1.932  1.00  0.00    -0.399 OA
ATOM     17  H4  UNL     1       2.967  -2.989  -2.186  1.00  0.00     0.209 HD
ENDBRANCH  15  16
ENDBRANCH  14  15
BRANCH  14  18
HETATM   18  C7  UNL     1       2.578   0.001  -0.154  1.00  0.00     0.239 C 
BRANCH  18  19
HETATM   19  O5  UNL     1       3.307   0.023  -1.294  1.00  0.00    -0.375 OA
ATOM     20  H5  UNL     1       4.061   0.577  -1.132  1.00  0.00     0.212 HD
ENDBRANCH  18  19
BRANCH  18  21
HETATM   21  N6  UNL     1       3.178  -0.442   1.041  1.00  0.00    -0.393 N 
ATOM     22  H6  UNL     1       2.671  -1.031   1.702  1.00  0.00     0.155 HD
BRANCH  21  23
HETATM   23  C8  UNL     1       4.512  -0.037   1.289  1.00  0.00     0.142 C 
BRANCH  23  24
HETATM   24  C9  UNL     1       4.626   1.438   1.547  1.00  0.00     0.183 C 
BRANCH  24  25
HETATM   25  O6  UNL     1       4.188   2.170   0.474  1.00  0.00    -0.399 OA
ATOM     26  H6  UNL     1       4.260   3.103   0.637  1.00  0.00     0.209 HD
ENDBRANCH  24  25
ENDBRANCH  23  24
ENDBRANCH  21  23
ENDBRANCH  18  21
ENDBRANCH  14  18
ENDBRANCH  12  14
ENDBRANCH   9  12
ENDBRANCH   5   9
BRANCH   4  27
HETATM   27  C3  UNL     1      -3.569   1.726  -0.270  1.00  0.00     0.288 C 
HETATM   28  O1  UNL     1      -2.832   2.540  -0.810  1.00  0.00    -0.264 OA
HETATM   29  N3  UNL     1      -4.847   2.243   0.173  1.00  0.00    -0.271 N 
ATOM     30  H3  UNL     1      -5.506   1.614   0.631  1.00  0.00     0.189 HD
BRANCH  29  31
HETATM   31  N4  UNL     1      -5.199   3.578  -0.011  1.00  0.00    -0.342 N 
ATOM     32  H42 UNL     1      -4.528   4.194  -0.471  1.00  0.00     0.176 HD
ATOM     33  H41 UNL     1      -6.099   3.942   0.301  1.00  0.00     0.176 HD
ENDBRANCH  29  31
ENDBRANCH   4  27
BRANCH   1  34
HETATM   34  N1  UNL     1      -5.158  -2.325   1.396  1.00  0.00    -0.234 N 
ATOM     35  H12 UNL     1      -6.027  -1.854   1.648  1.00  0.00     0.174 HD
ATOM     36  H11 UNL     1      -5.091  -3.320   1.609  1.00  0.00     0.174 HD
ENDBRANCH   1  34
TORSDOF 14
