REMARK  3 active torsions:
REMARK  status: ('A' for Active; 'I' for Inactive)
REMARK    1  A    between atoms: N3_7  and  C3_8 
REMARK    2  A    between atoms: N4_11  and  C6_12 
REMARK    3  A    between atoms: C6_12  and  N5_14 
ROOT
HETATM    1  C3  UNL     1       2.472  -0.246  -0.336  1.00  0.00     0.131 C 
HETATM    2  C4  UNL     1       1.939   0.084   1.061  1.00  0.00     0.049 C 
HETATM    3  C5  UNL     1       0.423   0.319   0.824  1.00  0.00     0.127 C 
HETATM    4  N4  UNL     1      -0.126  -0.942   0.453  1.00  0.00    -0.358 N 
HETATM    5  C13 UNL     1       0.773  -2.025   0.087  1.00  0.00     0.127 C 
HETATM    6  C14 UNL     1       1.905  -1.574  -0.790  1.00  0.00     0.049 C 
ENDROOT
BRANCH   1   7
HETATM    7  N3  UNL     1       3.917  -0.262  -0.373  1.00  0.00    -0.213 N 
HETATM    8  N2  UNL     1       4.673  -1.167   0.255  1.00  0.00    -0.224 N 
HETATM    9  N1  UNL     1       5.951  -0.932   0.042  1.00  0.00    -0.272 N 
ATOM     10  H2  UNL     1       4.310  -1.934   0.821  1.00  0.00     0.210 HD
HETATM   11  C2  UNL     1       6.033   0.155  -0.746  1.00  0.00     0.109 A 
ATOM     12  H1  UNL     1       6.734  -1.474   0.407  1.00  0.00     0.190 HD
HETATM   13  C1  UNL     1       7.319   0.747  -1.217  1.00  0.00     0.092 C 
HETATM   14  N6  UNL     1       4.773   0.539  -0.980  1.00  0.00    -0.270 N 
ATOM     15  H6  UNL     1       4.509   1.342  -1.550  1.00  0.00     0.190 HD
ENDBRANCH   1   7
BRANCH   4  16
HETATM   16  C6  UNL     1      -1.520  -1.180   0.410  1.00  0.00     0.172 C 
HETATM   17  S1  UNL     1      -1.921  -2.756  -0.035  1.00  0.00    -0.041 SA
BRANCH  16  18
HETATM   18  N5  UNL     1      -2.599  -0.353   0.670  1.00  0.00    -0.358 N 
HETATM   19  C7  UNL     1      -3.927  -0.991   0.524  1.00  0.00     0.125 C 
HETATM   20  C8  UNL     1      -4.698  -0.380  -0.612  1.00  0.00     0.020 C 
HETATM   21  C9  UNL     1      -3.951   0.686  -1.346  1.00  0.00     0.002 C 
HETATM   22  C10 UNL     1      -4.018   1.999  -0.595  1.00  0.00     0.002 C 
HETATM   23  C11 UNL     1      -3.835   1.773   0.876  1.00  0.00     0.020 C 
HETATM   24  C12 UNL     1      -2.487   1.029   1.040  1.00  0.00     0.125 C 
ENDBRANCH  16  18
ENDBRANCH   4  16
TORSDOF 3
