REMARK  3 active torsions:
REMARK  status: ('A' for Active; 'I' for Inactive)
REMARK    1  A    between atoms: C5_6  and  C6_7 
REMARK    2  A    between atoms: C7_8  and  C8_9 
REMARK    3  A    between atoms: C8_9  and  N2_10 
ROOT
HETATM    1  C1  UNL     1      -3.471  -3.074   0.479  1.00  0.00     0.310 C 
HETATM    2  N1  UNL     1      -2.381  -2.117   0.468  1.00  0.00     0.088 N 
HETATM    3  C2  UNL     1      -1.304  -2.560  -0.377  1.00  0.00     0.277 C 
HETATM    4  C3  UNL     1      -0.217  -1.563  -0.548  1.00  0.00     0.072 C 
HETATM    5  C4  UNL     1      -0.603  -0.182  -0.260  1.00  0.00    -0.012 A 
HETATM    6  C5  UNL     1       0.427   0.766  -0.297  1.00  0.00     0.094 A 
HETATM    7  N5  UNL     1       0.092   2.032  -0.042  1.00  0.00    -0.348 N 
ATOM      8  H5  UNL     1       0.840   2.725  -0.068  1.00  0.00     0.167 HD
HETATM    9  C11 UNL     1      -1.145   2.476   0.247  1.00  0.00     0.043 A 
HETATM   10  C12 UNL     1      -1.396   3.804   0.495  1.00  0.00     0.030 A 
HETATM   11  C13 UNL     1      -2.672   4.217   0.783  1.00  0.00     0.002 A 
HETATM   12  C14 UNL     1      -3.682   3.291   0.820  1.00  0.00     0.001 A 
HETATM   13  C15 UNL     1      -3.427   1.955   0.571  1.00  0.00     0.014 A 
HETATM   14  C16 UNL     1      -2.152   1.517   0.279  1.00  0.00    -0.001 A 
HETATM   15  C17 UNL     1      -1.894   0.181   0.027  1.00  0.00    -0.008 A 
HETATM   16  C18 UNL     1      -2.941  -0.846   0.059  1.00  0.00     0.312 C 
ENDROOT
BRANCH   6  17
HETATM   17  C6  UNL     1       1.787   0.377  -0.600  1.00  0.00    -0.046 C 
HETATM   18  C7  UNL     1       2.916   0.034  -0.860  1.00  0.00    -0.078 C 
BRANCH  18  19
HETATM   19  C8  UNL     1       4.286  -0.408  -1.172  1.00  0.00     0.244 C 
BRANCH  19  20
HETATM   20  N2  UNL     1       5.157  -0.288  -0.045  1.00  0.00    -0.276 N 
HETATM   21  C9  UNL     1       5.404  -1.209   0.899  1.00  0.00     0.202 A 
HETATM   22  N3  UNL     1       6.282  -0.731   1.801  1.00  0.00    -0.346 N 
HETATM   23  C10 UNL     1       6.569   0.519   1.381  1.00  0.00     0.198 A 
ATOM     24  H3  UNL     1       6.650  -1.210   2.623  1.00  0.00     0.167 HD
HETATM   25  N4  UNL     1       5.880   0.772   0.262  1.00  0.00    -0.292 N 
ATOM     26  H4  UNL     1       5.909   1.643  -0.268  1.00  0.00     0.188 HD
ENDBRANCH  19  20
ENDBRANCH  18  19
ENDBRANCH   6  17
TORSDOF 3
