REMARK  7 active torsions:
REMARK  status: ('A' for Active; 'I' for Inactive)
REMARK    1  A    between atoms: C2_2  and  C3_3 
REMARK    2  A    between atoms: N1_7  and  N2_9 
REMARK    3  A    between atoms: N2_9  and  C7_10 
REMARK    4  A    between atoms: C9_15  and  N5_16 
REMARK    5  A    between atoms: C10_19  and  N6_20 
REMARK    6  A    between atoms: C11_27  and  N9_28 
REMARK    7  A    between atoms: N10_31  and  O3_32 
ROOT
HETATM    1  C3  UNL     1      -3.379  -0.329   0.139  1.00  0.00     0.090 A 
HETATM    2  C4  UNL     1      -2.033  -0.275   0.039  1.00  0.00     0.015 A 
HETATM    3  C5  UNL     1      -1.194  -1.513   0.050  1.00  0.00     0.055 C 
HETATM    4  C6  UNL     1      -1.410   0.957  -0.142  1.00  0.00     0.155 A 
HETATM    5  N1  UNL     1      -0.192   1.135  -0.201  1.00  0.00    -0.214 N 
ATOM      6  H1  UNL     1      -0.085   2.140  -0.342  1.00  0.00     0.203 HD
HETATM    7  N8  UNL     1      -2.215   2.069  -0.215  1.00  0.00    -0.172 N 
ATOM      8  H8  UNL     1      -1.769   2.977  -0.349  1.00  0.00     0.186 HD
HETATM    9  C11 UNL     1      -3.542   2.030  -0.121  1.00  0.00     0.709 A 
HETATM   10  N10 UNL     1      -4.103   0.821   0.056  1.00  0.00    -0.052 N 
ENDROOT
BRANCH   5  11
HETATM   11  N2  UNL     1       0.958   0.700  -0.174  1.00  0.00    -0.286 NA
BRANCH  11  12
HETATM   12  C7  UNL     1       2.095   0.269  -0.149  1.00  0.00     0.284 A 
HETATM   13  N3  UNL     1       3.098   0.955   0.500  1.00  0.00    -0.301 N 
HETATM   14  C8  UNL     1       4.354   0.530   0.573  1.00  0.00     0.157 A 
ATOM     15  H3  UNL     1       2.863   1.840   0.950  1.00  0.00     0.171 HD
HETATM   16  N4  UNL     1       5.398   1.234   1.246  1.00  0.00    -0.080 NA
HETATM   17  C9  UNL     1       4.695  -0.665  -0.027  1.00  0.00     0.187 A 
HETATM   18  C10 UNL     1       3.730  -1.384  -0.687  1.00  0.00     0.139 A 
HETATM   19  N7  UNL     1       2.502  -0.894  -0.716  1.00  0.00    -0.299 N 
ATOM     20  H7  UNL     1       1.796  -1.441  -1.210  1.00  0.00     0.171 HD
BRANCH  17  21
HETATM   21  N5  UNL     1       6.011  -1.184   0.016  1.00  0.00    -0.108 N 
HETATM   22  O1  UNL     1       6.446  -1.649   1.070  1.00  0.00    -0.532 OA
HETATM   23  O2  UNL     1       6.782  -1.163  -1.105  1.00  0.00    -0.532 OA
ENDBRANCH  17  21
BRANCH  18  24
HETATM   24  N6  UNL     1       4.047  -2.505  -1.258  1.00  0.00    -0.383 N 
ATOM     25  H62 UNL     1       4.994  -2.883  -1.236  1.00  0.00     0.157 HD
ATOM     26  H61 UNL     1       3.330  -3.039  -1.748  1.00  0.00     0.157 HD
ENDBRANCH  18  24
ENDBRANCH  11  12
ENDBRANCH   5  11
BRANCH   1  27
HETATM   27  C2  UNL     1      -4.152  -1.532   0.403  1.00  0.00     0.023 C 
HETATM   28  C1  UNL     1      -3.820  -2.531   1.177  1.00  0.00     0.013 C 
ENDBRANCH   1  27
BRANCH   9  29
HETATM   29  N9  UNL     1      -4.375   3.177  -0.188  1.00  0.00    -0.209 N 
HETATM   30  C12 UNL     1      -5.265   3.425  -1.043  1.00  0.00     0.137 C 
ATOM     31  H9  UNL     1      -4.237   3.880   0.538  1.00  0.00     0.182 HD
ENDBRANCH   9  29
BRANCH  10  32
HETATM   32  O3  UNL     1      -5.484   0.739   0.154  1.00  0.00    -0.269 OA
ATOM     33  H3  UNL     1      -5.989   1.541   0.096  1.00  0.00     0.245 HD
ENDBRANCH  10  32
TORSDOF 7
