REMARK  9 active torsions:
REMARK  status: ('A' for Active; 'I' for Inactive)
REMARK    1  A    between atoms: C2_2  and  C3_3 
REMARK    2  A    between atoms: C3_3  and  N1_4 
REMARK    3  A    between atoms: N1_4  and  C4_6 
REMARK    4  A    between atoms: C8_14  and  C9_15 
REMARK    5  A    between atoms: C10_16  and  C11_17 
REMARK    6  A    between atoms: C11_17  and  C12_18 
REMARK    7  A    between atoms: C12_18  and  O1_19 
REMARK    8  A    between atoms: N4_22  and  C14_23 
REMARK    9  A    between atoms: C17_31  and  N8_32 
ROOT
HETATM    1  C14 UNL     1       3.488   0.747  -0.034  1.00  0.00     0.707 A 
HETATM    2  N5  UNL     1       4.029   0.831  -1.257  1.00  0.00    -0.165 N 
ATOM      3  H5  UNL     1       3.429   0.761  -2.079  1.00  0.00     0.186 HD
HETATM    4  C15 UNL     1       5.354   1.006  -1.416  1.00  0.00     0.217 A 
HETATM    5  C16 UNL     1       5.989   1.104  -2.699  1.00  0.00     0.138 C 
HETATM    6  N6  UNL     1       6.503   1.164  -3.737  1.00  0.00    -0.188 NA
HETATM    7  N7  UNL     1       6.135   1.097  -0.325  1.00  0.00    -0.166 N 
ATOM      8  H7  UNL     1       7.140   1.231  -0.433  1.00  0.00     0.186 HD
HETATM    9  C17 UNL     1       5.605   1.013   0.904  1.00  0.00     0.692 A 
HETATM   10  N9  UNL     1       4.293   0.840   1.027  1.00  0.00    -0.022 N 
ATOM     11  H9  UNL     1       3.888   0.776   1.961  1.00  0.00     0.203 HD
ENDROOT
BRANCH   1  12
HETATM   12  N4  UNL     1       2.059   0.558   0.132  1.00  0.00    -0.140 N 
HETATM   13  C6  UNL     1       1.455  -0.581   0.499  1.00  0.00     0.144 A 
HETATM   14  N3  UNL     1       1.935  -1.807   0.803  1.00  0.00    -0.337 N 
HETATM   15  C7  UNL     1       0.087  -0.432   0.565  1.00  0.00     0.073 A 
HETATM   16  C5  UNL     1       1.129  -2.818   1.150  1.00  0.00     0.183 A 
ATOM     17  H3  UNL     1       2.942  -1.967   0.767  1.00  0.00     0.168 HD
HETATM   18  N2  UNL     1      -0.205  -2.657   1.211  1.00  0.00    -0.338 N 
HETATM   19  C4  UNL     1      -0.739  -1.470   0.921  1.00  0.00     0.117 A 
ATOM     20  H2  UNL     1      -0.804  -3.438   1.477  1.00  0.00     0.168 HD
HETATM   21  C8  UNL     1      -0.151   0.903   0.211  1.00  0.00     0.052 A 
HETATM   22  C13 UNL     1       1.083   1.463  -0.044  1.00  0.00     0.138 A 
BRANCH  19  23
HETATM   23  N1  UNL     1      -2.007  -1.318   0.980  1.00  0.00    -0.372 N 
ATOM     24  H1  UNL     1      -2.362  -0.390   0.749  1.00  0.00     0.161 HD
BRANCH  23  25
HETATM   25  C3  UNL     1      -2.981  -2.295   1.331  1.00  0.00     0.147 C 
BRANCH  25  26
HETATM   26  C2  UNL     1      -3.270  -3.274   0.247  1.00  0.00    -0.018 C 
HETATM   27  C1  UNL     1      -4.501  -3.360  -0.221  1.00  0.00     0.008 C 
ENDBRANCH  25  26
ENDBRANCH  23  25
ENDBRANCH  19  23
BRANCH  21  28
HETATM   28  C9  UNL     1      -1.459   1.494   0.149  1.00  0.00    -0.064 C 
HETATM   29  C10 UNL     1      -2.562   1.981   0.097  1.00  0.00    -0.099 C 
BRANCH  29  30
HETATM   30  C11 UNL     1      -3.912   2.555   0.032  1.00  0.00     0.120 C 
BRANCH  30  31
HETATM   31  C12 UNL     1      -4.065   3.181  -1.324  1.00  0.00     0.176 C 
BRANCH  31  32
HETATM   32  O1  UNL     1      -3.902   2.222  -2.313  1.00  0.00    -0.400 OA
ATOM     33  H1  UNL     1      -3.999   2.618  -3.171  1.00  0.00     0.209 HD
ENDBRANCH  31  32
ENDBRANCH  30  31
ENDBRANCH  29  30
ENDBRANCH  21  28
ENDBRANCH   1  12
BRANCH   9  34
HETATM   34  N8  UNL     1       6.395   1.105   1.952  1.00  0.00    -0.234 N 
ATOM     35  H82 UNL     1       7.402   1.238   1.858  1.00  0.00     0.174 HD
ATOM     36  H81 UNL     1       5.992   1.041   2.887  1.00  0.00     0.174 HD
ENDBRANCH   9  34
TORSDOF 9
