REMARK  8 active torsions:
REMARK  status: ('A' for Active; 'I' for Inactive)
REMARK    1  A    between atoms: S1_2  and  C2_3 
REMARK    2  A    between atoms: C2_3  and  N1_5 
REMARK    3  A    between atoms: N1_5  and  C4_7 
REMARK    4  A    between atoms: C5_10  and  C6_11 
REMARK    5  A    between atoms: C9_19  and  N6_20 
REMARK    6  A    between atoms: N8_26  and  C11_27 
REMARK    7  A    between atoms: C11_27  and  C13_29 
REMARK    8  A    between atoms: C13_29  and  N9_30 
ROOT
HETATM    1  C4  UNL     1       0.775   0.084   0.396  1.00  0.00     0.683 A 
HETATM    2  N2  UNL     1       0.340   1.335   0.459  1.00  0.00    -0.185 N 
ATOM      3  H2  UNL     1       1.036   2.068   0.598  1.00  0.00     0.184 HD
HETATM    4  C5  UNL     1      -0.967   1.720   0.352  1.00  0.00     0.131 A 
HETATM    5  C7  UNL     1      -1.888   0.730   0.164  1.00  0.00     0.083 A 
HETATM    6  C8  UNL     1      -3.229   0.949   0.015  1.00  0.00     0.148 A 
HETATM    7  N4  UNL     1      -3.816   2.232   0.017  1.00  0.00    -0.081 NA
HETATM    8  N5  UNL     1      -4.046  -0.117  -0.184  1.00  0.00    -0.178 N 
ATOM      9  H5  UNL     1      -5.045   0.056  -0.293  1.00  0.00     0.185 HD
HETATM   10  C9  UNL     1      -3.616  -1.375  -0.245  1.00  0.00     0.678 A 
HETATM   11  N7  UNL     1      -2.303  -1.583  -0.102  1.00  0.00    -0.175 N 
ATOM     12  H7  UNL     1      -1.955  -2.541  -0.147  1.00  0.00     0.186 HD
HETATM   13  C10 UNL     1      -1.404  -0.572   0.102  1.00  0.00     0.155 A 
HETATM   14  N8  UNL     1      -0.105  -0.902   0.215  1.00  0.00    -0.161 N 
ENDROOT
BRANCH  14  15
HETATM   15  C11 UNL     1       0.281  -2.298   0.135  1.00  0.00     0.131 C 
HETATM   16  C12 UNL     1       1.231  -2.704   1.237  1.00  0.00     0.035 C 
BRANCH  15  17
HETATM   17  C13 UNL     1       0.890  -2.659  -1.191  1.00  0.00     0.255 C 
BRANCH  17  18
HETATM   18  N9  UNL     1       1.228  -4.070  -1.141  1.00  0.00    -0.077 N 
ATOM     19  H93 UNL     1       1.825  -4.309  -0.349  1.00  0.00     0.274 HD
ATOM     20  H92 UNL     1       0.435  -4.661  -0.892  1.00  0.00     0.274 HD
ATOM     21  H91 UNL     1       1.641  -4.315  -2.041  1.00  0.00     0.274 HD
ENDBRANCH  17  18
ENDBRANCH  15  17
ENDBRANCH  14  15
BRANCH   1  22
HETATM   22  N1  UNL     1       2.028  -0.194   0.506  1.00  0.00    -0.213 N 
ATOM     23  H1  UNL     1       2.296  -1.176   0.448  1.00  0.00     0.179 HD
BRANCH  22  24
HETATM   24  C2  UNL     1       3.071   0.758   0.702  1.00  0.00     0.157 C 
HETATM   25  C3  UNL     1       3.296   1.130   2.148  1.00  0.00     0.044 C 
BRANCH  24  26
HETATM   26  S1  UNL     1       2.863   2.258  -0.299  1.00  0.00    -0.148 SA
HETATM   27  C1  UNL     1       2.593   1.845  -2.022  1.00  0.00     0.092 C 
ENDBRANCH  24  26
ENDBRANCH  22  24
ENDBRANCH   1  22
BRANCH   4  28
HETATM   28  C6  UNL     1      -1.302   3.115   0.436  1.00  0.00     0.283 C 
HETATM   29  N3  UNL     1      -0.940   4.029  -0.621  1.00  0.00    -0.056 NA
HETATM   30  O1  UNL     1      -1.910   3.578   1.422  1.00  0.00    -0.269 OA
ENDBRANCH   4  28
BRANCH  10  31
HETATM   31  N6  UNL     1      -4.428  -2.359  -0.435  1.00  0.00    -0.234 N 
ATOM     32  H62 UNL     1      -5.430  -2.200  -0.544  1.00  0.00     0.174 HD
ATOM     33  H61 UNL     1      -4.098  -3.323  -0.482  1.00  0.00     0.174 HD
ENDBRANCH  10  31
TORSDOF 8
