REMARK  9 active torsions:
REMARK  status: ('A' for Active; 'I' for Inactive)
REMARK    1  A    between atoms: C2_2  and  N1_3 
REMARK    2  A    between atoms: N1_3  and  C3_5 
REMARK    3  A    between atoms: C5_11  and  N4_12 
REMARK    4  A    between atoms: N4_12  and  N5_14 
REMARK    5  A    between atoms: C6_16  and  C8_18 
REMARK    6  A    between atoms: C12_25  and  N8_26 
REMARK    7  A    between atoms: N8_26  and  C13_27 
REMARK    8  A    between atoms: C13_27  and  C14_28 
REMARK    9  A    between atoms: C14_28  and  O1_29 
ROOT
HETATM    1  C3  UNL     1      -2.873   0.986   0.739  1.00  0.00     0.682 A 
HETATM    2  N2  UNL     1      -1.692   1.434   1.252  1.00  0.00    -0.175 N 
ATOM      3  H2  UNL     1      -1.591   2.250   1.855  1.00  0.00     0.186 HD
HETATM    4  C4  UNL     1      -0.664   0.636   0.844  1.00  0.00     0.155 A 
HETATM    5  N3  UNL     1       0.594   0.904   1.257  1.00  0.00    -0.173 N 
ATOM      6  H3  UNL     1       0.772   1.707   1.860  1.00  0.00     0.186 HD
HETATM    7  C5  UNL     1       1.624   0.104   0.869  1.00  0.00     0.699 A 
HETATM    8  N6  UNL     1       1.358  -0.941   0.075  1.00  0.00    -0.176 N 
ATOM      9  H6  UNL     1       2.140  -1.531  -0.208  1.00  0.00     0.185 HD
HETATM   10  C10 UNL     1       0.188  -1.254  -0.356  1.00  0.00     0.150 A 
HETATM   11  N7  UNL     1      -0.136  -2.343  -1.195  1.00  0.00    -0.081 NA
HETATM   12  C11 UNL     1      -1.006  -0.430   0.022  1.00  0.00     0.109 A 
HETATM   13  C12 UNL     1      -1.990  -1.051  -0.585  1.00  0.00     0.209 A 
HETATM   14  N9  UNL     1      -3.120   0.025   0.007  1.00  0.00    -0.163 N 
ATOM     15  H9  UNL     1      -4.094  -0.124  -0.258  1.00  0.00     0.187 HD
ENDROOT
BRANCH   7  16
HETATM   16  N4  UNL     1       2.788   0.378   1.278  1.00  0.00    -0.132 N 
ATOM     17  H4  UNL     1       2.826   1.202   1.877  1.00  0.00     0.205 HD
BRANCH  16  18
HETATM   18  N5  UNL     1       3.987  -0.200   1.081  1.00  0.00    -0.295 N 
HETATM   19  C6  UNL     1       4.833   0.163   0.206  1.00  0.00    -0.000 C 
HETATM   20  C7  UNL     1       6.117  -0.592   0.125  1.00  0.00     0.065 C 
ATOM     21  H5  UNL     1       4.235  -0.988   1.679  1.00  0.00     0.186 HD
BRANCH  19  22
HETATM   22  C8  UNL     1       4.526   1.295  -0.687  1.00  0.00     0.049 C 
HETATM   23  C9  UNL     1       5.522   2.422  -0.534  1.00  0.00     0.011 C 
ENDBRANCH  19  22
ENDBRANCH  16  18
ENDBRANCH   7  16
BRANCH   1  24
HETATM   24  N1  UNL     1      -3.892   1.777   1.144  1.00  0.00    -0.226 N 
ATOM     25  H1  UNL     1      -4.850   1.585   0.851  1.00  0.00     0.177 HD
BRANCH  24  26
HETATM   26  C2  UNL     1      -3.594   2.888   1.992  1.00  0.00     0.133 C 
HETATM   27  C1  UNL     1      -3.305   2.495   3.416  1.00  0.00     0.027 C 
ENDBRANCH  24  26
ENDBRANCH   1  24
BRANCH  13  28
HETATM   28  N8  UNL     1      -2.823  -1.576  -1.097  1.00  0.00    -0.400 NA
BRANCH  28  29
HETATM   29  C13 UNL     1      -3.832  -2.195  -1.706  1.00  0.00     0.183 C 
BRANCH  29  30
HETATM   30  C14 UNL     1      -3.522  -3.217  -2.804  1.00  0.00     0.223 C 
BRANCH  30  31
HETATM   31  O1  UNL     1      -4.752  -3.725  -3.282  1.00  0.00    -0.395 OA
ATOM     32  H1  UNL     1      -4.560  -4.359  -3.963  1.00  0.00     0.209 HD
ENDBRANCH  30  31
ENDBRANCH  29  30
ENDBRANCH  28  29
ENDBRANCH  13  28
TORSDOF 9
