REMARK  6 active torsions:
REMARK  status: ('A' for Active; 'I' for Inactive)
REMARK    1  A    between atoms: C2_2  and  C3_3 
REMARK    2  A    between atoms: C3_3  and  N1_5 
REMARK       I    between atoms: C5_7  and  N3_9 
REMARK    3  A    between atoms: N4_15  and  C11_16 
REMARK    4  A    between atoms: C11_16  and  C12_17 
REMARK    5  A    between atoms: C12_17  and  N5_18 
REMARK    6  A    between atoms: N5_18  and  S1_20 
ROOT
HETATM    1  N1  UNL     1       1.814   1.245   0.462  1.00  0.00    -0.360 N 
ATOM      2  H1  UNL     1       0.946   1.475   0.945  1.00  0.00     0.162 HD
HETATM    3  C5  UNL     1       1.892   0.037   0.147  1.00  0.00     0.194 C 
HETATM    4  N2  UNL     1       3.041  -0.452  -0.536  1.00  0.00    -0.063 NA
HETATM    5  N3  UNL     1       0.843  -0.862   0.463  1.00  0.00    -0.273 N 
HETATM    6  C6  UNL     1       0.951  -2.229   0.095  1.00  0.00     0.147 C 
HETATM    7  C7  UNL     1      -0.303  -3.010   0.107  1.00  0.00    -0.015 C 
HETATM    8  C8  UNL     1      -0.830  -3.111  -1.325  1.00  0.00     0.018 C 
HETATM    9  C9  UNL     1       0.045  -4.441   0.519  1.00  0.00     0.018 C 
HETATM   10  C10 UNL     1      -1.394  -2.542   1.001  1.00  0.00     0.137 C 
HETATM   11  N4  UNL     1      -1.480  -1.133   1.189  1.00  0.00    -0.331 N 
HETATM   12  C14 UNL     1      -0.288  -0.354   1.142  1.00  0.00     0.327 C 
HETATM   13  O3  UNL     1      -0.292   0.760   1.710  1.00  0.00    -0.247 OA
ENDROOT
BRANCH   1  14
HETATM   14  C3  UNL     1       2.660   2.353   0.296  1.00  0.00     0.079 C 
HETATM   15  C4  UNL     1       3.183   2.935   1.595  1.00  0.00     0.032 C 
BRANCH  14  16
HETATM   16  C2  UNL     1       3.786   2.189  -0.697  1.00  0.00     0.020 C 
HETATM   17  C1  UNL     1       4.418   3.542  -0.988  1.00  0.00     0.007 C 
ENDBRANCH  14  16
ENDBRANCH   1  14
BRANCH  11  18
HETATM   18  C11 UNL     1      -2.777  -0.537   1.420  1.00  0.00     0.148 C 
BRANCH  18  19
HETATM   19  C12 UNL     1      -3.475  -0.129   0.145  1.00  0.00     0.151 C 
BRANCH  19  20
HETATM   20  N5  UNL     1      -2.643   0.839  -0.529  1.00  0.00    -0.318 N 
ATOM     21  H5  UNL     1      -1.745   1.167  -0.174  1.00  0.00     0.172 HD
BRANCH  20  22
HETATM   22  S1  UNL     1      -3.356   1.374  -2.012  1.00  0.00     0.222 S 
HETATM   23  C13 UNL     1      -4.919   2.167  -1.621  1.00  0.00     0.185 C 
HETATM   24  O1  UNL     1      -2.455   2.438  -2.573  1.00  0.00    -0.206 OA
HETATM   25  O2  UNL     1      -3.582   0.250  -2.949  1.00  0.00    -0.206 OA
ENDBRANCH  20  22
ENDBRANCH  19  20
ENDBRANCH  18  19
ENDBRANCH  11  18
TORSDOF 6
