REMARK  1 active torsions:
REMARK  status: ('A' for Active; 'I' for Inactive)
REMARK    1  A    between atoms: C2_2  and  C3_3 
ROOT
HETATM    1  C3  UNL     1       2.123   0.237  -0.497  1.00  0.00     0.012 A 
HETATM    2  C4  UNL     1       0.948   1.116  -0.935  1.00  0.00     0.014 A 
HETATM    3  C5  UNL     1       0.136   0.656   0.224  1.00  0.00     0.002 A 
HETATM    4  C6  UNL     1       1.219  -0.293   0.599  1.00  0.00     0.002 A 
HETATM    5  C7  UNL     1       0.837  -1.734   0.481  1.00  0.00    -0.009 C 
HETATM    6  C8  UNL     1      -0.444  -1.919   1.308  1.00  0.00     0.010 C 
HETATM    7  C9  UNL     1      -1.174  -1.453   0.040  1.00  0.00    -0.003 C 
HETATM    8  C10 UNL     1      -0.006  -2.026  -0.732  1.00  0.00     0.010 C 
HETATM    9  C11 UNL     1      -1.191   0.066  -0.014  1.00  0.00    -0.007 C 
HETATM   10  C12 UNL     1      -2.174   0.466   1.098  1.00  0.00     0.039 C 
HETATM   11  C13 UNL     1      -2.856   1.658   0.452  1.00  0.00     0.233 C 
HETATM   12  N1  UNL     1      -3.148   1.109  -0.870  1.00  0.00    -0.074 N 
ATOM     13  H11 UNL     1      -3.520   1.784  -1.538  1.00  0.00     0.277 HD
ATOM     14  H12 UNL     1      -3.950   0.480  -0.901  1.00  0.00     0.277 HD
HETATM   15  C14 UNL     1      -1.883   0.501  -1.261  1.00  0.00     0.242 C 
ENDROOT
BRANCH   1  16
HETATM   16  C2  UNL     1       3.289   1.037   0.018  1.00  0.00    -0.032 C 
HETATM   17  C1  UNL     1       4.539   0.677  -0.224  1.00  0.00     0.007 C 
ENDBRANCH   1  16
TORSDOF 1
