REMARK  1 active torsions:
REMARK  status: ('A' for Active; 'I' for Inactive)
REMARK       I    between atoms: C1_4  and  N3_6 
REMARK    1  A    between atoms: N3_6  and  C2_8 
ROOT
HETATM    1  N1  UNL     1       2.580  -0.990   0.408  1.00  0.00    -0.374 N 
ATOM      2  H11 UNL     1       2.482  -1.996   0.273  1.00  0.00     0.158 HD
ATOM      3  H12 UNL     1       3.463  -0.550   0.666  1.00  0.00     0.158 HD
HETATM    4  C1  UNL     1       1.508  -0.300   0.231  1.00  0.00     0.183 C 
HETATM    5  N2  UNL     1       1.646   1.122   0.422  1.00  0.00    -0.064 NA
HETATM    6  N3  UNL     1       0.297  -0.903  -0.123  1.00  0.00    -0.343 N 
ATOM      7  H3  UNL     1       0.189  -1.900   0.065  1.00  0.00     0.164 HD
ENDROOT
BRANCH   6   8
HETATM    8  C2  UNL     1      -0.803  -0.214  -0.732  1.00  0.00     0.231 C 
HETATM    9  C3  UNL     1      -1.395   0.924   0.046  1.00  0.00     0.240 C 
HETATM   10  O1  UNL     1      -2.647   0.446  -0.347  1.00  0.00    -0.281 OA
HETATM   11  N4  UNL     1      -2.109  -0.799  -0.523  1.00  0.00    -0.073 NA
ENDBRANCH   6   8
TORSDOF 1
