REMARK  4 active torsions:
REMARK  status: ('A' for Active; 'I' for Inactive)
REMARK    1  A    between atoms: N1_1  and  N2_4 
REMARK       I    between atoms: N2_4  and  C1_6 
REMARK    2  A    between atoms: C1_6  and  C2_8 
REMARK    3  A    between atoms: C2_8  and  N3_9 
REMARK    4  A    between atoms: C2_8  and  C3_13 
ROOT
HETATM    1  C2  UNL     1       0.080   0.532  -0.416  1.00  0.00     0.280 C 
ENDROOT
BRANCH   1   2
HETATM    2  C1  UNL     1      -1.214   0.426   0.247  1.00  0.00     0.266 C 
HETATM    3  N2  UNL     1      -2.064  -0.705   0.185  1.00  0.00    -0.275 N 
ATOM      4  H2  UNL     1      -1.746  -1.503  -0.365  1.00  0.00     0.189 HD
HETATM    5  O1  UNL     1      -1.628   1.415   0.941  1.00  0.00    -0.269 OA
BRANCH   3   6
HETATM    6  N1  UNL     1      -3.292  -0.813   0.812  1.00  0.00    -0.343 N 
ATOM      7  H12 UNL     1      -3.594  -0.006   1.358  1.00  0.00     0.176 HD
ATOM      8  H11 UNL     1      -3.904  -1.628   0.767  1.00  0.00     0.176 HD
ENDBRANCH   3   6
ENDBRANCH   1   2
BRANCH   1   9
HETATM    9  N3  UNL     1       0.670   1.823  -0.135  1.00  0.00    -0.066 N 
ATOM     10  H33 UNL     1       0.047   2.592  -0.384  1.00  0.00     0.275 HD
ATOM     11  H32 UNL     1       0.736   2.005   0.866  1.00  0.00     0.275 HD
ATOM     12  H31 UNL     1       1.575   1.897  -0.599  1.00  0.00     0.275 HD
ENDBRANCH   1   9
BRANCH   1  13
HETATM   13  C3  UNL     1       0.957  -0.608   0.052  1.00  0.00     0.025 A 
HETATM   14  C4  UNL     1       2.330  -0.779  -0.436  1.00  0.00     0.007 A 
HETATM   15  C5  UNL     1       2.097  -0.306   0.976  1.00  0.00     0.007 A 
ENDBRANCH   1  13
TORSDOF 4
