REMARK  3 active torsions:
REMARK  status: ('A' for Active; 'I' for Inactive)
REMARK    1  A    between atoms: C2_3  and  N2_4 
REMARK    2  A    between atoms: C2_3  and  C4_8 
REMARK    3  A    between atoms: N2_4  and  C3_6 
ROOT
HETATM    1  N1  UNL     1       1.239  -3.311  -0.970  1.00  0.00    -0.195 NA
HETATM    2  C1  UNL     1       1.143  -2.150  -0.983  1.00  0.00     0.085 C 
HETATM    3  C2  UNL     1       1.009  -0.686  -0.987  1.00  0.00     0.195 C 
ENDROOT
BRANCH   3   4
HETATM    4  N2  UNL     1       1.954  -0.103  -0.091  1.00  0.00    -0.351 N 
ATOM      5  H2  UNL     1       1.884  -0.310   0.905  1.00  0.00     0.163 HD
BRANCH   4   6
HETATM    6  C3  UNL     1       2.991   0.758  -0.546  1.00  0.00     0.349 C 
HETATM    7  O1  UNL     1       3.092   1.025  -1.775  1.00  0.00    -0.284 OA
ENDBRANCH   4   6
ENDBRANCH   3   4
BRANCH   3   8
HETATM    8  C4  UNL     1      -0.422  -0.369  -0.673  1.00  0.00     0.022 C 
HETATM    9  C5  UNL     1      -0.882  -0.876   0.646  1.00  0.00     0.007 C 
HETATM   10  C6  UNL     1      -1.753   0.202   1.273  1.00  0.00     0.000 C 
HETATM   11  C7  UNL     1      -2.080   1.086   0.087  1.00  0.00     0.000 C 
HETATM   12  C8  UNL     1      -0.714   1.104  -0.616  1.00  0.00     0.007 C 
ENDBRANCH   3   8
TORSDOF 3
