REMARK  3 active torsions:
REMARK  status: ('A' for Active; 'I' for Inactive)
REMARK    1  A    between atoms: C2_2  and  N1_4 
REMARK    2  A    between atoms: N1_4  and  C4_6 
REMARK    3  A    between atoms: C7_9  and  N2_10 
ROOT
HETATM    1  C4  UNL     1       0.260  -0.169   0.386  1.00  0.00     0.079 C 
HETATM    2  C5  UNL     1       0.546   1.097  -0.352  1.00  0.00     0.027 C 
HETATM    3  C6  UNL     1       2.079   1.213  -0.336  1.00  0.00     0.035 C 
HETATM    4  C7  UNL     1       2.589  -0.098   0.141  1.00  0.00     0.185 C 
HETATM    5  C8  UNL     1       1.433  -1.031  -0.119  1.00  0.00     0.057 C 
ENDROOT
BRANCH   1   6
HETATM    6  N1  UNL     1      -0.967  -0.794   0.252  1.00  0.00    -0.414 N 
ATOM      7  H1  UNL     1      -0.989  -1.729  -0.155  1.00  0.00     0.153 HD
BRANCH   6   8
HETATM    8  C2  UNL     1      -2.171  -0.220   0.640  1.00  0.00     0.068 C 
HETATM    9  C1  UNL     1      -2.463   1.025  -0.171  1.00  0.00     0.031 C 
HETATM   10  C3  UNL     1      -3.298  -1.212   0.299  1.00  0.00     0.031 C 
ENDBRANCH   6   8
ENDBRANCH   1   6
BRANCH   4  11
HETATM   11  N2  UNL     1       3.801  -0.536  -0.510  1.00  0.00    -0.075 N 
ATOM     12  H23 UNL     1       3.677  -0.549  -1.522  1.00  0.00     0.274 HD
ATOM     13  H22 UNL     1       4.525   0.178  -0.432  1.00  0.00     0.274 HD
ATOM     14  H21 UNL     1       4.151  -1.436  -0.182  1.00  0.00     0.274 HD
ENDBRANCH   4  11
TORSDOF 3
