REMARK  3 active torsions:
REMARK  status: ('A' for Active; 'I' for Inactive)
REMARK    1  A    between atoms: N1_1  and  C1_5 
REMARK    2  A    between atoms: C1_5  and  C2_6 
REMARK    3  A    between atoms: C1_5  and  C7_11 
ROOT
HETATM    1  C1  UNL     1       0.459   0.240  -0.833  1.00  0.00     0.218 C 
ENDROOT
BRANCH   1   2
HETATM    2  N1  UNL     1       0.032  -0.581  -1.950  1.00  0.00    -0.073 N 
ATOM      3  H13 UNL     1      -0.373  -1.463  -1.635  1.00  0.00     0.274 HD
ATOM      4  H12 UNL     1      -0.789  -0.190  -2.412  1.00  0.00     0.274 HD
ATOM      5  H11 UNL     1       0.797  -0.732  -2.607  1.00  0.00     0.274 HD
ENDBRANCH   1   2
BRANCH   1   6
HETATM    6  C2  UNL     1      -0.678   0.464   0.143  1.00  0.00     0.018 C 
HETATM    7  C3  UNL     1      -1.796   1.163  -0.604  1.00  0.00     0.007 C 
HETATM    8  C4  UNL     1      -2.997   0.815   0.260  1.00  0.00     0.000 C 
HETATM    9  C5  UNL     1      -2.803  -0.643   0.508  1.00  0.00     0.000 C 
HETATM   10  C6  UNL     1      -1.301  -0.789   0.627  1.00  0.00     0.007 C 
ENDBRANCH   1   6
BRANCH   1  11
HETATM   11  C7  UNL     1       1.628  -0.455  -0.190  1.00  0.00     0.218 C 
HETATM   12  C8  UNL     1       2.218   0.255   1.007  1.00  0.00     0.062 C 
HETATM   13  C9  UNL     1       3.516  -0.324   0.461  1.00  0.00     0.235 C 
HETATM   14  N2  UNL     1       2.899  -0.263  -0.858  1.00  0.00    -0.069 N 
ATOM     15  H22 UNL     1       3.200  -0.880  -1.613  1.00  0.00     0.277 HD
ATOM     16  H21 UNL     1       3.056   0.530  -1.480  1.00  0.00     0.277 HD
ENDBRANCH   1  11
TORSDOF 3
