REMARK  1 active torsions:
REMARK  status: ('A' for Active; 'I' for Inactive)
REMARK    1  A    between atoms: C4_4  and  C5_5 
ROOT
HETATM    1  C1  UNL     1      -2.108  -0.757   0.665  1.00  0.00     0.027 C 
HETATM    2  C2  UNL     1      -2.070  -0.282  -0.773  1.00  0.00     0.004 C 
HETATM    3  C3  UNL     1      -0.661  -0.116  -1.246  1.00  0.00     0.041 C 
HETATM    4  C4  UNL     1       0.095   0.877  -0.399  1.00  0.00     0.255 C 
HETATM    5  N5  UNL     1      -0.388   0.922   0.961  1.00  0.00    -0.064 N 
ATOM      6  H51 UNL     1      -1.099   1.645   1.071  1.00  0.00     0.278 HD
ATOM      7  H52 UNL     1       0.326   1.293   1.589  1.00  0.00     0.278 HD
HETATM    8  C6  UNL     1      -0.870  -0.343   1.426  1.00  0.00     0.233 C 
ENDROOT
BRANCH   4   9
HETATM    9  C5  UNL     1       1.539   0.486  -0.375  1.00  0.00     0.141 A 
HETATM   10  N1  UNL     1       2.149  -0.423  -1.172  1.00  0.00    -0.269 N 
HETATM   11  N2  UNL     1       3.430  -0.477  -0.833  1.00  0.00    -0.005 NA
ATOM     12  H1  UNL     1       1.701  -0.971  -1.906  1.00  0.00     0.185 HD
HETATM   13  N3  UNL     1       3.669   0.368   0.160  1.00  0.00    -0.225 N 
HETATM   14  N4  UNL     1       2.520   0.944   0.427  1.00  0.00    -0.273 N 
ATOM     15  H3  UNL     1       4.563   0.536   0.622  1.00  0.00     0.205 HD
ATOM     16  H4  UNL     1       2.387   1.650   1.151  1.00  0.00     0.189 HD
ENDBRANCH   4   9
TORSDOF 1
