REMARK  6 active torsions:
REMARK  status: ('A' for Active; 'I' for Inactive)
REMARK    1  A    between atoms: N1_1  and  C1_4 
REMARK    2  A    between atoms: C2_7  and  C3_8 
REMARK    3  A    between atoms: N3_9  and  N4_11 
REMARK       I    between atoms: N4_11  and  C4_13 
REMARK    4  A    between atoms: N6_15  and  O1_17 
REMARK    5  A    between atoms: O1_17  and  S1_18 
REMARK    6  A    between atoms: S1_18  and  N7_21 
ROOT
HETATM    1  N4  UNL     1       1.588  -0.195  -0.003  1.00  0.00    -0.272 N 
ATOM      2  H4  UNL     1       1.196  -1.088   0.297  1.00  0.00     0.189 HD
HETATM    3  C4  UNL     1       0.755   0.769  -0.589  1.00  0.00     0.228 C 
HETATM    4  N5  UNL     1       1.326   1.768  -1.409  1.00  0.00    -0.060 NA
HETATM    5  N6  UNL     1      -0.500   0.765  -0.400  1.00  0.00    -0.218 N 
ATOM      6  H6  UNL     1      -1.085   1.477  -0.838  1.00  0.00     0.198 HD
ENDROOT
BRANCH   1   7
HETATM    7  N3  UNL     1       2.937   0.056   0.171  1.00  0.00    -0.305 N 
HETATM    8  C3  UNL     1       3.785  -0.897   0.025  1.00  0.00     0.166 C 
ATOM      9  H3  UNL     1       3.257   0.994   0.414  1.00  0.00     0.186 HD
BRANCH   8  10
HETATM   10  C2  UNL     1       5.208  -0.627   0.210  1.00  0.00     0.202 A 
HETATM   11  N2  UNL     1       5.764   0.566   0.533  1.00  0.00    -0.166 N 
HETATM   12  C1  UNL     1       7.085   0.370   0.603  1.00  0.00     0.698 A 
ATOM     13  H2  UNL     1       5.270   1.444   0.692  1.00  0.00     0.186 HD
HETATM   14  N10 UNL     1       7.325  -0.907   0.329  1.00  0.00    -0.089 N 
HETATM   15  O5  UNL     1       6.200  -1.478   0.100  1.00  0.00    -0.203 OA
ATOM     16  H10 UNL     1       8.241  -1.354   0.305  1.00  0.00     0.213 HD
BRANCH  12  17
HETATM   17  N1  UNL     1       7.946   1.258   0.882  1.00  0.00    -0.233 N 
ATOM     18  H12 UNL     1       7.762   2.239   1.092  1.00  0.00     0.174 HD
ATOM     19  H11 UNL     1       8.954   1.109   0.935  1.00  0.00     0.174 HD
ENDBRANCH  12  17
ENDBRANCH   8  10
ENDBRANCH   1   7
BRANCH   5  20
HETATM   20  O1  UNL     1      -1.064  -0.190   0.388  1.00  0.00    -0.135 OA
BRANCH  20  21
HETATM   21  S1  UNL     1      -2.416  -1.085  -0.150  1.00  0.00     0.379 S 
HETATM   22  O2  UNL     1      -2.621  -0.813  -1.591  1.00  0.00    -0.177 OA
HETATM   23  O3  UNL     1      -2.113  -2.545   0.013  1.00  0.00    -0.177 OA
BRANCH  21  24
HETATM   24  N7  UNL     1      -3.760  -0.599   0.819  1.00  0.00    -0.081 NA
HETATM   25  C5  UNL     1      -3.985   0.794   0.609  1.00  0.00     0.145 C 
HETATM   26  C6  UNL     1      -5.011   1.067  -0.483  1.00  0.00     0.122 C 
HETATM   27  C7  UNL     1      -6.280   0.405  -0.016  1.00  0.00     0.238 C 
HETATM   28  O4  UNL     1      -7.412   0.853  -0.292  1.00  0.00    -0.272 OA
HETATM   29  N8  UNL     1      -6.078  -0.778   0.770  1.00  0.00    -0.259 N 
HETATM   30  N9  UNL     1      -4.858  -1.407   0.672  1.00  0.00    -0.244 N 
ATOM     31  H8  UNL     1      -6.812  -1.140   1.379  1.00  0.00     0.191 HD
ATOM     32  H9  UNL     1      -4.776  -2.409   0.501  1.00  0.00     0.203 HD
ENDBRANCH  21  24
ENDBRANCH  20  21
ENDBRANCH   5  20
TORSDOF 6
