REMARK  13 active torsions:
REMARK  status: ('A' for Active; 'I' for Inactive)
REMARK    1  A    between atoms: N1_1  and  C1_5 
REMARK    2  A    between atoms: C1_5  and  C2_6 
REMARK    3  A    between atoms: C2_6  and  N2_7 
REMARK    4  A    between atoms: N2_7  and  C3_10 
REMARK    5  A    between atoms: C3_10  and  C4_11 
REMARK    6  A    between atoms: C4_11  and  N3_12 
REMARK    7  A    between atoms: C5_19  and  C6_20 
REMARK    8  A    between atoms: C6_20  and  N7_21 
REMARK    9  A    between atoms: N7_21  and  C7_23 
REMARK   10  A    between atoms: C10_29  and  N10_30 
REMARK   11  A    between atoms: N10_30  and  C11_32 
REMARK   12  A    between atoms: C11_32  and  C12_33 
REMARK   13  A    between atoms: C12_33  and  O1_34 
ROOT
HETATM    1  N3  UNL     1      -1.509  -0.324  -1.604  1.00  0.00    -0.260 N 
HETATM    2  N4  UNL     1      -1.485  -0.041  -2.910  1.00  0.00    -0.225 N 
ATOM      3  H4  UNL     1      -2.246   0.354  -3.462  1.00  0.00     0.210 HD
HETATM    4  N5  UNL     1      -0.288  -0.371  -3.345  1.00  0.00    -0.227 N 
ATOM      5  H5  UNL     1       0.034  -0.272  -4.308  1.00  0.00     0.210 HD
HETATM    6  N6  UNL     1       0.433  -0.849  -2.349  1.00  0.00    -0.271 N 
ATOM      7  H6  UNL     1       1.397  -1.177  -2.412  1.00  0.00     0.190 HD
HETATM    8  C5  UNL     1      -0.327  -0.829  -1.227  1.00  0.00     0.133 A 
ENDROOT
BRANCH   8   9
HETATM    9  C6  UNL     1       0.060  -1.283   0.137  1.00  0.00     0.201 C 
BRANCH   9  10
HETATM   10  N7  UNL     1       1.486  -1.116   0.281  1.00  0.00    -0.367 N 
ATOM     11  H7  UNL     1       2.072  -1.939   0.426  1.00  0.00     0.161 HD
BRANCH  10  12
HETATM   12  C7  UNL     1       2.094   0.168   0.226  1.00  0.00     0.129 A 
HETATM   13  N8  UNL     1       1.463   1.365   0.058  1.00  0.00    -0.329 N 
HETATM   14  C8  UNL     1       2.375   2.368   0.068  1.00  0.00     0.120 A 
ATOM     15  H8  UNL     1       0.457   1.487  -0.058  1.00  0.00     0.168 HD
HETATM   16  N9  UNL     1       2.101   3.747  -0.073  1.00  0.00    -0.083 NA
HETATM   17  C9  UNL     1       3.619   1.786   0.247  1.00  0.00     0.078 A 
HETATM   18  C10 UNL     1       3.445   0.416   0.346  1.00  0.00     0.075 A 
BRANCH  18  19
HETATM   19  N10 UNL     1       4.506  -0.519   0.542  1.00  0.00    -0.385 N 
ATOM     20  H10 UNL     1       4.293  -1.513   0.629  1.00  0.00     0.159 HD
BRANCH  19  21
HETATM   21  C11 UNL     1       5.883  -0.071   0.619  1.00  0.00     0.146 C 
BRANCH  21  22
HETATM   22  C12 UNL     1       6.803  -1.266   0.858  1.00  0.00     0.183 C 
BRANCH  22  23
HETATM   23  O1  UNL     1       8.117  -0.837   0.930  1.00  0.00    -0.399 OA
ATOM     24  H1  UNL     1       8.689  -1.580   1.079  1.00  0.00     0.209 HD
ENDBRANCH  22  23
ENDBRANCH  21  22
ENDBRANCH  19  21
ENDBRANCH  18  19
ENDBRANCH  10  12
ENDBRANCH   9  10
ENDBRANCH   8   9
BRANCH   1  25
HETATM   25  C4  UNL     1      -2.674  -0.083  -0.759  1.00  0.00     0.179 C 
BRANCH  25  26
HETATM   26  C3  UNL     1      -3.540  -1.305  -0.737  1.00  0.00     0.254 C 
BRANCH  26  27
HETATM   27  N2  UNL     1      -4.711  -1.116   0.086  1.00  0.00    -0.072 N 
ATOM     28  H22 UNL     1      -4.471  -0.839   1.038  1.00  0.00     0.277 HD
ATOM     29  H21 UNL     1      -5.175  -1.998   0.303  1.00  0.00     0.277 HD
BRANCH  27  30
HETATM   30  C2  UNL     1      -5.595  -0.182  -0.541  1.00  0.00     0.259 C 
BRANCH  30  31
HETATM   31  C1  UNL     1      -6.850   0.071   0.274  1.00  0.00     0.257 C 
BRANCH  31  32
HETATM   32  N1  UNL     1      -6.539   0.615   1.581  1.00  0.00    -0.078 N 
ATOM     33  H13 UNL     1      -5.882   0.020   2.085  1.00  0.00     0.274 HD
ATOM     34  H12 UNL     1      -5.967   1.456   1.507  1.00  0.00     0.274 HD
ATOM     35  H11 UNL     1      -7.382   0.785   2.129  1.00  0.00     0.274 HD
ENDBRANCH  31  32
ENDBRANCH  30  31
ENDBRANCH  27  30
ENDBRANCH  26  27
ENDBRANCH  25  26
ENDBRANCH   1  25
TORSDOF 13
