REMARK  13 active torsions:
REMARK  status: ('A' for Active; 'I' for Inactive)
REMARK       I    between atoms: C1_4  and  N3_6 
REMARK    1  A    between atoms: N3_6  and  C2_8 
REMARK    2  A    between atoms: C2_8  and  C3_9 
REMARK    3  A    between atoms: C3_9  and  C4_10 
REMARK    4  A    between atoms: C4_10  and  O2_12 
REMARK    5  A    between atoms: O2_12  and  C5_13 
REMARK    6  A    between atoms: C5_13  and  C6_14 
REMARK    7  A    between atoms: C6_14  and  C7_15 
REMARK    8  A    between atoms: C10_18  and  O3_19 
REMARK    9  A    between atoms: O3_19  and  C11_20 
REMARK   10  A    between atoms: C11_20  and  C12_21 
REMARK   11  A    between atoms: C12_21  and  C13_22 
REMARK   12  A    between atoms: C16_25  and  C17_26 
REMARK   13  A    between atoms: C17_26  and  N4_27 
ROOT
HETATM    1  C7  UNL     1      -1.207   0.302  -0.015  1.00  0.00    -0.056 A 
HETATM    2  C8  UNL     1      -0.755  -0.884  -0.556  1.00  0.00     0.010 A 
HETATM    3  C9  UNL     1       0.509  -1.013  -1.097  1.00  0.00     0.037 A 
HETATM    4  C10 UNL     1       1.381   0.055  -1.116  1.00  0.00     0.068 A 
HETATM    5  C20 UNL     1       0.932   1.241  -0.576  1.00  0.00     0.037 A 
HETATM    6  C21 UNL     1      -0.333   1.370  -0.036  1.00  0.00     0.010 A 
ENDROOT
BRANCH   1   7
HETATM    7  C6  UNL     1      -2.580   0.441   0.571  1.00  0.00     0.065 C 
BRANCH   7   8
HETATM    8  C5  UNL     1      -3.564   0.878  -0.493  1.00  0.00     0.183 C 
BRANCH   8   9
HETATM    9  O2  UNL     1      -4.859   1.025  -0.016  1.00  0.00    -0.321 OA
BRANCH   9  10
HETATM   10  C4  UNL     1      -5.248   1.893   0.961  1.00  0.00     0.260 C 
HETATM   11  O1  UNL     1      -4.419   2.651   1.514  1.00  0.00    -0.265 OA
BRANCH  10  12
HETATM   12  C3  UNL     1      -6.687   1.955   1.391  1.00  0.00     0.130 C 
BRANCH  12  13
HETATM   13  C2  UNL     1      -7.486   0.939   0.570  1.00  0.00     0.132 C 
BRANCH  13  14
HETATM   14  N3  UNL     1      -6.981  -0.398   0.781  1.00  0.00    -0.364 N 
HETATM   15  C1  UNL     1      -7.609  -1.458   0.094  1.00  0.00     0.181 C 
HETATM   16  N1  UNL     1      -7.036  -2.000  -0.915  1.00  0.00    -0.374 N 
HETATM   17  N2  UNL     1      -8.868  -1.919   0.521  1.00  0.00    -0.064 NA
ATOM     18  H12 UNL     1      -7.490  -2.766  -1.412  1.00  0.00     0.158 HD
ATOM     19  H11 UNL     1      -6.123  -1.666  -1.225  1.00  0.00     0.158 HD
ATOM     20  H3  UNL     1      -6.195  -0.570   1.407  1.00  0.00     0.162 HD
ENDBRANCH  13  14
ENDBRANCH  12  13
ENDBRANCH  10  12
ENDBRANCH   9  10
ENDBRANCH   8   9
ENDBRANCH   7   8
ENDBRANCH   1   7
BRANCH   4  21
HETATM   21  O3  UNL     1       2.661  -0.037  -1.651  1.00  0.00    -0.351 OA
BRANCH  21  22
HETATM   22  C11 UNL     1       3.162  -1.211  -2.208  1.00  0.00     0.180 C 
BRANCH  22  23
HETATM   23  C12 UNL     1       4.590  -0.921  -2.686  1.00  0.00     0.065 C 
BRANCH  23  24
HETATM   24  C13 UNL     1       5.432  -0.498  -1.550  1.00  0.00    -0.056 A 
HETATM   25  C14 UNL     1       6.107  -1.476  -0.844  1.00  0.00     0.007 A 
HETATM   26  C15 UNL     1       6.906  -1.097   0.231  1.00  0.00     0.009 A 
HETATM   27  C16 UNL     1       7.044   0.224   0.612  1.00  0.00    -0.033 A 
HETATM   28  C18 UNL     1       6.357   1.176  -0.113  1.00  0.00     0.009 A 
HETATM   29  C19 UNL     1       5.561   0.831  -1.179  1.00  0.00     0.007 A 
BRANCH  27  30
HETATM   30  C17 UNL     1       7.908   0.616   1.772  1.00  0.00     0.268 C 
BRANCH  30  31
HETATM   31  N4  UNL     1       8.511  -0.546   2.358  1.00  0.00    -0.075 N 
ATOM     32  H43 UNL     1       7.815  -1.244   2.620  1.00  0.00     0.274 HD
ATOM     33  H42 UNL     1       9.025  -1.096   1.670  1.00  0.00     0.274 HD
ATOM     34  H41 UNL     1       9.099  -0.279   3.148  1.00  0.00     0.274 HD
ENDBRANCH  30  31
ENDBRANCH  27  30
ENDBRANCH  23  24
ENDBRANCH  22  23
ENDBRANCH  21  22
ENDBRANCH   4  21
TORSDOF 13
