REMARK  9 active torsions:
REMARK  status: ('A' for Active; 'I' for Inactive)
REMARK    1  A    between atoms: O1_2  and  C2_3 
REMARK    2  A    between atoms: C4_5  and  O2_6 
REMARK    3  A    between atoms: C6_8  and  C7_9 
REMARK    4  A    between atoms: C7_9  and  C8_10 
REMARK    5  A    between atoms: C7_9  and  S1_14 
REMARK    6  A    between atoms: C8_10  and  C9_11 
REMARK    7  A    between atoms: S1_14  and  C12_15 
REMARK    8  A    between atoms: C12_15  and  C13_16 
REMARK    9  A    between atoms: C17_21  and  O3_22 
ROOT
HETATM    1  C13 UNL     1       3.070   2.415   0.068  1.00  0.00    -0.006 C 
HETATM    2  C14 UNL     1       2.909   2.881  -1.143  1.00  0.00     0.090 C 
HETATM    3  C15 UNL     1       4.001   2.982  -2.062  1.00  0.00     0.087 C 
HETATM    4  N1  UNL     1       4.888   3.089  -2.822  1.00  0.00    -0.192 NA
ENDROOT
BRANCH   1   5
HETATM    5  C12 UNL     1       1.921   2.325   0.992  1.00  0.00     0.102 C 
BRANCH   5   6
HETATM    6  S1  UNL     1       1.502   0.788   1.687  1.00  0.00    -0.156 SA
BRANCH   6   7
HETATM    7  C7  UNL     1       0.800  -0.492   0.649  1.00  0.00     0.083 C 
BRANCH   7   8
HETATM    8  C6  UNL     1      -0.505  -0.108   0.065  1.00  0.00    -0.008 A 
HETATM    9  C4  UNL     1      -0.627  -0.360  -1.322  1.00  0.00     0.078 A 
HETATM   10  C3  UNL     1      -1.815   0.026  -1.900  1.00  0.00     0.077 A 
HETATM   11  C2  UNL     1      -2.832   0.629  -1.163  1.00  0.00     0.104 A 
HETATM   12  C17 UNL     1      -2.680   0.869   0.201  1.00  0.00     0.102 A 
HETATM   13  C16 UNL     1      -1.498   0.485   0.787  1.00  0.00     0.050 A 
BRANCH   9  14
HETATM   14  O2  UNL     1       0.427  -0.966  -1.985  1.00  0.00    -0.355 OA
HETATM   15  C5  UNL     1       0.417  -1.282  -3.345  1.00  0.00     0.210 C 
ENDBRANCH   9  14
BRANCH  11  16
HETATM   16  O1  UNL     1      -4.005   0.981  -1.796  1.00  0.00    -0.353 OA
HETATM   17  C1  UNL     1      -4.154   0.675  -3.191  1.00  0.00     0.210 C 
ENDBRANCH  11  16
BRANCH  12  18
HETATM   18  O3  UNL     1      -3.721   1.482   0.835  1.00  0.00    -0.353 OA
HETATM   19  C18 UNL     1      -3.862   1.888   2.146  1.00  0.00     0.210 C 
ENDBRANCH  12  18
ENDBRANCH   7   8
BRANCH   7  20
HETATM   20  C8  UNL     1       0.430  -1.614   1.723  1.00  0.00     0.024 C 
BRANCH  20  21
HETATM   21  C9  UNL     1       1.763  -2.025   2.277  1.00  0.00    -0.021 C 
HETATM   22  C10 UNL     1       2.644  -2.536   1.125  1.00  0.00     0.009 C 
HETATM   23  C11 UNL     1       1.599  -3.223   3.217  1.00  0.00     0.009 C 
ENDBRANCH  20  21
ENDBRANCH   7  20
ENDBRANCH   6   7
ENDBRANCH   5   6
ENDBRANCH   1   5
TORSDOF 9
