REMARK  2 active torsions:
REMARK  status: ('A' for Active; 'I' for Inactive)
REMARK    1  A    between atoms: N1_1  and  S1_4 
REMARK    2  A    between atoms: S1_4  and  N2_6 
ROOT
HETATM    1  N2  UNL     1       0.240   0.264  -0.024  1.00  0.00    -0.164 N 
HETATM    2  C1  UNL     1       1.142  -0.184   0.884  1.00  0.00     0.231 A 
HETATM    3  N3  UNL     1       2.035  -0.422  -0.089  1.00  0.00    -0.277 N 
ATOM      4  H3  UNL     1       2.987  -0.784  -0.137  1.00  0.00     0.185 HD
HETATM    5  N4  UNL     1       1.136   0.021  -0.965  1.00  0.00    -0.004 NA
ENDROOT
BRANCH   1   6
HETATM    6  S1  UNL     1      -1.211   0.811   0.105  1.00  0.00     0.235 S 
HETATM    7  O1  UNL     1      -1.454   2.052   0.605  1.00  0.00    -0.210 OA
BRANCH   6   8
HETATM    8  N1  UNL     1      -2.375  -0.194   0.023  1.00  0.00    -0.331 N 
ATOM      9  H12 UNL     1      -3.326   0.165   0.108  1.00  0.00     0.168 HD
ATOM     10  H11 UNL     1      -2.193  -1.125  -0.352  1.00  0.00     0.168 HD
ENDBRANCH   6   8
ENDBRANCH   1   6
TORSDOF 2
