REMARK  20 active torsions:
REMARK  status: ('A' for Active; 'I' for Inactive)
REMARK    1  A    between atoms: O1_2  and  C2_3 
REMARK    2  A    between atoms: C4_5  and  O2_6 
REMARK    3  A    between atoms: C5_8  and  O3_9 
REMARK    4  A    between atoms: C5_8  and  C6_11 
REMARK    5  A    between atoms: C8_16  and  O7_17 
REMARK    6  A    between atoms: C9_19  and  N1_20 
REMARK    7  A    between atoms: N1_20  and  C10_22 
REMARK    8  A    between atoms: C10_22  and  C11_23 
REMARK    9  A    between atoms: C11_23  and  C12_24 
REMARK   10  A    between atoms: C13_25  and  O8_26 
REMARK   11  A    between atoms: C14_28  and  N2_29 
REMARK   12  A    between atoms: N2_29  and  O9_31 
REMARK   13  A    between atoms: C16_34  and  O10_35 
REMARK   14  A    between atoms: C17_37  and  C18_38 
REMARK   15  A    between atoms: C18_38  and  O11_39 
REMARK   16  A    between atoms: C18_38  and  O12_41 
REMARK   17  A    between atoms: O12_41  and  N3_42 
REMARK   18  A    between atoms: C19_45  and  O13_46 
REMARK   19  A    between atoms: C19_45  and  C20_48 
REMARK   20  A    between atoms: C20_48  and  O14_49 
ROOT
HETATM    1  C2  UNL     1       2.743   0.307  -1.808  1.00  0.00     0.097 A 
HETATM    2  C3  UNL     1       3.104  -0.543  -0.920  1.00  0.00     0.033 A 
HETATM    3  C4  UNL     1       4.107  -1.528  -0.450  1.00  0.00     0.207 C 
HETATM    4  C5  UNL     1       4.300  -0.997   0.989  1.00  0.00     0.240 C 
HETATM    5  C7  UNL     1       2.972  -0.315   1.299  1.00  0.00     0.219 C 
HETATM    6  O6  UNL     1       2.805   0.351   2.279  1.00  0.00    -0.290 OA
HETATM    7  C8  UNL     1       2.070  -0.661   0.195  1.00  0.00     0.193 A 
HETATM    8  C9  UNL     1       1.025   0.226  -0.213  1.00  0.00     0.076 A 
HETATM    9  C19 UNL     1       1.475   0.929  -1.469  1.00  0.00     0.169 A 
ENDROOT
BRANCH   8  10
HETATM   10  N1  UNL     1      -0.154   0.489   0.234  1.00  0.00    -0.370 N 
ATOM     11  H1  UNL     1      -0.712   1.188  -0.257  1.00  0.00     0.164 HD
BRANCH  10  12
HETATM   12  C10 UNL     1      -0.705  -0.127   1.347  1.00  0.00     0.065 C 
BRANCH  12  13
HETATM   13  C11 UNL     1      -2.014   0.463   1.833  1.00  0.00     0.086 C 
BRANCH  13  14
HETATM   14  C12 UNL     1      -3.083   0.412   0.844  1.00  0.00    -0.004 A 
HETATM   15  C13 UNL     1      -3.099   1.441  -0.115  1.00  0.00     0.101 A 
HETATM   16  C14 UNL     1      -4.037   1.476  -1.129  1.00  0.00     0.090 A 
HETATM   17  C15 UNL     1      -4.976   0.472  -1.189  1.00  0.00     0.071 A 
HETATM   18  C16 UNL     1      -4.984  -0.540  -0.267  1.00  0.00     0.079 A 
HETATM   19  C17 UNL     1      -4.034  -0.583   0.766  1.00  0.00     0.041 A 
BRANCH  15  20
HETATM   20  O8  UNL     1      -2.178   2.476  -0.091  1.00  0.00    -0.358 OA
ATOM     21  H8  UNL     1      -2.189   3.171  -0.739  1.00  0.00     0.217 HD
ENDBRANCH  15  20
BRANCH  16  22
HETATM   22  N2  UNL     1      -4.047   2.520  -2.098  1.00  0.00    -0.267 N 
ATOM     23  H2  UNL     1      -3.516   2.406  -2.962  1.00  0.00     0.194 HD
BRANCH  22  24
HETATM   24  O9  UNL     1      -4.739   3.646  -1.897  1.00  0.00    -0.289 OA
ATOM     25  H9  UNL     1      -4.746   4.342  -2.543  1.00  0.00     0.244 HD
ENDBRANCH  22  24
ENDBRANCH  16  22
BRANCH  18  26
HETATM   26  O10 UNL     1      -5.928  -1.539  -0.336  1.00  0.00    -0.360 OA
ATOM     27  H10 UNL     1      -5.934  -2.241   0.304  1.00  0.00     0.217 HD
ENDBRANCH  18  26
BRANCH  19  28
HETATM   28  C18 UNL     1      -4.104  -1.677   1.735  1.00  0.00     0.322 C 
BRANCH  28  29
HETATM   29  O11 UNL     1      -4.010  -1.302   3.070  1.00  0.00    -0.365 OA
ATOM     30  H11 UNL     1      -4.055  -2.012   3.699  1.00  0.00     0.213 HD
ENDBRANCH  28  29
BRANCH  28  31
HETATM   31  O12 UNL     1      -3.293  -2.762   1.449  1.00  0.00    -0.250 OA
BRANCH  31  32
HETATM   32  N3  UNL     1      -4.011  -3.875   1.211  1.00  0.00    -0.308 N 
ATOM     33  H32 UNL     1      -5.030  -3.900   1.242  1.00  0.00     0.184 HD
ATOM     34  H31 UNL     1      -3.413  -4.674   1.000  1.00  0.00     0.184 HD
ENDBRANCH  31  32
ENDBRANCH  28  31
ENDBRANCH  19  28
ENDBRANCH  13  14
ENDBRANCH  12  13
ENDBRANCH  10  12
ENDBRANCH   8  10
BRANCH   7  35
HETATM   35  O7  UNL     1       1.678  -2.013   0.255  1.00  0.00    -0.372 OA
ATOM     36  H7  UNL     1       1.034  -2.086   0.949  1.00  0.00     0.212 HD
ENDBRANCH   7  35
BRANCH   9  37
HETATM   37  O13 UNL     1       0.573   0.724  -2.512  1.00  0.00    -0.375 OA
ATOM     38  H13 UNL     1      -0.256   1.131  -2.290  1.00  0.00     0.211 HD
ENDBRANCH   9  37
BRANCH   9  39
HETATM   39  C20 UNL     1       1.582   2.419  -1.229  1.00  0.00     0.215 C 
BRANCH  39  40
HETATM   40  O14 UNL     1       2.469   2.702  -0.197  1.00  0.00    -0.397 OA
ATOM     41  H14 UNL     1       2.536   3.638  -0.046  1.00  0.00     0.209 HD
ENDBRANCH  39  40
ENDBRANCH   9  39
BRANCH   1  42
HETATM   42  O1  UNL     1       3.452   0.636  -2.976  1.00  0.00    -0.356 OA
HETATM   43  C1  UNL     1       4.548   1.521  -2.965  1.00  0.00     0.209 C 
ENDBRANCH   1  42
BRANCH   3  44
HETATM   44  O2  UNL     1       5.282  -1.486  -1.156  1.00  0.00    -0.387 OA
ATOM     45  H2  UNL     1       5.925  -2.117  -0.855  1.00  0.00     0.210 HD
ENDBRANCH   3  44
BRANCH   4  46
HETATM   46  O3  UNL     1       5.304  -0.043   0.928  1.00  0.00    -0.370 OA
ATOM     47  H3  UNL     1       5.423   0.283   1.812  1.00  0.00     0.212 HD
ENDBRANCH   4  46
BRANCH   4  48
HETATM   48  C6  UNL     1       4.596  -2.072   1.931  1.00  0.00     0.220 C 
HETATM   49  O4  UNL     1       3.805  -3.023   2.112  1.00  0.00    -0.645 OA
HETATM   50  O5  UNL     1       5.777  -2.084   2.670  1.00  0.00    -0.645 OA
ENDBRANCH   4  48
TORSDOF 20
