REMARK  13 active torsions:
REMARK  status: ('A' for Active; 'I' for Inactive)
REMARK    1  A    between atoms: C2_2  and  C3_3 
REMARK    2  A    between atoms: C3_3  and  C4_4 
REMARK    3  A    between atoms: C4_4  and  C5_6 
REMARK    4  A    between atoms: C5_6  and  C6_7 
REMARK    5  A    between atoms: C6_7  and  N1_8 
REMARK    6  A    between atoms: C9_11  and  C10_12 
REMARK    7  A    between atoms: C10_12  and  S1_13 
REMARK    8  A    between atoms: S1_13  and  N2_16 
REMARK       I    between atoms: N2_16  and  C11_18 
REMARK       I    between atoms: C11_18  and  N3_20 
REMARK    9  A    between atoms: N3_20  and  C12_22 
REMARK   10  A    between atoms: N5_26  and  C14_27 
REMARK   11  A    between atoms: C14_27  and  C15_28 
REMARK   12  A    between atoms: C15_28  and  C16_29 
REMARK       I    between atoms: C16_29  and  N6_31 
REMARK   13  A    between atoms: C22_37  and  N7_38 
ROOT
HETATM    1  N2  UNL     1       1.234  -1.161   1.368  1.00  0.00    -0.236 N 
ATOM      2  H2  UNL     1       1.339  -0.635   0.501  1.00  0.00     0.183 HD
HETATM    3  C11 UNL     1      -0.063  -1.624   1.700  1.00  0.00     0.334 C 
HETATM    4  O4  UNL     1      -0.249  -2.271   2.734  1.00  0.00    -0.246 OA
HETATM    5  N3  UNL     1      -1.118  -1.320   0.818  1.00  0.00    -0.304 N 
ATOM      6  H3  UNL     1      -0.888  -0.783  -0.018  1.00  0.00     0.171 HD
ENDROOT
BRANCH   5   7
HETATM    7  C12 UNL     1      -2.472  -1.698   0.996  1.00  0.00     0.099 A 
HETATM    8  C13 UNL     1      -3.063  -2.463   1.974  1.00  0.00     0.141 A 
HETATM    9  N4  UNL     1      -4.380  -2.553   1.736  1.00  0.00    -0.306 N 
HETATM   10  N5  UNL     1      -4.674  -1.879   0.642  1.00  0.00    -0.275 N 
ATOM     11  H4  UNL     1      -5.050  -3.063   2.312  1.00  0.00     0.186 HD
HETATM   12  C22 UNL     1      -3.543  -1.338   0.153  1.00  0.00     0.149 A 
BRANCH  10  13
HETATM   13  C14 UNL     1      -5.970  -1.698   0.002  1.00  0.00     0.160 C 
BRANCH  13  14
HETATM   14  C15 UNL     1      -6.692  -0.468   0.503  1.00  0.00     0.125 C 
BRANCH  14  15
HETATM   15  C16 UNL     1      -7.992  -0.388  -0.227  1.00  0.00     0.221 C 
HETATM   16  O5  UNL     1      -8.373  -1.332  -0.990  1.00  0.00    -0.273 OA
HETATM   17  N6  UNL     1      -8.792   0.766  -0.049  1.00  0.00    -0.352 N 
HETATM   18  C17 UNL     1      -8.346   1.796   0.850  1.00  0.00     0.125 C 
HETATM   19  C21 UNL     1     -10.019   0.858  -0.810  1.00  0.00     0.125 C 
HETATM   20  C18 UNL     1      -9.042   3.114   0.556  1.00  0.00     0.020 C 
HETATM   21  C19 UNL     1     -10.536   2.805   0.707  1.00  0.00     0.003 C 
HETATM   22  C20 UNL     1     -10.947   1.940  -0.429  1.00  0.00     0.020 C 
ENDBRANCH  14  15
ENDBRANCH  13  14
ENDBRANCH  10  13
BRANCH  12  23
HETATM   23  N7  UNL     1      -3.369  -0.542  -0.988  1.00  0.00    -0.364 N 
HETATM   24  C23 UNL     1      -3.290   0.897  -1.004  1.00  0.00     0.124 C 
HETATM   25  C24 UNL     1      -3.930   1.338  -2.311  1.00  0.00     0.021 C 
HETATM   26  C25 UNL     1      -3.799   0.129  -3.185  1.00  0.00     0.021 C 
HETATM   27  C26 UNL     1      -3.237  -0.992  -2.342  1.00  0.00     0.124 C 
ENDBRANCH  12  23
ENDBRANCH   5   7
BRANCH   1  28
HETATM   28  S1  UNL     1       2.647  -1.420   2.319  1.00  0.00     0.234 S 
HETATM   29  O2  UNL     1       3.137  -2.793   2.129  1.00  0.00    -0.206 OA
HETATM   30  O3  UNL     1       2.286  -1.264   3.801  1.00  0.00    -0.206 OA
BRANCH  28  31
HETATM   31  C10 UNL     1       3.809  -0.171   1.864  1.00  0.00     0.168 C 
BRANCH  31  32
HETATM   32  C9  UNL     1       4.161  -0.118   0.417  1.00  0.00     0.004 C 
HETATM   33  C8  UNL     1       5.153   1.054   0.224  1.00  0.00     0.036 C 
HETATM   34  C7  UNL     1       6.008   0.678  -0.965  1.00  0.00     0.272 C 
HETATM   35  N1  UNL     1       6.957  -0.329  -0.507  1.00  0.00     0.088 N 
HETATM   36  C28 UNL     1       6.259  -1.432   0.129  1.00  0.00     0.272 C 
HETATM   37  C27 UNL     1       4.760  -1.365  -0.134  1.00  0.00     0.036 C 
BRANCH  35  38
HETATM   38  C6  UNL     1       7.764  -0.775  -1.618  1.00  0.00     0.279 C 
BRANCH  38  39
HETATM   39  C5  UNL     1       8.876  -1.703  -1.259  1.00  0.00     0.108 C 
BRANCH  39  40
HETATM   40  C4  UNL     1       9.878  -1.131  -0.328  1.00  0.00     0.128 C 
HETATM   41  O1  UNL     1      10.810  -1.855   0.025  1.00  0.00    -0.298 OA
BRANCH  40  42
HETATM   42  C3  UNL     1       9.802   0.245   0.175  1.00  0.00     0.078 C 
BRANCH  42  43
HETATM   43  C2  UNL     1      11.036   0.573   1.018  1.00  0.00     0.003 C 
HETATM   44  C1  UNL     1      10.876   2.015   1.498  1.00  0.00     0.005 C 
ENDBRANCH  42  43
ENDBRANCH  40  42
ENDBRANCH  39  40
ENDBRANCH  38  39
ENDBRANCH  35  38
ENDBRANCH  31  32
ENDBRANCH  28  31
ENDBRANCH   1  28
TORSDOF 13
