REMARK  3 active torsions:
REMARK  status: ('A' for Active; 'I' for Inactive)
REMARK    1  A    between atoms: C13_13  and  O1_14 
REMARK    2  A    between atoms: C13_13  and  C14_16 
REMARK    3  A    between atoms: C14_16  and  N1_17 
ROOT
HETATM    1  C1  UNL     1      -0.258  -3.499   0.305  1.00  0.00     0.013 C 
HETATM    2  C2  UNL     1       0.464  -2.167   0.447  1.00  0.00     0.022 C 
HETATM    3  C3  UNL     1       1.670  -2.149  -0.418  1.00  0.00     0.012 C 
HETATM    4  C4  UNL     1       1.667  -0.854  -1.202  1.00  0.00    -0.006 C 
HETATM    5  C5  UNL     1       2.977  -0.199  -1.222  1.00  0.00     0.010 C 
HETATM    6  C6  UNL     1       3.074   1.242  -0.958  1.00  0.00    -0.014 C 
HETATM    7  C7  UNL     1       3.939   1.550   0.275  1.00  0.00     0.005 C 
HETATM    8  C8  UNL     1       3.033   1.651   1.482  1.00  0.00     0.001 C 
HETATM    9  C9  UNL     1       1.835   0.707   1.339  1.00  0.00     0.005 C 
HETATM   10  C10 UNL     1       0.959   1.048   0.209  1.00  0.00    -0.006 C 
HETATM   11  C11 UNL     1       1.775   1.967  -0.724  1.00  0.00     0.010 C 
HETATM   12  C12 UNL     1       0.503  -0.048  -0.694  1.00  0.00     0.034 C 
HETATM   13  C13 UNL     1      -0.422  -1.057  -0.175  1.00  0.00     0.098 C 
ENDROOT
BRANCH  13  14
HETATM   14  O1  UNL     1      -1.017  -1.739  -1.240  1.00  0.00    -0.384 OA
ATOM     15  H1  UNL     1      -1.560  -1.059  -1.621  1.00  0.00     0.211 HD
ENDBRANCH  13  14
BRANCH  13  16
HETATM   16  C14 UNL     1      -1.482  -0.651   0.771  1.00  0.00     0.106 C 
BRANCH  16  17
HETATM   17  N1  UNL     1      -2.538   0.156   0.341  1.00  0.00    -0.347 N 
HETATM   18  C15 UNL     1      -3.448   0.515   1.345  1.00  0.00     0.094 C 
HETATM   19  C16 UNL     1      -4.825   0.813   0.796  1.00  0.00     0.213 C 
HETATM   20  O2  UNL     1      -4.643   1.856  -0.125  1.00  0.00    -0.381 OA
HETATM   21  C17 UNL     1      -3.978   1.307  -1.194  1.00  0.00     0.213 C 
HETATM   22  C18 UNL     1      -2.567   0.829  -0.855  1.00  0.00     0.094 C 
ENDBRANCH  16  17
ENDBRANCH  13  16
TORSDOF 3
