REMARK  8 active torsions:
REMARK  status: ('A' for Active; 'I' for Inactive)
REMARK    1  A    between atoms: C2_2  and  C3_3 
REMARK    2  A    between atoms: C8_8  and  O1_9 
REMARK    3  A    between atoms: C14_17  and  O3_18 
REMARK    4  A    between atoms: O3_18  and  C15_19 
REMARK    5  A    between atoms: C15_19  and  C16_20 
REMARK    6  A    between atoms: C16_20  and  O4_21 
REMARK    7  A    between atoms: C16_20  and  C17_23 
REMARK    8  A    between atoms: C22_29  and  C23_30 
ROOT
HETATM    1  C3  UNL     1      -2.584   1.593  -0.302  1.00  0.00    -0.010 C 
HETATM    2  C4  UNL     1      -3.274   1.184  -1.603  1.00  0.00     0.021 C 
HETATM    3  C5  UNL     1      -3.648   1.590   0.737  1.00  0.00     0.014 C 
HETATM    4  C6  UNL     1      -3.820   0.378   1.557  1.00  0.00     0.004 C 
HETATM    5  C7  UNL     1      -3.262  -0.815   0.908  1.00  0.00     0.042 C 
HETATM    6  C8  UNL     1      -1.859  -0.693   0.385  1.00  0.00     0.102 C 
HETATM    7  C9  UNL     1      -1.809  -1.683  -0.722  1.00  0.00     0.192 A 
HETATM    8  O2  UNL     1      -2.204  -2.979  -0.641  1.00  0.00    -0.366 OA
HETATM    9  C10 UNL     1      -0.837  -2.638  -0.810  1.00  0.00     0.087 A 
HETATM   10  C11 UNL     1      -0.071  -3.526   0.091  1.00  0.00     0.049 C 
HETATM   11  C12 UNL     1      -0.222  -2.529  -2.190  1.00  0.00     0.043 C 
HETATM   12  C13 UNL     1       0.024  -1.051  -2.412  1.00  0.00     0.035 C 
HETATM   13  C14 UNL     1       0.591  -0.341  -1.179  1.00  0.00     0.126 C 
HETATM   14  C20 UNL     1      -0.244   0.866  -0.819  1.00  0.00     0.030 C 
HETATM   15  C21 UNL     1       0.741   1.918  -0.368  1.00  0.00     0.014 C 
HETATM   16  C22 UNL     1      -1.411   0.689   0.050  1.00  0.00     0.062 C 
ENDROOT
BRANCH  13  17
HETATM   17  O3  UNL     1       1.876  -0.040  -1.555  1.00  0.00    -0.383 OA
BRANCH  17  18
HETATM   18  C15 UNL     1       2.938  -0.605  -0.982  1.00  0.00     0.202 C 
BRANCH  18  19
HETATM   19  C16 UNL     1       3.273  -0.433   0.444  1.00  0.00     0.173 C 
BRANCH  19  20
HETATM   20  O4  UNL     1       2.318  -0.884   1.332  1.00  0.00    -0.391 OA
ATOM     21  H4  UNL     1       2.534  -0.773   2.251  1.00  0.00     0.210 HD
ENDBRANCH  19  20
BRANCH  19  22
HETATM   22  C17 UNL     1       4.586  -1.124   0.811  1.00  0.00     0.181 A 
HETATM   23  O5  UNL     1       4.976  -0.816   2.132  1.00  0.00    -0.373 OA
HETATM   24  C18 UNL     1       5.803  -0.365   1.026  1.00  0.00     0.149 A 
HETATM   25  C19 UNL     1       5.884   1.127   0.873  1.00  0.00     0.042 C 
ENDBRANCH  19  22
ENDBRANCH  18  19
ENDBRANCH  17  18
ENDBRANCH  13  17
BRANCH  16  26
HETATM   26  C23 UNL     1      -0.905   1.182   1.396  1.00  0.00     0.245 C 
HETATM   27  O6  UNL     1      -1.208   2.152   1.981  1.00  0.00    -0.306 OA
ENDBRANCH  16  26
BRANCH   1  28
HETATM   28  C2  UNL     1      -2.209   2.996  -0.569  1.00  0.00    -0.026 C 
HETATM   29  C1  UNL     1      -2.487   4.100   0.062  1.00  0.00     0.008 C 
ENDBRANCH   1  28
BRANCH   6  30
HETATM   30  O1  UNL     1      -1.048  -1.255   1.413  1.00  0.00    -0.386 OA
ATOM     31  H1  UNL     1      -0.161  -1.178   1.082  1.00  0.00     0.210 HD
ENDBRANCH   6  30
TORSDOF 8
