REMARK  7 active torsions:
REMARK  status: ('A' for Active; 'I' for Inactive)
REMARK       I    between atoms: N2_3  and  C2_5 
REMARK       I    between atoms: C2_5  and  N3_6 
REMARK       I    between atoms: C2_5  and  N7_26 
REMARK    1  A    between atoms: N3_6  and  C3_7 
REMARK    2  A    between atoms: C6_10  and  N4_11 
REMARK    3  A    between atoms: N4_11  and  C7_13 
REMARK    4  A    between atoms: C7_13  and  N5_15 
REMARK    5  A    between atoms: N5_15  and  C8_17 
REMARK    6  A    between atoms: N7_26  and  C15_28 
REMARK    7  A    between atoms: C15_28  and  C16_29 
ROOT
HETATM    1  N1  UNL     1      -3.188   1.569  -3.291  1.00  0.00    -0.172 NA
HETATM    2  C1  UNL     1      -3.169   1.615  -2.148  1.00  0.00     0.185 C 
HETATM    3  N2  UNL     1      -3.137   1.631  -0.752  1.00  0.00    -0.253 N 
ATOM      4  H2  UNL     1      -3.479   2.439  -0.232  1.00  0.00     0.182 HD
HETATM    5  C2  UNL     1      -2.605   0.471  -0.055  1.00  0.00     0.264 C 
HETATM    6  N3  UNL     1      -1.478   0.215  -0.268  1.00  0.00    -0.371 NA
HETATM    7  N7  UNL     1      -3.488  -0.206   0.798  1.00  0.00    -0.344 N 
ATOM      8  H7  UNL     1      -3.342  -0.091   1.801  1.00  0.00     0.164 HD
ENDROOT
BRANCH   6   9
HETATM    9  C3  UNL     1      -0.220  -0.149  -0.450  1.00  0.00     0.111 A 
HETATM   10  C4  UNL     1       0.175  -0.941  -1.535  1.00  0.00     0.047 A 
HETATM   11  C5  UNL     1       1.431  -1.319  -1.718  1.00  0.00     0.033 A 
HETATM   12  C6  UNL     1       2.495  -0.951  -0.831  1.00  0.00     0.034 A 
HETATM   13  C13 UNL     1       2.114  -0.201   0.201  1.00  0.00     0.033 A 
HETATM   14  C14 UNL     1       0.792   0.215   0.414  1.00  0.00     0.047 A 
BRANCH  12  15
HETATM   15  N4  UNL     1       3.743  -1.397  -1.234  1.00  0.00    -0.333 N 
ATOM     16  H4  UNL     1       3.792  -1.547  -2.242  1.00  0.00     0.168 HD
BRANCH  15  17
HETATM   17  C7  UNL     1       4.947  -1.690  -0.600  1.00  0.00     0.177 C 
HETATM   18  S1  UNL     1       6.107  -2.354  -1.473  1.00  0.00    -0.040 SA
BRANCH  17  19
HETATM   19  N5  UNL     1       5.107  -1.447   0.846  1.00  0.00    -0.319 N 
ATOM     20  H5  UNL     1       4.963  -2.123   1.596  1.00  0.00     0.169 HD
BRANCH  19  21
HETATM   21  C8  UNL     1       5.465  -0.211   0.978  1.00  0.00     0.106 A 
HETATM   22  C9  UNL     1       5.807   0.970   1.144  1.00  0.00     0.048 A 
HETATM   23  C10 UNL     1       6.794   1.866   1.090  1.00  0.00     0.005 A 
HETATM   24  C11 UNL     1       8.041   1.352   0.681  1.00  0.00     0.017 A 
HETATM   25  C12 UNL     1       7.948  -0.009   0.419  1.00  0.00     0.089 A 
HETATM   26  N6  UNL     1       6.956  -0.775   0.502  1.00  0.00    -0.352 N 
ATOM     27  H6  UNL     1       7.067  -1.763   0.273  1.00  0.00     0.166 HD
ENDBRANCH  19  21
ENDBRANCH  17  19
ENDBRANCH  15  17
ENDBRANCH  12  15
ENDBRANCH   6   9
BRANCH   7  28
HETATM   28  C15 UNL     1      -4.581  -1.048   0.391  1.00  0.00     0.180 C 
BRANCH  28  29
HETATM   29  C16 UNL     1      -5.847  -0.272   0.472  1.00  0.00     0.026 A 
HETATM   30  C17 UNL     1      -7.019  -0.968   0.271  1.00  0.00     0.027 A 
HETATM   31  C18 UNL     1      -8.260  -0.347   0.404  1.00  0.00     0.003 A 
HETATM   32  C19 UNL     1      -8.278   0.987   0.750  1.00  0.00     0.017 A 
HETATM   33  C20 UNL     1      -7.111   1.631   0.940  1.00  0.00     0.088 A 
HETATM   34  N8  UNL     1      -5.935   0.991   0.797  1.00  0.00    -0.368 N 
ATOM     35  H8  UNL     1      -5.074   1.516   0.949  1.00  0.00     0.165 HD
ENDBRANCH  28  29
ENDBRANCH   7  28
TORSDOF 7
