REMARK  4 active torsions:
REMARK  status: ('A' for Active; 'I' for Inactive)
REMARK    1  A    between atoms: C2_5  and  C3_6 
REMARK    2  A    between atoms: C7_10  and  N2_11 
REMARK    3  A    between atoms: N2_11  and  S1_13 
REMARK    4  A    between atoms: S1_13  and  C8_16 
ROOT
HETATM    1  C3  UNL     1      -1.691  -1.539  -0.112  1.00  0.00     0.060 A 
HETATM    2  C4  UNL     1      -2.267  -2.686  -0.606  1.00  0.00     0.032 A 
HETATM    3  C5  UNL     1      -1.777  -3.908  -0.184  1.00  0.00     0.006 A 
HETATM    4  C6  UNL     1      -0.740  -3.927   0.708  1.00  0.00     0.049 A 
HETATM    5  C7  UNL     1      -0.148  -2.762   1.217  1.00  0.00     0.115 A 
HETATM    6  N4  UNL     1      -0.664  -1.622   0.772  1.00  0.00    -0.340 N 
ATOM      7  H4  UNL     1      -0.262  -0.751   1.117  1.00  0.00     0.167 HD
ENDROOT
BRANCH   5   8
HETATM    8  N2  UNL     1       0.923  -2.909   2.127  1.00  0.00    -0.266 N 
ATOM      9  H2  UNL     1       1.185  -3.864   2.373  1.00  0.00     0.180 HD
BRANCH   8  10
HETATM   10  S1  UNL     1       1.822  -1.660   2.856  1.00  0.00     0.264 S 
HETATM   11  O2  UNL     1       2.887  -2.230   3.770  1.00  0.00    -0.200 OA
HETATM   12  O3  UNL     1       0.930  -0.752   3.693  1.00  0.00    -0.200 OA
BRANCH  10  13
HETATM   13  C8  UNL     1       2.665  -0.701   1.661  1.00  0.00     0.080 A 
HETATM   14  C9  UNL     1       3.877  -1.160   1.129  1.00  0.00     0.027 A 
HETATM   15  C10 UNL     1       4.584  -0.434   0.198  1.00  0.00     0.032 A 
HETATM   16  C11 UNL     1       4.133   0.774  -0.251  1.00  0.00     0.042 A 
HETATM   17  N3  UNL     1       4.626   1.672  -1.144  1.00  0.00    -0.365 N 
HETATM   18  C14 UNL     1       2.951   1.254   0.249  1.00  0.00    -0.007 A 
HETATM   19  C12 UNL     1       3.779   2.694  -1.210  1.00  0.00     0.089 A 
ATOM     20  H3  UNL     1       5.494   1.578  -1.671  1.00  0.00     0.165 HD
HETATM   21  C13 UNL     1       2.711   2.481  -0.355  1.00  0.00     0.030 A 
HETATM   22  C15 UNL     1       2.237   0.514   1.193  1.00  0.00     0.039 A 
ENDBRANCH  10  13
ENDBRANCH   8  10
ENDBRANCH   5   8
BRANCH   1  23
HETATM   23  C2  UNL     1      -2.190  -0.229  -0.518  1.00  0.00     0.062 A 
HETATM   24  N1  UNL     1      -1.616   0.892   0.004  1.00  0.00    -0.320 N 
HETATM   25  C1  UNL     1      -2.035   2.120  -0.343  1.00  0.00     0.273 A 
ATOM     26  H1  UNL     1      -0.852   0.796   0.673  1.00  0.00     0.169 HD
HETATM   27  O1  UNL     1      -1.472   3.123   0.167  1.00  0.00    -0.266 OA
HETATM   28  C20 UNL     1      -3.056   2.358  -1.234  1.00  0.00     0.111 A 
HETATM   29  C17 UNL     1      -3.655   1.245  -1.778  1.00  0.00    -0.000 A 
HETATM   30  N5  UNL     1      -3.655   3.466  -1.742  1.00  0.00    -0.361 N 
HETATM   31  C16 UNL     1      -3.207  -0.022  -1.406  1.00  0.00     0.045 A 
HETATM   32  C18 UNL     1      -4.630   1.720  -2.626  1.00  0.00     0.031 A 
HETATM   33  C19 UNL     1      -4.639   3.102  -2.611  1.00  0.00     0.089 A 
ATOM     34  H5  UNL     1      -3.405   4.427  -1.508  1.00  0.00     0.165 HD
ENDBRANCH   1  23
TORSDOF 4
