REMARK  6 active torsions:
REMARK  status: ('A' for Active; 'I' for Inactive)
REMARK    1  A    between atoms: C1_4  and  N2_5 
REMARK    2  A    between atoms: C1_4  and  C7_14 
REMARK    3  A    between atoms: N2_5  and  C2_6 
REMARK    4  A    between atoms: C12_19  and  S1_20 
REMARK    5  A    between atoms: S1_20  and  N5_23 
REMARK    6  A    between atoms: N5_23  and  C13_25 
ROOT
HETATM    1  C7  UNL     1       1.627  -2.178   0.203  1.00  0.00     0.045 A 
HETATM    2  C8  UNL     1       1.926  -3.555   0.029  1.00  0.00     0.018 A 
HETATM    3  C9  UNL     1       1.090  -4.596   0.321  1.00  0.00     0.001 A 
HETATM    4  C10 UNL     1      -0.140  -4.300   0.827  1.00  0.00     0.002 A 
HETATM    5  C11 UNL     1      -0.519  -3.003   1.029  1.00  0.00     0.026 A 
HETATM    6  C12 UNL     1       0.365  -1.966   0.712  1.00  0.00     0.094 A 
ENDROOT
BRANCH   6   7
HETATM    7  S1  UNL     1      -0.225  -0.367   0.937  1.00  0.00     0.264 S 
HETATM    8  O1  UNL     1       0.294   0.488  -0.224  1.00  0.00    -0.200 OA
HETATM    9  O2  UNL     1       0.229   0.268   2.213  1.00  0.00    -0.200 OA
BRANCH   7  10
HETATM   10  N5  UNL     1      -1.957  -0.193   0.940  1.00  0.00    -0.280 N 
ATOM     11  H5  UNL     1      -2.368   0.117   1.821  1.00  0.00     0.179 HD
BRANCH  10  12
HETATM   12  C13 UNL     1      -2.852  -0.419  -0.092  1.00  0.00     0.053 A 
HETATM   13  C14 UNL     1      -3.443  -1.561  -0.465  1.00  0.00     0.031 A 
HETATM   14  C15 UNL     1      -4.355  -1.671  -1.527  1.00  0.00     0.003 A 
HETATM   15  C16 UNL     1      -4.688  -0.569  -2.245  1.00  0.00     0.012 A 
HETATM   16  C17 UNL     1      -4.114   0.623  -1.903  1.00  0.00    -0.024 A 
HETATM   17  C18 UNL     1      -4.488   1.734  -2.657  1.00  0.00     0.012 A 
HETATM   18  C22 UNL     1      -3.222   0.724  -0.864  1.00  0.00     0.001 A 
HETATM   19  C19 UNL     1      -3.961   2.951  -2.361  1.00  0.00     0.001 A 
HETATM   20  C20 UNL     1      -3.066   3.058  -1.317  1.00  0.00     0.001 A 
HETATM   21  C21 UNL     1      -2.682   1.950  -0.553  1.00  0.00     0.014 A 
ENDBRANCH  10  12
ENDBRANCH   7  10
ENDBRANCH   6   7
BRANCH   1  22
HETATM   22  C1  UNL     1       2.703  -1.257   0.022  1.00  0.00     0.185 C 
HETATM   23  N1  UNL     1       3.693  -1.716  -0.794  1.00  0.00    -0.373 N 
ATOM     24  H12 UNL     1       4.462  -1.058  -0.923  1.00  0.00     0.158 HD
ATOM     25  H11 UNL     1       3.411  -2.603  -1.211  1.00  0.00     0.158 HD
BRANCH  22  26
HETATM   26  N2  UNL     1       3.069  -0.105   0.563  1.00  0.00    -0.385 NA
BRANCH  26  27
HETATM   27  C2  UNL     1       3.399   0.905   1.078  1.00  0.00     0.136 A 
HETATM   28  C3  UNL     1       3.700   0.983   2.447  1.00  0.00     0.064 A 
HETATM   29  C4  UNL     1       4.098   2.172   3.016  1.00  0.00     0.091 A 
HETATM   30  N3  UNL     1       4.206   3.281   2.271  1.00  0.00    -0.373 N 
HETATM   31  C5  UNL     1       3.936   3.280   0.964  1.00  0.00     0.117 A 
ATOM     32  H3  UNL     1       4.503   4.150   2.715  1.00  0.00     0.164 HD
HETATM   33  C6  UNL     1       3.535   2.097   0.368  1.00  0.00     0.102 A 
HETATM   34  N4  UNL     1       3.270   2.111  -1.028  1.00  0.00    -0.097 NA
ENDBRANCH  26  27
ENDBRANCH  22  26
ENDBRANCH   1  22
TORSDOF 6
