REMARK  6 active torsions:
REMARK  status: ('A' for Active; 'I' for Inactive)
REMARK    1  A    between atoms: O1_1  and  C1_3 
REMARK    2  A    between atoms: C3_10  and  C4_11 
REMARK    3  A    between atoms: C4_11  and  C5_12 
REMARK    4  A    between atoms: C5_12  and  C6_13 
REMARK    5  A    between atoms: C6_13  and  O2_14 
REMARK    6  A    between atoms: O2_14  and  C7_15 
ROOT
HETATM    1  C1  UNL     1       4.537   0.580   0.347  1.00  0.00     0.165 A 
HETATM    2  N1  UNL     1       5.746   0.024   0.561  1.00  0.00    -0.312 N 
ATOM      3  H1  UNL     1       6.458   0.371   1.203  1.00  0.00     0.170 HD
HETATM    4  C2  UNL     1       5.850  -1.060  -0.214  1.00  0.00     0.178 A 
HETATM    5  S1  UNL     1       7.129  -2.081  -0.317  1.00  0.00    -0.040 SA
HETATM    6  N2  UNL     1       4.710  -1.196  -0.922  1.00  0.00    -0.333 N 
ATOM      7  H2  UNL     1       4.512  -1.937  -1.594  1.00  0.00     0.168 HD
HETATM    8  C3  UNL     1       3.876  -0.191  -0.594  1.00  0.00     0.062 A 
ENDROOT
BRANCH   8   9
HETATM    9  C4  UNL     1       2.523   0.114  -1.078  1.00  0.00     0.064 C 
BRANCH   9  10
HETATM   10  C5  UNL     1       1.437  -0.248  -0.086  1.00  0.00     0.032 C 
BRANCH  10  11
HETATM   11  C6  UNL     1       0.114   0.130  -0.744  1.00  0.00     0.168 C 
BRANCH  11  12
HETATM   12  O2  UNL     1      -0.884  -0.188   0.137  1.00  0.00    -0.386 OA
BRANCH  12  13
HETATM   13  C7  UNL     1      -2.161   0.108  -0.344  1.00  0.00     0.121 C 
HETATM   14  C8  UNL     1      -2.752   1.146   0.539  1.00  0.00     0.032 C 
HETATM   15  C9  UNL     1      -4.234   1.273   0.507  1.00  0.00     0.002 C 
HETATM   16  C10 UNL     1      -4.988   0.049   0.154  1.00  0.00     0.000 C 
HETATM   17  C11 UNL     1      -4.185  -1.209   0.358  1.00  0.00     0.002 C 
HETATM   18  C12 UNL     1      -2.915  -1.177  -0.444  1.00  0.00     0.032 C 
ENDBRANCH  12  13
ENDBRANCH  11  12
ENDBRANCH  10  11
ENDBRANCH   9  10
ENDBRANCH   8   9
BRANCH   1  19
HETATM   19  O1  UNL     1       4.064   1.723   0.972  1.00  0.00    -0.345 OA
ATOM     20  H1  UNL     1       3.212   2.115   0.821  1.00  0.00     0.219 HD
ENDBRANCH   1  19
TORSDOF 6
