REMARK  7 active torsions:
REMARK  status: ('A' for Active; 'I' for Inactive)
REMARK    1  A    between atoms: C3_5  and  C4_6 
REMARK    2  A    between atoms: N2_8  and  C5_9 
REMARK    3  A    between atoms: C5_9  and  C6_10 
REMARK    4  A    between atoms: C6_10  and  N3_11 
REMARK    5  A    between atoms: C13_18  and  C14_19 
REMARK    6  A    between atoms: C14_19  and  C15_20 
REMARK    7  A    between atoms: C15_20  and  N4_21 
ROOT
HETATM    1  C1  UNL     1       3.982  -2.448   0.976  1.00  0.00     0.155 C 
HETATM    2  N1  UNL     1       2.829  -2.029   0.206  1.00  0.00    -0.333 N 
HETATM    3  C2  UNL     1       2.352  -2.588  -0.989  1.00  0.00     0.244 C 
HETATM    4  O1  UNL     1       3.030  -3.143  -1.925  1.00  0.00    -0.271 OA
HETATM    5  C3  UNL     1       0.858  -2.401  -0.943  1.00  0.00     0.187 C 
HETATM    6  N2  UNL     1       0.683  -1.383   0.014  1.00  0.00    -0.356 N 
HETATM    7  C13 UNL     1       1.917  -0.902   0.495  1.00  0.00     0.190 C 
ENDROOT
BRANCH   6   8
HETATM    8  C5  UNL     1      -0.415  -0.510  -0.082  1.00  0.00     0.089 C 
BRANCH   8   9
HETATM    9  C6  UNL     1      -1.744  -1.192   0.179  1.00  0.00     0.281 C 
BRANCH   9  10
HETATM   10  N3  UNL     1      -2.855  -0.273   0.113  1.00  0.00    -0.067 N 
HETATM   11  C7  UNL     1      -3.927  -0.815  -0.701  1.00  0.00     0.272 C 
HETATM   12  C8  UNL     1      -2.515   1.021  -0.420  1.00  0.00     0.237 C 
HETATM   13  C9  UNL     1      -3.796   1.837  -0.487  1.00  0.00     0.028 C 
HETATM   14  C10 UNL     1      -4.449   2.015   0.853  1.00  0.00     0.003 C 
HETATM   15  C11 UNL     1      -3.635   1.253   1.880  1.00  0.00     0.028 C 
HETATM   16  C12 UNL     1      -3.393  -0.169   1.466  1.00  0.00     0.237 C 
ENDBRANCH   9  10
ENDBRANCH   8   9
ENDBRANCH   6   8
BRANCH   5  17
HETATM   17  C4  UNL     1       0.343  -3.726  -0.411  1.00  0.00     0.120 C 
HETATM   18 BR1  UNL     1       1.041  -4.096   1.347  1.00  0.00    -0.094 Br
ENDBRANCH   5  17
BRANCH   7  19
HETATM   19  C14 UNL     1       2.556   0.256  -0.176  1.00  0.00     0.066 C 
BRANCH  19  20
HETATM   20  C15 UNL     1       1.920   1.586  -0.078  1.00  0.00     0.125 C 
BRANCH  20  21
HETATM   21  N4  UNL     1       2.820   2.504  -0.824  1.00  0.00    -0.367 N 
HETATM   22  C16 UNL     1       3.842   3.039  -0.291  1.00  0.00     0.196 C 
HETATM   23  N5  UNL     1       4.630   3.900  -1.104  1.00  0.00    -0.067 NA
HETATM   24  N6  UNL     1       4.170   2.783   1.057  1.00  0.00    -0.067 NA
ATOM     25  H4  UNL     1       2.609   2.712  -1.800  1.00  0.00     0.161 HD
ENDBRANCH  20  21
ENDBRANCH  19  20
ENDBRANCH   7  19
TORSDOF 7
