REMARK  2 active torsions:
REMARK  status: ('A' for Active; 'I' for Inactive)
REMARK    1  A    between atoms: C9_12  and  N2_13 
REMARK    2  A    between atoms: N2_13  and  O1_15 
ROOT
HETATM    1  C1  UNL     1      -2.908   0.398  -0.909  1.00  0.00     0.027 C 
HETATM    2  C2  UNL     1      -2.176   0.224   0.413  1.00  0.00     0.011 C 
HETATM    3  C3  UNL     1      -3.230   0.084   1.501  1.00  0.00     0.027 C 
HETATM    4  C4  UNL     1      -1.373  -1.039   0.403  1.00  0.00     0.021 C 
HETATM    5  C5  UNL     1      -0.197  -1.016  -0.530  1.00  0.00     0.006 C 
HETATM    6  C6  UNL     1       1.076  -0.892   0.274  1.00  0.00     0.044 C 
HETATM    7  C7  UNL     1       1.945   0.243  -0.239  1.00  0.00     0.014 A 
HETATM    8  C8  UNL     1       1.604   1.472  -0.663  1.00  0.00     0.096 A 
HETATM    9  N1  UNL     1       2.586   2.278  -1.064  1.00  0.00    -0.318 N 
ATOM     10  H1  UNL     1       2.511   3.234  -1.413  1.00  0.00     0.175 HD
HETATM   11  S1  UNL     1       3.975   1.357  -0.862  1.00  0.00     0.007 SA
HETATM   12  C9  UNL     1       3.279  -0.068  -0.259  1.00  0.00     0.120 A 
HETATM   13  S2  UNL     1      -0.012   2.319  -0.815  1.00  0.00    -0.038 SA
HETATM   14  S3  UNL     1      -1.184   1.680   0.826  1.00  0.00    -0.082 SA
ENDROOT
BRANCH  12  15
HETATM   15  N2  UNL     1       3.844  -1.195   0.105  1.00  0.00    -0.261 N 
ATOM     16  H2  UNL     1       3.298  -1.982   0.455  1.00  0.00     0.195 HD
BRANCH  15  17
HETATM   17  O1  UNL     1       5.222  -1.258  -0.012  1.00  0.00    -0.289 OA
ATOM     18  H1  UNL     1       5.631  -2.074   0.252  1.00  0.00     0.244 HD
ENDBRANCH  15  17
ENDBRANCH  12  15
TORSDOF 2
