REMARK  3 active torsions:
REMARK  status: ('A' for Active; 'I' for Inactive)
REMARK    1  A    between atoms: C8_8  and  O1_9 
REMARK    2  A    between atoms: O1_9  and  O2_10 
REMARK    3  A    between atoms: C11_16  and  O5_17 
ROOT
HETATM    1  C1  UNL     1      -3.932  -1.115  -0.685  1.00  0.00     0.014 C 
HETATM    2  C2  UNL     1      -2.447  -0.824  -0.742  1.00  0.00     0.006 C 
HETATM    3  C3  UNL     1      -2.373   0.738  -0.660  1.00  0.00     0.008 C 
HETATM    4  C4  UNL     1      -1.041   0.940  -0.146  1.00  0.00     0.005 C 
HETATM    5  C5  UNL     1      -0.017   1.889   0.047  1.00  0.00    -0.010 C 
HETATM    6  C6  UNL     1       1.064   2.016  -1.052  1.00  0.00     0.010 C 
HETATM    7  C7  UNL     1       1.537   0.688  -1.571  1.00  0.00     0.075 C 
HETATM    8  C8  UNL     1       1.894  -0.362  -0.557  1.00  0.00     0.236 C 
HETATM    9  O3  UNL     1       1.588  -1.644  -0.919  1.00  0.00    -0.192 OA
HETATM   10  O4  UNL     1       0.448  -2.159  -0.829  1.00  0.00    -0.197 OA
HETATM   11  C9  UNL     1      -0.315  -1.971   0.292  1.00  0.00     0.110 C 
HETATM   12  C10 UNL     1      -1.716  -1.599   0.255  1.00  0.00     0.016 C 
HETATM   13  C11 UNL     1       0.578  -1.293   1.353  1.00  0.00     0.187 C 
HETATM   14  C12 UNL     1       1.381  -0.109   0.818  1.00  0.00     0.093 C 
HETATM   15  C13 UNL     1       0.874   1.247   1.152  1.00  0.00    -0.002 C 
HETATM   16  C14 UNL     1       1.850   2.223   1.682  1.00  0.00     0.011 C 
ENDROOT
BRANCH   8  17
HETATM   17  O1  UNL     1       3.324  -0.369  -0.553  1.00  0.00    -0.200 OA
BRANCH  17  18
HETATM   18  O2  UNL     1       3.794  -0.664  -1.722  1.00  0.00    -0.247 OA
ATOM     19  H2  UNL     1       4.744  -0.669  -1.719  1.00  0.00     0.253 HD
ENDBRANCH  17  18
ENDBRANCH   8  17
BRANCH  13  20
HETATM   20  O5  UNL     1       1.503  -2.247   1.867  1.00  0.00    -0.388 OA
ATOM     21  H5  UNL     1       2.053  -1.830   2.520  1.00  0.00     0.210 HD
ENDBRANCH  13  20
TORSDOF 3
