REMARK  10 active torsions:
REMARK  status: ('A' for Active; 'I' for Inactive)
REMARK    1  A    between atoms: C3_3  and  N1_4 
REMARK    2  A    between atoms: N1_4  and  C4_5 
REMARK    3  A    between atoms: C4_5  and  C5_6 
REMARK    4  A    between atoms: C6_7  and  C7_8 
REMARK    5  A    between atoms: C8_9  and  C9_10 
REMARK    6  A    between atoms: C10_11  and  S1_12 
REMARK    7  A    between atoms: S1_12  and  N2_14 
REMARK    8  A    between atoms: S1_12  and  N3_20 
REMARK    9  A    between atoms: N2_14  and  C11_16 
REMARK   10  A    between atoms: C11_16  and  C12_17 
ROOT
HETATM    1  C1  UNL     1       8.509   0.717  -1.685  1.00  0.00     0.013 C 
HETATM    2  C2  UNL     1       7.865   0.398  -0.721  1.00  0.00    -0.089 C 
HETATM    3  C3  UNL     1       7.093  -0.001   0.474  1.00  0.00     0.331 C 
ENDROOT
BRANCH   3   4
HETATM    4  N1  UNL     1       6.092  -0.999   0.071  1.00  0.00    -0.044 N 
HETATM    5  C16 UNL     1       6.625  -2.076  -0.834  1.00  0.00     0.267 A 
HETATM    6  C17 UNL     1       5.709  -1.081  -1.308  1.00  0.00     0.267 A 
BRANCH   4   7
HETATM    7  C4  UNL     1       5.181  -1.438   1.093  1.00  0.00     0.332 C 
BRANCH   7   8
HETATM    8  C5  UNL     1       3.818  -0.954   0.859  1.00  0.00    -0.074 C 
HETATM    9  C6  UNL     1       2.696  -0.552   0.644  1.00  0.00    -0.076 C 
BRANCH   9  10
HETATM   10  C7  UNL     1       1.377  -0.068   0.364  1.00  0.00     0.073 C 
HETATM   11  C8  UNL     1       0.425   0.031   1.283  1.00  0.00     0.074 C 
BRANCH  11  12
HETATM   12  C9  UNL     1      -0.876   0.522   0.946  1.00  0.00    -0.062 C 
HETATM   13  C10 UNL     1      -1.976   0.964   0.658  1.00  0.00     0.026 C 
BRANCH  13  14
HETATM   14  S1  UNL     1      -3.804   1.743   0.192  1.00  0.00     0.164 S 
HETATM   15  O1  UNL     1      -3.288   2.547  -1.126  1.00  0.00    -0.220 OA
BRANCH  14  16
HETATM   16  N2  UNL     1      -4.696   0.582  -0.958  1.00  0.00    -0.304 N 
ATOM     17  H2  UNL     1      -4.480  -0.415  -0.944  1.00  0.00     0.176 HD
BRANCH  16  18
HETATM   18  C11 UNL     1      -5.654   1.072  -1.834  1.00  0.00     0.117 C 
BRANCH  18  19
HETATM   19  C12 UNL     1      -6.235  -0.045  -2.647  1.00  0.00     0.017 C 
HETATM   20  C13 UNL     1      -7.535  -0.322  -2.605  1.00  0.00     0.033 C 
HETATM   21 BR1  UNL     1      -5.084  -1.083  -3.757  1.00  0.00    -0.051 Br
ENDBRANCH  18  19
ENDBRANCH  16  18
ENDBRANCH  14  16
BRANCH  14  22
HETATM   22  N3  UNL     1      -4.659   0.950   1.532  1.00  0.00    -0.226 NA
HETATM   23  C14 UNL     1      -4.496  -0.487   1.695  1.00  0.00     0.128 C 
HETATM   24  C15 UNL     1      -4.579   1.459   2.892  1.00  0.00     0.128 C 
ENDBRANCH  14  22
ENDBRANCH  13  14
ENDBRANCH  11  12
ENDBRANCH   9  10
ENDBRANCH   7   8
ENDBRANCH   4   7
ENDBRANCH   3   4
TORSDOF 10
