REMARK  14 active torsions:
REMARK  status: ('A' for Active; 'I' for Inactive)
REMARK    1  A    between atoms: C2_2  and  C3_3 
REMARK    2  A    between atoms: C3_3  and  C4_4 
REMARK    3  A    between atoms: C4_4  and  C5_5 
REMARK    4  A    between atoms: C5_5  and  C6_6 
REMARK    5  A    between atoms: C9_9  and  S1_10 
REMARK    6  A    between atoms: S1_10  and  C10_11 
REMARK    7  A    between atoms: C11_13  and  O2_14 
REMARK    8  A    between atoms: O2_14  and  C12_15 
REMARK    9  A    between atoms: C14_18  and  O4_19 
REMARK   10  A    between atoms: C16_22  and  O5_23 
REMARK   11  A    between atoms: C17_25  and  O6_26 
REMARK   12  A    between atoms: C18_28  and  O7_29 
REMARK   13  A    between atoms: C19_31  and  C20_32 
REMARK   14  A    between atoms: C20_32  and  O8_33 
ROOT
HETATM    1  C10 UNL     1       0.675   0.890   2.130  1.00  0.00     0.195 C 
HETATM    2  O1  UNL     1       1.099   0.010   1.138  1.00  0.00    -0.342 OA
HETATM    3  C11 UNL     1       2.449  -0.186   1.242  1.00  0.00     0.295 C 
HETATM    4  C17 UNL     1       3.230   1.056   1.608  1.00  0.00     0.202 C 
HETATM    5  C18 UNL     1       2.445   2.255   1.181  1.00  0.00     0.161 C 
HETATM    6  C19 UNL     1       1.134   2.301   1.905  1.00  0.00     0.080 C 
ENDROOT
BRANCH   1   7
HETATM    7  S1  UNL     1      -1.115   0.807   2.413  1.00  0.00    -0.130 SA
BRANCH   7   8
HETATM    8  C9  UNL     1      -2.041   1.384   0.977  1.00  0.00     0.076 C 
HETATM    9  C8  UNL     1      -1.866   0.451  -0.224  1.00  0.00     0.055 C 
HETATM   10  C5  UNL     1      -3.208  -0.170  -0.324  1.00  0.00     0.061 C 
HETATM   11  O9  UNL     1      -4.128   0.747   0.170  1.00  0.00    -0.379 OA
HETATM   12  C21 UNL     1      -3.509   1.406   1.225  1.00  0.00     0.184 C 
BRANCH  10  13
HETATM   13  C4  UNL     1      -3.605  -0.656  -1.659  1.00  0.00     0.038 C 
BRANCH  13  14
HETATM   14  C3  UNL     1      -3.610   0.278  -2.794  1.00  0.00     0.002 C 
BRANCH  14  15
HETATM   15  C2  UNL     1      -4.544   1.448  -2.621  1.00  0.00    -0.004 C 
HETATM   16  C1  UNL     1      -5.972   1.020  -2.437  1.00  0.00     0.005 C 
ENDBRANCH  14  15
ENDBRANCH  13  14
ENDBRANCH  10  13
BRANCH  10  17
HETATM   17  C6  UNL     1      -3.286  -1.374   0.637  1.00  0.00     0.033 C 
HETATM   18  C7  UNL     1      -4.695  -1.919   0.675  1.00  0.00     0.008 C 
ENDBRANCH  10  17
ENDBRANCH   7   8
ENDBRANCH   1   7
BRANCH   6  19
HETATM   19  C20 UNL     1       1.199   3.097   3.189  1.00  0.00     0.174 C 
BRANCH  19  20
HETATM   20  O8  UNL     1       1.633   4.381   2.866  1.00  0.00    -0.400 OA
ATOM     21  H8  UNL     1       1.674   4.881   3.673  1.00  0.00     0.209 HD
ENDBRANCH  19  20
ENDBRANCH   6  19
BRANCH   3  22
HETATM   22  O2  UNL     1       3.031  -0.702   0.094  1.00  0.00    -0.326 OA
BRANCH  22  23
HETATM   23  C12 UNL     1       3.632  -1.922   0.254  1.00  0.00     0.291 C 
HETATM   24  O3  UNL     1       5.008  -1.749   0.014  1.00  0.00    -0.356 OA
HETATM   25  C13 UNL     1       5.103  -1.218  -1.276  1.00  0.00     0.202 C 
HETATM   26  C14 UNL     1       4.896  -2.367  -2.237  1.00  0.00     0.144 C 
HETATM   27  C15 UNL     1       3.521  -2.911  -2.053  1.00  0.00     0.070 C 
HETATM   28  C16 UNL     1       3.055  -2.991  -0.646  1.00  0.00     0.175 C 
BRANCH  26  29
HETATM   29  O4  UNL     1       5.906  -3.301  -2.076  1.00  0.00    -0.393 OA
ATOM     30  H4  UNL     1       5.776  -4.023  -2.680  1.00  0.00     0.210 HD
ENDBRANCH  26  29
BRANCH  28  31
HETATM   31  O5  UNL     1       3.246  -4.265  -0.132  1.00  0.00    -0.391 OA
ATOM     32  H5  UNL     1       2.883  -4.937  -0.698  1.00  0.00     0.210 HD
ENDBRANCH  28  31
ENDBRANCH  22  23
ENDBRANCH   3  22
BRANCH   5  33
HETATM   33  O7  UNL     1       3.191   3.424   1.345  1.00  0.00    -0.392 OA
ATOM     34  H7  UNL     1       2.692   4.186   1.074  1.00  0.00     0.210 HD
ENDBRANCH   5  33
BRANCH   4  35
HETATM   35  O6  UNL     1       3.560   1.082   2.962  1.00  0.00    -0.388 OA
ATOM     36  H6  UNL     1       4.051   1.862   3.192  1.00  0.00     0.210 HD
ENDBRANCH   4  35
TORSDOF 14
