REMARK  4 active torsions:
REMARK  status: ('A' for Active; 'I' for Inactive)
REMARK    1  A    between atoms: C2_2  and  N1_4 
REMARK    2  A    between atoms: C6_10  and  C7_11 
REMARK    3  A    between atoms: C7_11  and  O1_12 
REMARK    4  A    between atoms: O1_12  and  C8_13 
ROOT
HETATM    1  N1  UNL     1      -1.997  -0.475   0.118  1.00  0.00    -0.366 N 
HETATM    2  C4  UNL     1      -2.362  -0.161  -1.196  1.00  0.00     0.091 C 
HETATM    3  C5  UNL     1      -1.319   0.578  -1.995  1.00  0.00     0.278 C 
HETATM    4  N2  UNL     1       0.022   0.116  -1.708  1.00  0.00    -0.060 N 
ATOM      5  H21 UNL     1       0.727   0.567  -2.290  1.00  0.00     0.278 HD
ATOM      6  H22 UNL     1       0.183  -0.843  -2.016  1.00  0.00     0.278 HD
HETATM    7  C6  UNL     1       0.263   0.295  -0.309  1.00  0.00     0.248 C 
HETATM    8  C11 UNL     1      -0.639  -0.686   0.433  1.00  0.00     0.098 C 
ENDROOT
BRANCH   7   9
HETATM    9  C7  UNL     1       1.671  -0.062   0.099  1.00  0.00     0.216 C 
BRANCH   9  10
HETATM   10  O1  UNL     1       2.665   0.682  -0.533  1.00  0.00    -0.331 OA
BRANCH  10  11
HETATM   11  C8  UNL     1       3.989   0.416  -0.222  1.00  0.00     0.178 A 
HETATM   12  N3  UNL     1       4.432  -0.522   0.660  1.00  0.00    -0.331 N 
HETATM   13  C9  UNL     1       5.778  -0.506   0.714  1.00  0.00     0.183 A 
ATOM     14  H3  UNL     1       3.833  -1.145   1.201  1.00  0.00     0.168 HD
HETATM   15  N4  UNL     1       6.197   0.444  -0.135  1.00  0.00    -0.343 N 
HETATM   16  C10 UNL     1       5.122   1.014  -0.713  1.00  0.00     0.132 A 
ATOM     17  H4  UNL     1       7.170   0.694  -0.314  1.00  0.00     0.167 HD
HETATM   18 BR1  UNL     1       5.123   2.432  -2.015  1.00  0.00    -0.027 Br
ENDBRANCH  10  11
ENDBRANCH   9  10
ENDBRANCH   7   9
BRANCH   1  19
HETATM   19  C2  UNL     1      -2.904  -0.257   1.172  1.00  0.00     0.080 C 
HETATM   20  C1  UNL     1      -4.149  -1.117   0.995  1.00  0.00     0.032 C 
HETATM   21  C3  UNL     1      -3.353   1.155   1.364  1.00  0.00     0.032 C 
ENDBRANCH   1  19
TORSDOF 4
