REMARK  5 active torsions:
REMARK  status: ('A' for Active; 'I' for Inactive)
REMARK    1  A    between atoms: C2_2  and  C3_3 
REMARK    2  A    between atoms: C3_3  and  C4_5 
REMARK    3  A    between atoms: C4_5  and  N1_6 
REMARK    4  A    between atoms: N1_6  and  C5_8 
REMARK    5  A    between atoms: C6_13  and  C7_14 
ROOT
HETATM    1  C5  UNL     1      -0.040   1.086   0.211  1.00  0.00     0.165 A 
HETATM    2  N2  UNL     1       0.600   0.027   0.723  1.00  0.00    -0.279 N 
ATOM      3  H2  UNL     1       0.156  -0.557   1.432  1.00  0.00     0.189 HD
HETATM    4  N3  UNL     1       1.769  -0.235   0.308  1.00  0.00    -0.289 N 
ATOM      5  H3  UNL     1       2.268  -1.039   0.689  1.00  0.00     0.188 HD
HETATM    6  C6  UNL     1       2.353   0.516  -0.611  1.00  0.00     0.138 A 
HETATM    7  S1  UNL     1       1.113   1.690  -0.892  1.00  0.00    -0.030 SA
ENDROOT
BRANCH   1   8
HETATM    8  N1  UNL     1      -1.242   1.530   0.498  1.00  0.00    -0.344 N 
ATOM      9  H1  UNL     1      -1.627   2.356   0.040  1.00  0.00     0.167 HD
BRANCH   8  10
HETATM   10  C4  UNL     1      -1.981   0.813   1.471  1.00  0.00     0.114 C 
BRANCH  10  11
HETATM   11  C3  UNL     1      -3.015   0.062   1.133  1.00  0.00     0.048 C 
HETATM   12 CL1  UNL     1      -3.887  -0.797   2.377  1.00  0.00    -0.083 Cl
BRANCH  11  13
HETATM   13  C2  UNL     1      -3.456  -0.075  -0.249  1.00  0.00     0.015 C 
HETATM   14  C1  UNL     1      -4.499  -0.847  -0.496  1.00  0.00     0.013 C 
ENDBRANCH  11  13
ENDBRANCH  10  11
ENDBRANCH   8  10
ENDBRANCH   1   8
BRANCH   6  15
HETATM   15  C7  UNL     1       3.675   0.400  -1.225  1.00  0.00     0.180 C 
HETATM   16  C8  UNL     1       4.564  -0.692  -0.821  1.00  0.00     0.099 C 
HETATM   17  O1  UNL     1       4.010   1.235  -2.078  1.00  0.00    -0.291 OA
ENDBRANCH   6  15
TORSDOF 5
