REMARK  10 active torsions:
REMARK  status: ('A' for Active; 'I' for Inactive)
REMARK    1  A    between atoms: C2_2  and  C3_3 
REMARK    2  A    between atoms: C3_3  and  O1_4 
REMARK    3  A    between atoms: C3_3  and  C4_6 
REMARK    4  A    between atoms: C4_6  and  N1_7 
REMARK    5  A    between atoms: N1_7  and  C5_9 
REMARK    6  A    between atoms: C7_11  and  N2_12 
REMARK    7  A    between atoms: N2_12  and  S1_14 
REMARK    8  A    between atoms: C14_22  and  C15_23 
REMARK    9  A    between atoms: N3_28  and  C19_29 
REMARK   10  A    between atoms: C21_31  and  C22_32 
ROOT
HETATM    1  C5  UNL     1       0.078   0.189   0.311  1.00  0.00     0.042 A 
HETATM    2  C6  UNL     1       1.248   0.119  -0.408  1.00  0.00     0.060 A 
HETATM    3  C7  UNL     1       1.741  -1.095  -0.894  1.00  0.00     0.041 A 
HETATM    4  C12 UNL     1       1.035  -2.230  -0.643  1.00  0.00     0.031 A 
HETATM    5  C13 UNL     1      -0.142  -2.156   0.082  1.00  0.00     0.014 A 
HETATM    6  C14 UNL     1      -0.666  -0.981   0.583  1.00  0.00    -0.006 A 
ENDROOT
BRANCH   6   7
HETATM    7  C15 UNL     1      -1.867  -0.898   1.373  1.00  0.00     0.145 C 
HETATM    8  C16 UNL     1      -2.189  -2.240   2.104  1.00  0.00     0.198 C 
HETATM    9  O3  UNL     1      -3.430  -2.110   2.726  1.00  0.00    -0.387 OA
HETATM   10  C17 UNL     1      -3.868  -0.811   2.933  1.00  0.00     0.187 C 
HETATM   11  C18 UNL     1      -4.113  -0.047   1.610  1.00  0.00     0.152 C 
HETATM   12  N3  UNL     1      -3.130  -0.664   0.712  1.00  0.00    -0.347 N 
BRANCH  12  13
HETATM   13  C19 UNL     1      -3.503  -1.004  -0.602  1.00  0.00     0.171 A 
HETATM   14  C20 UNL     1      -4.832  -1.091  -1.068  1.00  0.00     0.094 A 
HETATM   15  C21 UNL     1      -4.789  -1.453  -2.378  1.00  0.00     0.142 A 
HETATM   16  N4  UNL     1      -3.488  -1.569  -2.662  1.00  0.00    -0.254 N 
HETATM   17  O4  UNL     1      -2.765  -1.307  -1.629  1.00  0.00    -0.220 OA
ATOM     18  H4  UNL     1      -3.117  -1.830  -3.576  1.00  0.00     0.195 HD
BRANCH  15  19
HETATM   19  C22 UNL     1      -6.005  -1.675  -3.208  1.00  0.00     0.434 C 
HETATM   20  F1  UNL     1      -6.958  -0.737  -2.871  1.00  0.00    -0.165 F 
HETATM   21  F2  UNL     1      -6.499  -2.966  -3.028  1.00  0.00    -0.165 F 
HETATM   22  F3  UNL     1      -5.646  -1.483  -4.507  1.00  0.00    -0.165 F 
ENDBRANCH  15  19
ENDBRANCH  12  13
ENDBRANCH   6   7
BRANCH   1  23
HETATM   23  N1  UNL     1      -0.381   1.452   0.764  1.00  0.00    -0.366 N 
ATOM     24  H1  UNL     1      -1.330   1.443   1.138  1.00  0.00     0.165 HD
BRANCH  23  25
HETATM   25  C4  UNL     1       0.238   2.714   0.790  1.00  0.00     0.092 C 
BRANCH  25  26
HETATM   26  C3  UNL     1       0.580   3.443  -0.443  1.00  0.00     0.156 C 
BRANCH  26  27
HETATM   27  C2  UNL     1       1.021   4.892  -0.038  1.00  0.00     0.032 C 
HETATM   28  C1  UNL     1      -0.093   5.557   0.721  1.00  0.00     0.008 C 
ENDBRANCH  26  27
BRANCH  26  29
HETATM   29  O1  UNL     1      -0.568   3.633  -1.230  1.00  0.00    -0.390 OA
ATOM     30  H1  UNL     1      -0.835   2.755  -1.475  1.00  0.00     0.210 HD
ENDBRANCH  26  29
ENDBRANCH  25  26
ENDBRANCH  23  25
ENDBRANCH   1  23
BRANCH   3  31
HETATM   31  N2  UNL     1       3.003  -1.095  -1.624  1.00  0.00    -0.317 N 
ATOM     32  H2  UNL     1       3.113  -0.614  -2.517  1.00  0.00     0.175 HD
BRANCH  31  33
HETATM   33  S1  UNL     1       4.144  -1.857  -0.971  1.00  0.00     0.025 S 
HETATM   34  O2  UNL     1       3.722  -3.251  -0.652  1.00  0.00    -0.250 OA
HETATM   35  C8  UNL     1       5.684  -1.824  -1.903  1.00  0.00     0.117 C 
HETATM   36  C9  UNL     1       6.567  -2.309  -0.741  1.00  0.00     0.014 C 
HETATM   37  C10 UNL     1       6.269  -1.463   0.456  1.00  0.00     0.014 C 
HETATM   38  C11 UNL     1       4.816  -1.077   0.499  1.00  0.00     0.117 C 
ENDBRANCH  31  33
ENDBRANCH   3  31
TORSDOF 10
