REMARK  3 active torsions:
REMARK  status: ('A' for Active; 'I' for Inactive)
REMARK    1  A    between atoms: N1_2  and  C3_4 
REMARK    2  A    between atoms: C4_5  and  C5_6 
REMARK    3  A    between atoms: N2_7  and  N3_9 
ROOT
HETATM    1  N3  UNL     1       1.509   0.348  -0.269  1.00  0.00    -0.328 N 
HETATM    2  C6  UNL     1       2.245  -0.563  -1.124  1.00  0.00     0.148 C 
HETATM    3  C7  UNL     1       3.362  -1.133  -0.273  1.00  0.00     0.073 C 
HETATM    4  C8  UNL     1       4.215   0.018   0.137  1.00  0.00    -0.017 C 
HETATM    5  N4  UNL     1       5.452  -0.215   0.372  1.00  0.00    -0.405 N 
ATOM      6  H41 UNL     1       6.036   0.573   0.653  1.00  0.00     0.155 HD
ATOM      7  H42 UNL     1       5.829  -1.158   0.278  1.00  0.00     0.155 HD
HETATM    8  C9  UNL     1       3.673   1.374   0.272  1.00  0.00     0.073 C 
HETATM    9  C10 UNL     1       2.175   1.411   0.433  1.00  0.00     0.148 C 
ENDROOT
BRANCH   1  10
HETATM   10  N2  UNL     1       0.148   0.176  -0.139  1.00  0.00    -0.314 N 
HETATM   11  C5  UNL     1      -0.592  -0.132  -1.135  1.00  0.00     0.108 C 
ATOM     12  H2  UNL     1      -0.281   0.298   0.778  1.00  0.00     0.185 HD
BRANCH  11  13
HETATM   13  C4  UNL     1      -2.006  -0.304  -0.963  1.00  0.00     0.035 C 
HETATM   14  C3  UNL     1      -2.548  -0.144   0.224  1.00  0.00     0.086 C 
BRANCH  14  15
HETATM   15  N1  UNL     1      -3.943  -0.304   0.441  1.00  0.00    -0.398 N 
HETATM   16  C1  UNL     1      -4.446  -1.646   0.640  1.00  0.00     0.148 C 
HETATM   17  C2  UNL     1      -4.796   0.866   0.455  1.00  0.00     0.148 C 
ENDBRANCH  14  15
ENDBRANCH  11  13
ENDBRANCH   1  10
TORSDOF 3
