REMARK  8 active torsions:
REMARK  status: ('A' for Active; 'I' for Inactive)
REMARK    1  A    between atoms: N1_1  and  C1_4 
REMARK    2  A    between atoms: N3_8  and  C3_10 
REMARK    3  A    between atoms: C3_10  and  C4_11 
REMARK    4  A    between atoms: C4_11  and  C5_12 
REMARK    5  A    between atoms: C5_12  and  C6_13 
REMARK    6  A    between atoms: C6_13  and  C7_14 
REMARK    7  A    between atoms: C7_14  and  C8_15 
REMARK    8  A    between atoms: C8_15  and  N4_16 
ROOT
HETATM    1  C1  UNL     1       3.698   0.576   0.581  1.00  0.00     0.157 A 
HETATM    2  N2  UNL     1       2.659  -0.115   0.017  1.00  0.00    -0.173 N 
ATOM      3  H2  UNL     1       1.953  -0.564   0.601  1.00  0.00     0.186 HD
HETATM    4  C2  UNL     1       2.591  -0.187  -1.309  1.00  0.00     0.694 A 
HETATM    5  N3  UNL     1       1.658  -0.810  -1.897  1.00  0.00    -0.225 N 
ATOM      6  H3  UNL     1       1.655  -0.835  -2.917  1.00  0.00     0.177 HD
HETATM    7  N5  UNL     1       3.526   0.408  -2.068  1.00  0.00    -0.131 N 
ATOM      8  H5  UNL     1       3.452   0.339  -3.083  1.00  0.00     0.205 HD
HETATM    9  N6  UNL     1       4.543   1.083  -1.544  1.00  0.00    -0.270 N 
ATOM     10  H6  UNL     1       5.236   1.522  -2.150  1.00  0.00     0.189 HD
HETATM   11  C9  UNL     1       4.651   1.182  -0.202  1.00  0.00     0.175 A 
HETATM   12  N7  UNL     1       5.720   1.894   0.423  1.00  0.00    -0.077 NA
ENDROOT
BRANCH   5  13
HETATM   13  C3  UNL     1       0.607  -1.481  -1.191  1.00  0.00     0.138 C 
BRANCH  13  14
HETATM   14  C4  UNL     1      -0.445  -0.456  -0.822  1.00  0.00     0.020 C 
BRANCH  14  15
HETATM   15  C5  UNL     1      -1.545  -1.181  -0.075  1.00  0.00     0.002 C 
BRANCH  15  16
HETATM   16  C6  UNL     1      -2.594  -0.153   0.292  1.00  0.00     0.002 C 
BRANCH  16  17
HETATM   17  C7  UNL     1      -3.745  -0.785   1.048  1.00  0.00     0.027 C 
BRANCH  17  18
HETATM   18  C8  UNL     1      -4.740   0.309   1.372  1.00  0.00     0.229 C 
BRANCH  18  19
HETATM   19  N4  UNL     1      -5.243   0.939   0.186  1.00  0.00    -0.079 N 
ATOM     20  H43 UNL     1      -4.484   1.288  -0.399  1.00  0.00     0.274 HD
ATOM     21  H42 UNL     1      -5.640   0.255  -0.458  1.00  0.00     0.274 HD
ATOM     22  H41 UNL     1      -5.913   1.676   0.404  1.00  0.00     0.274 HD
ENDBRANCH  18  19
ENDBRANCH  17  18
ENDBRANCH  16  17
ENDBRANCH  15  16
ENDBRANCH  14  15
ENDBRANCH  13  14
ENDBRANCH   5  13
BRANCH   1  23
HETATM   23  N1  UNL     1       3.762   0.645   1.870  1.00  0.00    -0.382 N 
ATOM     24  H12 UNL     1       3.055   0.195   2.451  1.00  0.00     0.157 HD
ATOM     25  H11 UNL     1       4.536   1.160   2.290  1.00  0.00     0.157 HD
ENDBRANCH   1  23
TORSDOF 8
