REMARK  6 active torsions:
REMARK  status: ('A' for Active; 'I' for Inactive)
REMARK    1  A    between atoms: N1_1  and  C1_4 
REMARK    2  A    between atoms: C2_7  and  O1_8 
REMARK    3  A    between atoms: O1_8  and  C3_9 
REMARK    4  A    between atoms: C3_9  and  C4_10 
REMARK    5  A    between atoms: C7_15  and  N4_16 
REMARK    6  A    between atoms: N4_16  and  C8_18 
ROOT
HETATM    1  C1  UNL     1       1.113   2.199  -0.519  1.00  0.00     0.123 A 
HETATM    2  N2  UNL     1       1.760   1.034  -0.498  1.00  0.00    -0.307 N 
ATOM      3  H2  UNL     1       2.761   1.019  -0.695  1.00  0.00     0.171 HD
HETATM    4  C2  UNL     1       1.133  -0.118  -0.225  1.00  0.00     0.226 A 
HETATM    5  N3  UNL     1      -0.204  -0.080   0.037  1.00  0.00    -0.307 N 
ATOM      6  H3  UNL     1      -0.684  -0.955   0.246  1.00  0.00     0.171 HD
HETATM    7  C7  UNL     1      -0.912   1.048   0.033  1.00  0.00     0.127 A 
HETATM    8  C12 UNL     1      -0.237   2.240  -0.255  1.00  0.00     0.098 A 
HETATM    9 BR1  UNL     1      -1.160   3.909  -0.286  1.00  0.00    -0.043 Br
ENDROOT
BRANCH   7  10
HETATM   10  N4  UNL     1      -2.288   1.124   0.315  1.00  0.00    -0.349 N 
ATOM     11  H4  UNL     1      -2.720   2.048   0.316  1.00  0.00     0.163 HD
BRANCH  10  12
HETATM   12  C8  UNL     1      -3.123   0.004   0.600  1.00  0.00     0.221 C 
HETATM   13  C9  UNL     1      -3.381  -0.916  -0.565  1.00  0.00     0.056 C 
HETATM   14  C10 UNL     1      -4.698  -1.570  -0.113  1.00  0.00     0.031 C 
HETATM   15  C11 UNL     1      -5.328  -0.462   0.652  1.00  0.00     0.170 C 
HETATM   16  O2  UNL     1      -4.358   0.372   1.118  1.00  0.00    -0.367 OA
ENDBRANCH  10  12
ENDBRANCH   7  10
BRANCH   4  17
HETATM   17  O1  UNL     1       1.806  -1.313  -0.205  1.00  0.00    -0.321 OA
BRANCH  17  18
HETATM   18  C3  UNL     1       3.168  -1.498  -0.452  1.00  0.00     0.183 C 
BRANCH  18  19
HETATM   19  C4  UNL     1       3.973  -0.718   0.557  1.00  0.00     0.010 A 
HETATM   20  C5  UNL     1       5.481  -0.864   0.397  1.00  0.00     0.007 A 
HETATM   21  C6  UNL     1       4.859   0.430   0.040  1.00  0.00     0.007 A 
ENDBRANCH  18  19
ENDBRANCH  17  18
ENDBRANCH   4  17
BRANCH   1  22
HETATM   22  N1  UNL     1       1.737   3.311  -0.787  1.00  0.00    -0.384 N 
ATOM     23  H12 UNL     1       2.738   3.281  -0.983  1.00  0.00     0.157 HD
ATOM     24  H11 UNL     1       1.242   4.203  -0.803  1.00  0.00     0.157 HD
ENDBRANCH   1  22
TORSDOF 6
