REMARK  3 active torsions:
REMARK  status: ('A' for Active; 'I' for Inactive)
REMARK    1  A    between atoms: C2_2  and  O2_4 
REMARK    2  A    between atoms: O2_4  and  C3_5 
REMARK    3  A    between atoms: C9_12  and  O3_13 
ROOT
HETATM    1  C3  UNL     1       1.817   0.051   0.407  1.00  0.00     0.067 C 
HETATM    2  C4  UNL     1       2.175   0.170   1.860  1.00  0.00     0.047 C 
HETATM    3  C5  UNL     1       1.452  -1.381   0.113  1.00  0.00     0.040 C 
HETATM    4  C6  UNL     1       0.228  -1.340  -0.783  1.00  0.00     0.023 C 
HETATM    5  C7  UNL     1      -0.954  -0.938   0.118  1.00  0.00     0.011 C 
HETATM    6  C8  UNL     1      -0.923  -1.945   1.267  1.00  0.00     0.027 C 
HETATM    7  S1  UNL     1      -2.414  -1.223  -0.836  1.00  0.00    -0.128 SA
HETATM    8  C9  UNL     1      -3.861  -0.303  -0.420  1.00  0.00     0.180 C 
HETATM    9  C10 UNL     1      -3.766   1.086  -1.005  1.00  0.00     0.042 C 
HETATM   10  C11 UNL     1      -2.268   1.391  -1.134  1.00  0.00     0.004 C 
HETATM   11  C12 UNL     1      -1.721   1.466   0.246  1.00  0.00     0.006 C 
HETATM   12  C13 UNL     1      -0.684   0.430   0.584  1.00  0.00     0.007 C 
HETATM   13  C14 UNL     1       0.648   0.986   0.152  1.00  0.00     0.044 C 
ENDROOT
BRANCH   1  14
HETATM   14  O2  UNL     1       2.805   0.464  -0.472  1.00  0.00    -0.311 OA
BRANCH  14  15
HETATM   15  C2  UNL     1       4.067  -0.087  -0.499  1.00  0.00     0.255 C 
HETATM   16  C1  UNL     1       5.055   0.421  -1.486  1.00  0.00     0.126 C 
HETATM   17  O1  UNL     1       4.290  -0.987   0.322  1.00  0.00    -0.266 OA
ENDBRANCH  14  15
ENDBRANCH   1  14
BRANCH   8  18
HETATM   18  O3  UNL     1      -4.203  -0.307   0.924  1.00  0.00    -0.385 OA
ATOM     19  H3  UNL     1      -4.982   0.188   1.148  1.00  0.00     0.211 HD
ENDBRANCH   8  18
TORSDOF 3
