REMARK  3 active torsions:
REMARK  status: ('A' for Active; 'I' for Inactive)
REMARK    1  A    between atoms: N1_5  and  C4_7 
REMARK    2  A    between atoms: C7_10  and  S2_11 
REMARK    3  A    between atoms: S2_11  and  C8_12 
ROOT
HETATM    1  C4  UNL     1      -0.575   0.070  -0.881  1.00  0.00     0.034 A 
HETATM    2  C5  UNL     1      -1.540  -0.924  -0.948  1.00  0.00     0.031 A 
HETATM    3  C6  UNL     1      -2.838  -0.693  -0.533  1.00  0.00     0.021 A 
HETATM    4  C7  UNL     1      -3.207   0.533  -0.042  1.00  0.00     0.005 A 
HETATM    5  C9  UNL     1      -2.253   1.513   0.024  1.00  0.00     0.021 A 
HETATM    6  C10 UNL     1      -0.957   1.302  -0.384  1.00  0.00     0.031 A 
ENDROOT
BRANCH   1   7
HETATM    7  N1  UNL     1       0.716  -0.237  -1.319  1.00  0.00    -0.337 N 
HETATM    8  C3  UNL     1       1.802  -0.095  -0.701  1.00  0.00     0.148 C 
HETATM    9  S1  UNL     1       3.403  -0.520  -1.351  1.00  0.00    -0.080 SA
HETATM   10  N2  UNL     1       2.018   0.407   0.587  1.00  0.00    -0.306 N 
HETATM   11  C2  UNL     1       4.364   0.241   0.026  1.00  0.00     0.143 C 
HETATM   12  C1  UNL     1       5.577  -0.561   0.350  1.00  0.00     0.031 C 
HETATM   13  C11 UNL     1       3.316   0.155   1.076  1.00  0.00     0.237 C 
HETATM   14  O1  UNL     1       3.632  -0.124   2.283  1.00  0.00    -0.272 OA
ATOM     15  H2  UNL     1       1.306   0.906   1.120  1.00  0.00     0.171 HD
ATOM     16  H1  UNL     1       0.786  -0.626  -2.259  1.00  0.00     0.168 HD
ENDBRANCH   1   7
BRANCH   4  17
HETATM   17  S2  UNL     1      -4.865   0.865   0.501  1.00  0.00    -0.061 SA
BRANCH  17  18
HETATM   18  C8  UNL     1      -5.920  -0.577   0.313  1.00  0.00     0.420 C 
HETATM   19  F1  UNL     1      -7.185  -0.248   0.751  1.00  0.00    -0.202 F 
HETATM   20  F2  UNL     1      -6.000  -0.952  -1.030  1.00  0.00    -0.202 F 
ENDBRANCH  17  18
ENDBRANCH   4  17
TORSDOF 3
