REMARK  6 active torsions:
REMARK  status: ('A' for Active; 'I' for Inactive)
REMARK    1  A    between atoms: O1_1  and  N1_3 
REMARK    2  A    between atoms: C1_5  and  O2_6 
REMARK    3  A    between atoms: C1_5  and  C2_8 
REMARK    4  A    between atoms: C2_8  and  O3_9 
REMARK    5  A    between atoms: C2_8  and  N2_11 
REMARK    6  A    between atoms: N2_11  and  C3_13 
ROOT
HETATM    1  N2  UNL     1       2.025  -0.623  -0.345  1.00  0.00    -0.338 N 
ATOM      2  H2  UNL     1       2.376  -1.044  -1.205  1.00  0.00     0.164 HD
ENDROOT
BRANCH   1   3
HETATM    3  C2  UNL     1       2.897  -0.384   0.816  1.00  0.00     0.297 C 
BRANCH   3   4
HETATM    4  C1  UNL     1       4.275  -0.349   0.311  1.00  0.00     0.185 C 
HETATM    5  N1  UNL     1       5.127  -1.200   0.748  1.00  0.00    -0.247 N 
ATOM      6  H1  UNL     1       4.802  -1.875   1.440  1.00  0.00     0.196 HD
BRANCH   5   7
HETATM    7  O1  UNL     1       6.422  -1.276   0.366  1.00  0.00    -0.288 OA
ATOM      8  H1  UNL     1       7.054  -1.907   0.690  1.00  0.00     0.244 HD
ENDBRANCH   5   7
BRANCH   4   9
HETATM    9  O2  UNL     1       4.653   0.587  -0.624  1.00  0.00    -0.345 OA
ATOM     10  H2  UNL     1       4.021   1.218  -0.948  1.00  0.00     0.219 HD
ENDBRANCH   4   9
ENDBRANCH   3   4
BRANCH   3  11
HETATM   11  O3  UNL     1       2.559   0.830   1.439  1.00  0.00    -0.369 OA
ATOM     12  H3  UNL     1       1.667   0.807   1.766  1.00  0.00     0.212 HD
ENDBRANCH   3  11
ENDBRANCH   1   3
BRANCH   1  13
HETATM   13  C3  UNL     1       0.773  -0.264  -0.210  1.00  0.00     0.147 A 
HETATM   14  N3  UNL     1      -0.219  -0.364  -1.090  1.00  0.00    -0.339 N 
HETATM   15  C4  UNL     1      -1.404   0.057  -0.755  1.00  0.00     0.024 A 
ATOM     16  H3  UNL     1      -0.054  -0.765  -2.013  1.00  0.00     0.168 HD
HETATM   17  C5  UNL     1      -1.564   0.587   0.503  1.00  0.00     0.009 A 
HETATM   18  C9  UNL     1      -2.705   0.063  -1.557  1.00  0.00     0.058 C 
HETATM   19  S1  UNL     1       0.015   0.449   1.140  1.00  0.00    -0.057 SA
HETATM   20  C6  UNL     1      -2.905   1.100   0.975  1.00  0.00     0.048 C 
HETATM   21  C7  UNL     1      -4.034   0.266   0.485  1.00  0.00     0.006 C 
HETATM   22  C8  UNL     1      -3.691  -0.655  -0.637  1.00  0.00     0.006 C 
ENDBRANCH   1  13
TORSDOF 6
