REMARK  7 active torsions:
REMARK  status: ('A' for Active; 'I' for Inactive)
REMARK    1  A    between atoms: C2_2  and  C3_3 
REMARK    2  A    between atoms: C8_8  and  O1_9 
REMARK    3  A    between atoms: C9_11  and  C10_12 
REMARK    4  A    between atoms: C11_13  and  C12_14 
REMARK    5  A    between atoms: C12_14  and  O2_15 
REMARK    6  A    between atoms: C12_14  and  C13_17 
REMARK    7  A    between atoms: C14_18  and  C15_19 
ROOT
HETATM    1  C10 UNL     1      -1.219  -0.107   0.757  1.00  0.00     0.012 C 
HETATM    2  C11 UNL     1      -0.162   0.164   0.021  1.00  0.00     0.007 C 
ENDROOT
BRANCH   1   3
HETATM    3  C9  UNL     1      -2.577   0.406   0.505  1.00  0.00     0.108 C 
HETATM    4  C3  UNL     1      -3.324  -0.512  -0.407  1.00  0.00     0.026 C 
HETATM    5  C4  UNL     1      -4.684   0.053  -0.760  1.00  0.00     0.010 C 
HETATM    6  C5  UNL     1      -5.407   0.539   0.486  1.00  0.00     0.032 C 
HETATM    7  C6  UNL     1      -4.406   1.344   1.288  1.00  0.00     0.125 C 
HETATM    8  C7  UNL     1      -3.872   2.424   0.357  1.00  0.00     0.067 C 
HETATM    9  O3  UNL     1      -3.314   0.579   1.670  1.00  0.00    -0.368 OA
HETATM   10  C8  UNL     1      -2.569   1.787  -0.110  1.00  0.00     0.159 C 
BRANCH   4  11
HETATM   11  C2  UNL     1      -3.534  -1.888   0.157  1.00  0.00     0.003 C 
HETATM   12  C1  UNL     1      -4.215  -2.734  -0.898  1.00  0.00     0.005 C 
ENDBRANCH   4  11
BRANCH  10  13
HETATM   13  O1  UNL     1      -1.539   2.576   0.372  1.00  0.00    -0.392 OA
ATOM     14  H1  UNL     1      -0.727   2.179   0.081  1.00  0.00     0.210 HD
ENDBRANCH  10  13
ENDBRANCH   1   3
BRANCH   2  15
HETATM   15  C12 UNL     1       1.171  -0.383   0.330  1.00  0.00     0.163 C 
BRANCH  15  16
HETATM   16  O2  UNL     1       1.175  -1.790   0.194  1.00  0.00    -0.388 OA
ATOM     17  H2  UNL     1       2.034  -2.143   0.393  1.00  0.00     0.210 HD
ENDBRANCH  15  16
BRANCH  15  18
HETATM   18  C13 UNL     1       2.181   0.125  -0.630  1.00  0.00     0.005 C 
HETATM   19  C14 UNL     1       3.461  -0.060  -0.380  1.00  0.00    -0.023 C 
BRANCH  19  20
HETATM   20  C15 UNL     1       4.530   0.432  -1.316  1.00  0.00     0.011 C 
HETATM   21  C16 UNL     1       5.370   1.468  -0.646  1.00  0.00     0.035 C 
HETATM   22  C17 UNL     1       6.537   0.916   0.089  1.00  0.00    -0.030 C 
HETATM   23  C18 UNL     1       6.918  -0.351   0.081  1.00  0.00    -0.031 C 
HETATM   24  C19 UNL     1       6.170  -1.349  -0.697  1.00  0.00     0.027 C 
HETATM   25  C20 UNL     1       5.332  -0.763  -1.783  1.00  0.00     0.012 C 
ENDBRANCH  19  20
ENDBRANCH  15  18
ENDBRANCH   2  15
TORSDOF 7
