REMARK  17 active torsions:
REMARK  status: ('A' for Active; 'I' for Inactive)
REMARK    1  A    between atoms: C2_2  and  C3_3 
REMARK    2  A    between atoms: C3_3  and  C4_4 
REMARK    3  A    between atoms: C5_5  and  O1_6 
REMARK    4  A    between atoms: O1_6  and  C6_7 
REMARK    5  A    between atoms: C7_8  and  O2_9 
REMARK    6  A    between atoms: C8_11  and  O3_12 
REMARK    7  A    between atoms: C11_17  and  O5_18 
REMARK    8  A    between atoms: C12_20  and  O6_21 
REMARK    9  A    between atoms: C13_23  and  O7_24 
REMARK   10  A    between atoms: O7_24  and  C14_25 
REMARK   11  A    between atoms: C14_25  and  O8_26 
REMARK   12  A    between atoms: C17_29  and  O9_30 
REMARK   13  A    between atoms: C18_32  and  O10_33 
REMARK   14  A    between atoms: C23_40  and  O12_41 
REMARK   15  A    between atoms: C24_43  and  C25_44 
REMARK   16  A    between atoms: C24_43  and  C27_46 
REMARK   17  A    between atoms: C27_46  and  O13_47 
ROOT
HETATM    1  C6  UNL     1       0.008  -1.087   0.468  1.00  0.00     0.167 C 
HETATM    2  C7  UNL     1      -0.402  -2.073   1.564  1.00  0.00     0.179 C 
HETATM    3  C8  UNL     1       0.639  -3.126   1.538  1.00  0.00     0.178 C 
HETATM    4  C9  UNL     1       1.806  -2.607   0.711  1.00  0.00     0.160 C 
HETATM    5  O4  UNL     1       2.933  -2.736   1.440  1.00  0.00    -0.372 OA
HETATM    6  C10 UNL     1       4.122  -2.307   0.953  1.00  0.00     0.184 C 
HETATM    7  C11 UNL     1       4.289  -2.210  -0.503  1.00  0.00     0.180 C 
HETATM    8  C12 UNL     1       3.941  -0.967  -1.188  1.00  0.00     0.178 C 
HETATM    9  C13 UNL     1       3.424   0.176  -0.390  1.00  0.00     0.162 C 
HETATM   10  C16 UNL     1       2.381  -0.159   0.656  1.00  0.00     0.058 C 
HETATM   11  C17 UNL     1       3.188  -0.283   1.905  1.00  0.00     0.156 C 
HETATM   12  C18 UNL     1       4.488  -1.053   1.733  1.00  0.00     0.178 C 
HETATM   13  C19 UNL     1       1.463  -1.215   0.251  1.00  0.00     0.058 C 
ENDROOT
BRANCH   1  14
HETATM   14  O1  UNL     1      -0.540   0.156   0.673  1.00  0.00    -0.343 OA
BRANCH  14  15
HETATM   15  C5  UNL     1      -1.623   0.449  -0.142  1.00  0.00     0.088 C 
HETATM   16  C4  UNL     1      -2.951   0.425   0.590  1.00  0.00    -0.010 C 
HETATM   17  C24 UNL     1      -4.032   0.445  -0.428  1.00  0.00     0.060 C 
HETATM   18  C23 UNL     1      -3.681   1.378  -1.604  1.00  0.00     0.273 C 
HETATM   19  O11 UNL     1      -2.681   2.259  -1.292  1.00  0.00    -0.343 OA
HETATM   20  C20 UNL     1      -1.464   1.542  -1.125  1.00  0.00     0.105 C 
HETATM   21  C21 UNL     1      -1.193   1.022  -2.558  1.00  0.00     0.053 C 
HETATM   22  C22 UNL     1      -0.393   2.544  -0.887  1.00  0.00     0.053 C 
BRANCH  16  23
HETATM   23  C3  UNL     1      -3.089   1.186   1.821  1.00  0.00     0.010 C 
BRANCH  23  24
HETATM   24  C2  UNL     1      -2.914   2.616   1.906  1.00  0.00    -0.010 C 
HETATM   25  C1  UNL     1      -3.868   3.459   2.294  1.00  0.00     0.011 C 
ENDBRANCH  23  24
ENDBRANCH  16  23
BRANCH  17  26
HETATM   26  C25 UNL     1      -4.255  -0.918  -1.110  1.00  0.00     0.017 C 
HETATM   27  C26 UNL     1      -4.626  -2.023  -0.219  1.00  0.00     0.006 C 
ENDBRANCH  17  26
BRANCH  17  28
HETATM   28  C27 UNL     1      -5.394   0.864   0.012  1.00  0.00     0.183 C 
BRANCH  28  29
HETATM   29  O13 UNL     1      -5.982   0.107   0.992  1.00  0.00    -0.400 OA
ATOM     30  H13 UNL     1      -6.850   0.374   1.272  1.00  0.00     0.209 HD
ENDBRANCH  28  29
ENDBRANCH  17  28
BRANCH  18  31
HETATM   31  O12 UNL     1      -4.809   2.109  -2.022  1.00  0.00    -0.370 OA
ATOM     32  H12 UNL     1      -5.503   1.498  -2.239  1.00  0.00     0.212 HD
ENDBRANCH  18  31
ENDBRANCH  14  15
ENDBRANCH   1  14
BRANCH   2  33
HETATM   33  O2  UNL     1      -0.644  -1.475   2.780  1.00  0.00    -0.390 OA
ATOM     34  H2  UNL     1      -0.899  -2.087   3.460  1.00  0.00     0.210 HD
ENDBRANCH   2  33
BRANCH   3  35
HETATM   35  O3  UNL     1       0.128  -4.340   1.018  1.00  0.00    -0.390 OA
ATOM     36  H3  UNL     1       0.796  -5.015   1.001  1.00  0.00     0.210 HD
ENDBRANCH   3  35
BRANCH   9  37
HETATM   37  O7  UNL     1       2.909   1.111  -1.284  1.00  0.00    -0.359 OA
BRANCH  37  38
HETATM   38  C14 UNL     1       3.662   2.292  -1.295  1.00  0.00     0.337 C 
BRANCH  38  39
HETATM   39  O8  UNL     1       3.103   3.159  -2.198  1.00  0.00    -0.372 OA
HETATM   40  C15 UNL     1       3.100   2.599  -3.478  1.00  0.00     0.204 C 
ENDBRANCH  38  39
ENDBRANCH  37  38
ENDBRANCH   9  37
BRANCH  11  41
HETATM   41  O9  UNL     1       2.578  -0.691   3.036  1.00  0.00    -0.392 OA
ATOM     42  H9  UNL     1       3.092  -0.770   3.831  1.00  0.00     0.210 HD
ENDBRANCH  11  41
BRANCH   8  43
HETATM   43  O6  UNL     1       5.061  -0.425  -1.885  1.00  0.00    -0.390 OA
ATOM     44  H6  UNL     1       4.835   0.383  -2.330  1.00  0.00     0.210 HD
ENDBRANCH   8  43
BRANCH  12  45
HETATM   45  O10 UNL     1       4.929  -1.445   3.020  1.00  0.00    -0.390 OA
ATOM     46  H10 UNL     1       5.158  -0.662   3.507  1.00  0.00     0.210 HD
ENDBRANCH  12  45
BRANCH   7  47
HETATM   47  O5  UNL     1       5.636  -2.521  -0.825  1.00  0.00    -0.390 OA
ATOM     48  H5  UNL     1       5.744  -2.458  -1.767  1.00  0.00     0.210 HD
ENDBRANCH   7  47
TORSDOF 17
