REMARK  5 active torsions:
REMARK  status: ('A' for Active; 'I' for Inactive)
REMARK       I    between atoms: C2_2  and  N1_4 
REMARK    1  A    between atoms: N1_4  and  C4_6 
REMARK    2  A    between atoms: C4_6  and  C5_7 
REMARK    3  A    between atoms: C5_7  and  C6_8 
REMARK    4  A    between atoms: C6_8  and  S1_9 
REMARK    5  A    between atoms: S1_9  and  C7_10 
ROOT
HETATM    1  C7  UNL     1      -2.125  -0.564   0.248  1.00  0.00     0.030 C 
HETATM    2  C8  UNL     1      -2.295  -1.378  -0.998  1.00  0.00     0.029 C 
HETATM    3  C9  UNL     1      -3.169  -0.836   1.296  1.00  0.00     0.049 C 
HETATM    4  C10 UNL     1      -4.565  -0.497   0.872  1.00  0.00     0.236 C 
HETATM    5  N2  UNL     1      -4.891   0.903   1.075  1.00  0.00    -0.051 N 
ATOM      6  H21 UNL     1      -4.539   1.232   1.974  1.00  0.00     0.279 HD
ATOM      7  H22 UNL     1      -5.891   1.025   1.234  1.00  0.00     0.279 HD
HETATM    8  C11 UNL     1      -4.435   1.746   0.005  1.00  0.00     0.462 C 
HETATM    9  N3  UNL     1      -3.414   1.133  -0.811  1.00  0.00    -0.050 N 
ATOM     10  H31 UNL     1      -3.249   1.675  -1.659  1.00  0.00     0.279 HD
ATOM     11  H32 UNL     1      -3.752   0.267  -1.232  1.00  0.00     0.279 HD
HETATM   12  C12 UNL     1      -2.181   0.912  -0.087  1.00  0.00     0.254 C 
ENDROOT
BRANCH   1  13
HETATM   13  S1  UNL     1      -0.518  -0.972   0.965  1.00  0.00    -0.158 SA
BRANCH  13  14
HETATM   14  C6  UNL     1       0.753  -0.394  -0.181  1.00  0.00     0.076 C 
BRANCH  14  15
HETATM   15  C5  UNL     1       2.149  -0.696   0.335  1.00  0.00     0.030 C 
BRANCH  15  16
HETATM   16  C4  UNL     1       3.117  -0.168  -0.702  1.00  0.00     0.126 C 
BRANCH  16  17
HETATM   17  N1  UNL     1       4.480  -0.407  -0.306  1.00  0.00    -0.357 N 
HETATM   18  C2  UNL     1       5.152   0.566   0.455  1.00  0.00     0.215 C 
HETATM   19  C1  UNL     1       4.555   1.850   0.890  1.00  0.00     0.117 C 
HETATM   20  O1  UNL     1       6.360   0.334   0.800  1.00  0.00    -0.274 OA
HETATM   21  C3  UNL     1       5.115  -1.628  -0.697  1.00  0.00     0.152 C 
ENDBRANCH  16  17
ENDBRANCH  15  16
ENDBRANCH  14  15
ENDBRANCH  13  14
ENDBRANCH   1  13
TORSDOF 5
