REMARK  3 active torsions:
REMARK  status: ('A' for Active; 'I' for Inactive)
REMARK    1  A    between atoms: C3_4  and  N1_5 
REMARK    2  A    between atoms: N1_5  and  C4_8 
REMARK    3  A    between atoms: C4_8  and  C5_9 
ROOT
HETATM    1  O1  UNL     1      -2.941  -0.284   3.266  1.00  0.00    -0.273 OA
HETATM    2  C1  UNL     1      -2.062  -0.429   2.351  1.00  0.00     0.222 C 
HETATM    3  C2  UNL     1      -0.582  -0.438   2.497  1.00  0.00     0.138 C 
HETATM    4  C3  UNL     1      -0.073   0.106   1.177  1.00  0.00     0.217 C 
HETATM    5  C8  UNL     1      -1.139  -0.254   0.189  1.00  0.00     0.118 C 
HETATM    6  C9  UNL     1      -1.536   0.924  -0.675  1.00  0.00     0.027 C 
HETATM    7  C10 UNL     1      -3.028   1.154  -0.659  1.00  0.00     0.004 C 
HETATM    8  C11 UNL     1      -3.671  -0.193  -1.011  1.00  0.00     0.020 C 
HETATM    9  C12 UNL     1      -3.468  -1.080   0.224  1.00  0.00     0.126 C 
HETATM   10  N3  UNL     1      -2.313  -0.616   0.965  1.00  0.00    -0.345 N 
ENDROOT
BRANCH   4  11
HETATM   11  N1  UNL     1       1.227  -0.441   0.841  1.00  0.00    -0.068 N 
ATOM     12  H12 UNL     1       1.917  -0.298   1.578  1.00  0.00     0.277 HD
ATOM     13  H11 UNL     1       1.237  -1.461   0.840  1.00  0.00     0.277 HD
BRANCH  11  14
HETATM   14  C4  UNL     1       1.636   0.121  -0.420  1.00  0.00     0.240 C 
BRANCH  14  15
HETATM   15  C5  UNL     1       2.976  -0.367  -0.885  1.00  0.00     0.062 C 
HETATM   16  C6  UNL     1       4.136  -0.087   0.011  1.00  0.00     0.240 C 
HETATM   17  N2  UNL     1       4.892   0.333  -1.171  1.00  0.00    -0.074 N 
HETATM   18  C7  UNL     1       3.627   0.695  -1.779  1.00  0.00     0.240 C 
ATOM     19  H22 UNL     1       5.652   1.010  -1.096  1.00  0.00     0.277 HD
ATOM     20  H21 UNL     1       5.536  -0.306  -1.638  1.00  0.00     0.277 HD
ENDBRANCH  14  15
ENDBRANCH  11  14
ENDBRANCH   4  11
TORSDOF 3
