REMARK  5 active torsions:
REMARK  status: ('A' for Active; 'I' for Inactive)
REMARK    1  A    between atoms: C2_2  and  C3_5 
REMARK    2  A    between atoms: C3_5  and  N1_6 
REMARK    3  A    between atoms: C5_8  and  C6_9 
REMARK    4  A    between atoms: C6_9  and  C7_10 
REMARK    5  A    between atoms: C7_10  and  C8_13 
ROOT
HETATM    1  N1  UNL     1      -0.948  -0.093   0.411  1.00  0.00    -0.380 N 
HETATM    2  C4  UNL     1       0.276  -0.781   0.268  1.00  0.00     0.155 C 
HETATM    3  C5  UNL     1       1.413   0.142   0.583  1.00  0.00     0.210 C 
HETATM    4  N2  UNL     1       1.341   1.377  -0.215  1.00  0.00    -0.061 N 
ATOM      5  H21 UNL     1       1.404   1.224  -1.221  1.00  0.00     0.278 HD
ATOM      6  H22 UNL     1       2.167   1.970  -0.136  1.00  0.00     0.278 HD
HETATM    7  C9  UNL     1       0.128   2.012   0.201  1.00  0.00     0.236 C 
HETATM    8  C10 UNL     1      -0.232   3.260  -0.544  1.00  0.00     0.267 C 
HETATM    9  N3  UNL     1      -1.650   3.367  -0.334  1.00  0.00    -0.071 N 
ATOM     10  H31 UNL     1      -2.136   3.794  -1.122  1.00  0.00     0.277 HD
ATOM     11  H32 UNL     1      -1.895   4.064   0.369  1.00  0.00     0.277 HD
HETATM   12  C11 UNL     1      -2.158   2.025  -0.009  1.00  0.00     0.259 C 
HETATM   13  C12 UNL     1      -1.012   1.102  -0.303  1.00  0.00     0.141 C 
ENDROOT
BRANCH   3  14
HETATM   14  C6  UNL     1       2.761  -0.467   0.566  1.00  0.00     0.119 C 
BRANCH  14  15
HETATM   15  C7  UNL     1       3.214  -1.076  -0.705  1.00  0.00     0.303 C 
HETATM   16  F1  UNL     1       3.264  -0.181  -1.759  1.00  0.00    -0.200 F 
HETATM   17  F2  UNL     1       2.556  -2.218  -1.074  1.00  0.00    -0.200 F 
BRANCH  15  18
HETATM   18  C8  UNL     1       4.678  -1.500  -0.497  1.00  0.00     0.424 C 
HETATM   19  F3  UNL     1       5.179  -2.078  -1.643  1.00  0.00    -0.208 F 
HETATM   20  F4  UNL     1       4.802  -2.370   0.559  1.00  0.00    -0.208 F 
ENDBRANCH  15  18
ENDBRANCH  14  15
ENDBRANCH   3  14
BRANCH   1  21
HETATM   21  C3  UNL     1      -2.100  -0.800   0.756  1.00  0.00     0.100 C 
BRANCH  21  22
HETATM   22  C2  UNL     1      -2.644  -1.762  -0.249  1.00  0.00     0.141 C 
HETATM   23  C1  UNL     1      -3.894  -2.402   0.359  1.00  0.00     0.056 C 
HETATM   24 CL1  UNL     1      -1.494  -3.093  -0.525  1.00  0.00    -0.096 Cl
HETATM   25 CL2  UNL     1      -3.092  -1.071  -1.793  1.00  0.00    -0.096 Cl
ENDBRANCH  21  22
ENDBRANCH   1  21
TORSDOF 5
