REMARK  6 active torsions:
REMARK  status: ('A' for Active; 'I' for Inactive)
REMARK    1  A    between atoms: C3_3  and  N1_4 
REMARK    2  A    between atoms: N1_4  and  C4_7 
REMARK    3  A    between atoms: C4_7  and  C5_8 
REMARK    4  A    between atoms: C5_8  and  N2_9 
REMARK    5  A    between atoms: N2_9  and  C6_12 
REMARK    6  A    between atoms: C13_19  and  O1_20 
ROOT
HETATM    1  C1  UNL     1       6.417   1.271  -0.428  1.00  0.00     0.013 C 
HETATM    2  C2  UNL     1       5.898   0.190  -0.408  1.00  0.00    -0.090 C 
HETATM    3  C3  UNL     1       5.222  -1.141  -0.424  1.00  0.00     0.324 C 
ENDROOT
BRANCH   3   4
HETATM    4  N1  UNL     1       3.788  -0.854  -0.537  1.00  0.00    -0.064 N 
ATOM      5  H12 UNL     1       3.565  -0.243  -1.323  1.00  0.00     0.278 HD
ATOM      6  H11 UNL     1       3.243  -1.662  -0.838  1.00  0.00     0.278 HD
BRANCH   4   7
HETATM    7  C4  UNL     1       3.357  -0.329   0.713  1.00  0.00     0.260 C 
BRANCH   7   8
HETATM    8  C5  UNL     1       1.976   0.277   0.651  1.00  0.00     0.260 C 
BRANCH   8   9
HETATM    9  N2  UNL     1       0.981  -0.626   0.172  1.00  0.00    -0.065 N 
ATOM     10  H22 UNL     1       1.229  -0.981  -0.752  1.00  0.00     0.278 HD
ATOM     11  H21 UNL     1       1.001  -1.499   0.699  1.00  0.00     0.278 HD
BRANCH   9  12
HETATM   12  C6  UNL     1      -0.342  -0.064   0.165  1.00  0.00     0.129 C 
HETATM   13  C7  UNL     1      -0.883   0.202   1.528  1.00  0.00     0.043 C 
HETATM   14  C8  UNL     1      -2.308   0.646   1.435  1.00  0.00    -0.009 C 
HETATM   15  C9  UNL     1      -2.376   2.002   0.730  1.00  0.00     0.009 C 
HETATM   16  C15 UNL     1      -3.197  -0.273   0.660  1.00  0.00     0.043 C 
HETATM   17  C10 UNL     1      -1.770   1.795  -0.647  1.00  0.00    -0.009 C 
HETATM   18  C11 UNL     1      -0.356   1.302  -0.547  1.00  0.00     0.043 C 
HETATM   19  C12 UNL     1      -2.634   0.858  -1.434  1.00  0.00     0.043 C 
HETATM   20  C13 UNL     1      -2.653  -0.495  -0.708  1.00  0.00     0.063 C 
HETATM   21  C16 UNL     1      -1.224  -0.950  -0.672  1.00  0.00     0.076 C 
BRANCH  20  22
HETATM   22  O1  UNL     1      -3.381  -1.350  -1.486  1.00  0.00    -0.385 OA
HETATM   23  C14 UNL     1      -3.544  -2.626  -1.005  1.00  0.00     0.202 C 
ENDBRANCH  20  22
ENDBRANCH   9  12
ENDBRANCH   8   9
ENDBRANCH   7   8
ENDBRANCH   4   7
ENDBRANCH   3   4
TORSDOF 6
