REMARK  10 active torsions:
REMARK  status: ('A' for Active; 'I' for Inactive)
REMARK    1  A    between atoms: O1_2  and  C2_3 
REMARK    2  A    between atoms: C2_3  and  C3_4 
REMARK    3  A    between atoms: N1_8  and  C4_9 
REMARK    4  A    between atoms: C4_9  and  C5_10 
REMARK    5  A    between atoms: C5_10  and  N2_11 
REMARK    6  A    between atoms: C5_10  and  C6_15 
REMARK    7  A    between atoms: C6_15  and  N3_16 
REMARK    8  A    between atoms: C6_15  and  C7_21 
REMARK    9  A    between atoms: C7_21  and  C8_24 
REMARK   10  A    between atoms: C8_24  and  C9_26 
ROOT
HETATM    1  C5  UNL     1       1.020  -0.398  -0.484  1.00  0.00     0.275 C 
ENDROOT
BRANCH   1   2
HETATM    2  C4  UNL     1       0.398   0.069   0.767  1.00  0.00     0.167 C 
BRANCH   2   3
HETATM    3  N1  UNL     1      -0.946   0.555   0.690  1.00  0.00    -0.315 N 
HETATM    4  C2  UNL     1      -2.290   0.046   0.540  1.00  0.00     0.263 C 
HETATM    5  C11 UNL     1      -2.925   1.071  -0.314  1.00  0.00     0.084 C 
HETATM    6  N4  UNL     1      -2.343   2.315   0.090  1.00  0.00    -0.353 N 
HETATM    7  C12 UNL     1      -4.415   1.126  -0.388  1.00  0.00     0.043 C 
HETATM    8  C13 UNL     1      -2.458   0.853  -1.745  1.00  0.00     0.043 C 
HETATM    9  C10 UNL     1      -1.162   2.012   0.773  1.00  0.00     0.173 C 
ATOM     10  H4  UNL     1      -2.719   3.246  -0.087  1.00  0.00     0.162 HD
HETATM   11  S1  UNL     1      -0.200   3.098   1.526  1.00  0.00    -0.041 SA
BRANCH   4  12
HETATM   12  O1  UNL     1      -2.249  -1.194   0.012  1.00  0.00    -0.356 OA
HETATM   13  C1  UNL     1      -3.315  -2.000  -0.085  1.00  0.00     0.205 C 
ENDBRANCH   4  12
BRANCH   4  14
HETATM   14  C3  UNL     1      -2.783   0.029   1.979  1.00  0.00     0.440 C 
HETATM   15  F1  UNL     1      -1.878  -0.769   2.678  1.00  0.00    -0.166 F 
HETATM   16  F2  UNL     1      -4.018  -0.416   2.213  1.00  0.00    -0.166 F 
HETATM   17  F3  UNL     1      -2.683   1.274   2.595  1.00  0.00    -0.166 F 
ENDBRANCH   4  14
ENDBRANCH   2   3
ENDBRANCH   1   2
BRANCH   1  18
HETATM   18  N2  UNL     1       0.266  -1.541  -1.027  1.00  0.00    -0.068 N 
ATOM     19  H23 UNL     1       0.169  -2.293  -0.345  1.00  0.00     0.275 HD
ATOM     20  H22 UNL     1      -0.723  -1.322  -1.150  1.00  0.00     0.275 HD
ATOM     21  H21 UNL     1       0.697  -1.864  -1.893  1.00  0.00     0.275 HD
ENDBRANCH   1  18
BRANCH   1  22
HETATM   22  C6  UNL     1       2.442  -0.837  -0.446  1.00  0.00     0.359 C 
HETATM   23  F4  UNL     1       2.731  -1.367  -1.732  1.00  0.00    -0.202 F 
BRANCH  22  24
HETATM   24  N3  UNL     1       2.640  -1.949   0.480  1.00  0.00    -0.034 N 
ATOM     25  H33 UNL     1       2.296  -1.722   1.413  1.00  0.00     0.278 HD
ATOM     26  H32 UNL     1       2.016  -2.727   0.265  1.00  0.00     0.278 HD
ATOM     27  H31 UNL     1       3.614  -2.250   0.506  1.00  0.00     0.278 HD
ENDBRANCH  22  24
BRANCH  22  28
HETATM   28  C7  UNL     1       3.484   0.205  -0.220  1.00  0.00     0.345 C 
HETATM   29  F5  UNL     1       3.338   0.825   0.974  1.00  0.00    -0.197 F 
HETATM   30  F6  UNL     1       3.424   1.139  -1.284  1.00  0.00    -0.197 F 
BRANCH  28  31
HETATM   31  C8  UNL     1       4.888  -0.394  -0.371  1.00  0.00     0.354 C 
HETATM   32  F7  UNL     1       5.068  -0.905  -1.641  1.00  0.00    -0.233 F 
BRANCH  31  33
HETATM   33  C9  UNL     1       5.874   0.728  -0.144  1.00  0.00     0.423 C 
HETATM   34  F8  UNL     1       7.183   0.275  -0.262  1.00  0.00    -0.168 F 
HETATM   35  F9  UNL     1       5.700   1.274   1.119  1.00  0.00    -0.168 F 
HETATM   36  F10 UNL     1       5.743   1.747  -1.064  1.00  0.00    -0.168 F 
ENDBRANCH  31  33
ENDBRANCH  28  31
ENDBRANCH  22  28
ENDBRANCH   1  22
TORSDOF 10
