REMARK  2 active torsions:
REMARK  status: ('A' for Active; 'I' for Inactive)
REMARK    1  A    between atoms: C2_2  and  C3_3 
REMARK    2  A    between atoms: C3_3  and  O1_4 
ROOT
HETATM    1  C3  UNL     1      -1.705  -0.111   0.040  1.00  0.00     0.057 C 
HETATM    2  C4  UNL     1      -1.438   1.351  -0.055  1.00  0.00     0.038 C 
HETATM    3  C5  UNL     1      -0.602   1.938   1.018  1.00  0.00     0.003 C 
HETATM    4  C6  UNL     1       0.778   2.337   0.634  1.00  0.00     0.000 C 
HETATM    5  C7  UNL     1       1.322   1.774  -0.617  1.00  0.00     0.000 C 
HETATM    6  C8  UNL     1       2.817   1.461  -0.448  1.00  0.00     0.000 C 
HETATM    7  C9  UNL     1       3.156   0.082  -0.972  1.00  0.00     0.000 C 
HETATM    8  C10 UNL     1       2.821  -1.013  -0.000  1.00  0.00     0.000 C 
HETATM    9  C11 UNL     1       1.786  -1.978  -0.520  1.00  0.00     0.000 C 
HETATM   10  C12 UNL     1       0.951  -2.594   0.569  1.00  0.00     0.000 C 
HETATM   11  C13 UNL     1      -0.523  -2.284   0.429  1.00  0.00     0.003 C 
HETATM   12  C14 UNL     1      -0.860  -0.887   0.973  1.00  0.00     0.038 C 
ENDROOT
BRANCH   1  13
HETATM   13  C2  UNL     1      -3.173  -0.409   0.393  1.00  0.00     0.033 C 
HETATM   14  C1  UNL     1      -4.075   0.257  -0.594  1.00  0.00     0.008 C 
ENDBRANCH   1  13
BRANCH   1  15
HETATM   15  O1  UNL     1      -1.582  -0.653  -1.264  1.00  0.00    -0.390 OA
ATOM     16  H1  UNL     1      -0.676  -0.469  -1.482  1.00  0.00     0.210 HD
ENDBRANCH   1  15
TORSDOF 2
