REMARK  6 active torsions:
REMARK  status: ('A' for Active; 'I' for Inactive)
REMARK    1  A    between atoms: C1_2  and  N1_3 
REMARK    2  A    between atoms: N1_3  and  C2_4 
REMARK    3  A    between atoms: C2_4  and  C3_5 
REMARK    4  A    between atoms: C3_5  and  C4_6 
REMARK    5  A    between atoms: C4_6  and  C5_7 
REMARK    6  A    between atoms: C5_7  and  C6_8 
ROOT
HETATM    1  C4  UNL     1       0.839  -0.878   1.446  1.00  0.00     0.010 C 
ENDROOT
BRANCH   1   2
HETATM    2  C3  UNL     1       1.532  -0.858   0.154  1.00  0.00     0.060 C 
BRANCH   2   3
HETATM    3  C2  UNL     1       2.321   0.450  -0.132  1.00  0.00     0.158 C 
BRANCH   3   4
HETATM    4  N1  UNL     1       2.937   0.505  -1.303  1.00  0.00    -0.395 NA
BRANCH   4   5
HETATM    5  C1  UNL     1       3.594   0.563  -2.552  1.00  0.00     0.440 C 
HETATM    6  O1  UNL     1       4.452  -0.181  -2.984  1.00  0.00    -0.268 OA
ENDBRANCH   4   5
ENDBRANCH   3   4
ENDBRANCH   2   3
ENDBRANCH   1   2
BRANCH   1   7
HETATM    7  C5  UNL     1      -0.264   0.071   1.714  1.00  0.00     0.034 C 
BRANCH   7   8
HETATM    8  C6  UNL     1      -1.421   0.002   0.789  1.00  0.00    -0.084 C 
HETATM    9  C7  UNL     1      -2.634  -0.362   1.179  1.00  0.00    -0.024 C 
HETATM   10  C8  UNL     1      -3.548  -0.331   0.009  1.00  0.00     0.027 C 
HETATM   11  C9  UNL     1      -2.959   0.730  -0.879  1.00  0.00     0.008 C 
HETATM   12  C10 UNL     1      -1.462   0.439  -0.634  1.00  0.00     0.034 C 
ENDBRANCH   7   8
ENDBRANCH   1   7
TORSDOF 6
