REMARK  4 active torsions:
REMARK  status: ('A' for Active; 'I' for Inactive)
REMARK    1  A    between atoms: N1_1  and  C1_5 
REMARK    2  A    between atoms: C1_5  and  C2_6 
REMARK    3  A    between atoms: C2_6  and  S1_7 
REMARK    4  A    between atoms: S1_7  and  C3_8 
ROOT
HETATM    1  S1  UNL     1       1.075   0.259   1.338  1.00  0.00    -0.163 SA
ENDROOT
BRANCH   1   2
HETATM    2  C2  UNL     1       2.374  -0.077   0.117  1.00  0.00     0.101 C 
BRANCH   2   3
HETATM    3  C1  UNL     1       3.729  -0.216   0.785  1.00  0.00     0.239 C 
BRANCH   3   4
HETATM    4  N1  UNL     1       4.735  -0.481  -0.210  1.00  0.00    -0.079 N 
ATOM      5  H13 UNL     1       4.504  -1.292  -0.783  1.00  0.00     0.274 HD
ATOM      6  H12 UNL     1       4.741   0.223  -0.948  1.00  0.00     0.274 HD
ATOM      7  H11 UNL     1       5.646  -0.574   0.239  1.00  0.00     0.274 HD
ENDBRANCH   3   4
ENDBRANCH   2   3
ENDBRANCH   1   2
BRANCH   1   8
HETATM    8  C3  UNL     1      -0.487   0.407   0.450  1.00  0.00     0.047 C 
HETATM    9  C4  UNL     1      -1.639   0.691   1.407  1.00  0.00     0.015 C 
HETATM   10  C5  UNL     1      -2.826   1.073   0.522  1.00  0.00     0.001 C 
HETATM   11  C6  UNL     1      -3.186  -0.142  -0.278  1.00  0.00     0.000 C 
HETATM   12  C7  UNL     1      -2.024  -0.519  -1.189  1.00  0.00     0.001 C 
HETATM   13  C8  UNL     1      -0.856  -0.864  -0.284  1.00  0.00     0.015 C 
ENDBRANCH   1   8
TORSDOF 4
