REMARK  3 active torsions:
REMARK  status: ('A' for Active; 'I' for Inactive)
REMARK    1  A    between atoms: C1_2  and  C2_3 
REMARK    2  A    between atoms: C2_3  and  C3_4 
REMARK    3  A    between atoms: C3_4  and  N1_5 
ROOT
HETATM    1  N1  UNL     1      -0.290  -0.309   0.013  1.00  0.00     0.088 N 
HETATM    2  C4  UNL     1      -0.607   0.881   0.731  1.00  0.00     0.272 C 
HETATM    3  C5  UNL     1      -1.861   1.541   0.238  1.00  0.00     0.030 C 
HETATM    4  C6  UNL     1      -2.911   0.673  -0.306  1.00  0.00     0.003 C 
HETATM    5  C7  UNL     1      -2.585  -0.754  -0.542  1.00  0.00     0.030 C 
HETATM    6  C8  UNL     1      -1.366  -1.245   0.188  1.00  0.00     0.272 C 
ENDROOT
BRANCH   1   7
HETATM    7  C3  UNL     1       1.007  -0.771   0.328  1.00  0.00     0.273 C 
BRANCH   7   8
HETATM    8  C2  UNL     1       2.141   0.095  -0.196  1.00  0.00     0.041 C 
BRANCH   8   9
HETATM    9  C1  UNL     1       3.407  -0.638   0.272  1.00  0.00     0.088 C 
HETATM   10  S1  UNL     1       4.903   0.193  -0.243  1.00  0.00    -0.098 SA
ENDBRANCH   8   9
ENDBRANCH   7   8
ENDBRANCH   1   7
TORSDOF 3
