REMARK  5 active torsions:
REMARK  status: ('A' for Active; 'I' for Inactive)
REMARK    1  A    between atoms: N1_1  and  N2_4 
REMARK    2  A    between atoms: N2_4  and  C1_5 
REMARK    3  A    between atoms: N2_4  and  N3_13 
REMARK    4  A    between atoms: C2_6  and  C3_7 
REMARK    5  A    between atoms: N3_13  and  O1_15 
ROOT
HETATM    1  N2  UNL     1      -3.481   0.364   0.040  1.00  0.00    -0.196 N 
ENDROOT
BRANCH   1   2
HETATM    2  N1  UNL     1      -3.985  -0.915   0.271  1.00  0.00    -0.323 N 
ATOM      3  H12 UNL     1      -3.407  -1.755   0.240  1.00  0.00     0.179 HD
ATOM      4  H11 UNL     1      -4.977  -1.023   0.482  1.00  0.00     0.179 HD
ENDBRANCH   1   2
BRANCH   1   5
HETATM    5  C1  UNL     1      -2.107   0.513  -0.252  1.00  0.00     0.134 C 
HETATM    6  C2  UNL     1      -1.151  -0.095   0.422  1.00  0.00    -0.001 C 
BRANCH   6   7
HETATM    7  C3  UNL     1       0.258   0.079   0.097  1.00  0.00     0.010 C 
HETATM    8  C4  UNL     1       1.078   0.569   1.297  1.00  0.00     0.008 C 
HETATM    9  C5  UNL     1       2.332   1.133   0.661  1.00  0.00     0.001 C 
HETATM   10  C6  UNL     1       3.051   0.187  -0.212  1.00  0.00     0.000 C 
HETATM   11  C7  UNL     1       2.296  -0.904  -0.838  1.00  0.00     0.001 C 
HETATM   12  C8  UNL     1       0.954  -1.216  -0.279  1.00  0.00     0.008 C 
ENDBRANCH   6   7
ENDBRANCH   1   5
BRANCH   1  13
HETATM   13  N3  UNL     1      -4.275   1.518   0.082  1.00  0.00    -0.190 N 
ATOM     14  H3  UNL     1      -3.909   2.379  -0.324  1.00  0.00     0.217 HD
BRANCH  13  15
HETATM   15  O1  UNL     1      -5.403   1.534   0.593  1.00  0.00    -0.273 OA
ATOM     16  H1  UNL     1      -5.941   2.316   0.621  1.00  0.00     0.246 HD
ENDBRANCH  13  15
ENDBRANCH   1  13
TORSDOF 5
