REMARK  14 active torsions:
REMARK  status: ('A' for Active; 'I' for Inactive)
REMARK    1  A    between atoms: C2_2  and  C3_3 
REMARK    2  A    between atoms: C3_3  and  O1_4 
REMARK    3  A    between atoms: O1_4  and  C4_5 
REMARK    4  A    between atoms: C4_5  and  C5_6 
REMARK    5  A    between atoms: C4_5  and  C13_18 
REMARK    6  A    between atoms: C5_6  and  O2_7 
REMARK    7  A    between atoms: C5_6  and  C6_9 
REMARK    8  A    between atoms: C6_9  and  C8_11 
REMARK    9  A    between atoms: C8_11  and  O3_12 
REMARK   10  A    between atoms: C8_11  and  C9_14 
REMARK   11  A    between atoms: C21_26  and  O4_27 
REMARK   12  A    between atoms: C21_26  and  C24_31 
REMARK   13  A    between atoms: O4_27  and  C22_28 
REMARK   14  A    between atoms: C25_34  and  N1_35 
ROOT
HETATM    1  C13 UNL     1       0.024   1.107  -0.795  1.00  0.00    -0.038 C 
HETATM    2  C14 UNL     1      -0.740   2.344  -0.561  1.00  0.00    -0.060 C 
HETATM    3  C15 UNL     1      -0.345   3.484   0.298  1.00  0.00     0.048 C 
HETATM    4  C16 UNL     1      -1.941   2.375  -1.192  1.00  0.00    -0.019 C 
HETATM    5  C17 UNL     1      -2.296   1.198  -1.994  1.00  0.00     0.035 C 
HETATM    6  C18 UNL     1      -2.034  -0.111  -1.307  1.00  0.00     0.032 C 
HETATM    7  C19 UNL     1      -0.789  -0.044  -0.385  1.00  0.00     0.028 C 
HETATM    8  C20 UNL     1      -1.419   0.036   0.957  1.00  0.00     0.062 C 
HETATM    9  C21 UNL     1      -2.666  -0.862   0.919  1.00  0.00     0.187 C 
HETATM   10  C25 UNL     1      -3.146  -0.638  -0.469  1.00  0.00     0.239 C 
ENDROOT
BRANCH   1  11
HETATM   11  C4  UNL     1       1.487   1.164  -0.534  1.00  0.00     0.180 C 
BRANCH  11  12
HETATM   12  O1  UNL     1       1.919   2.119  -1.490  1.00  0.00    -0.375 OA
BRANCH  12  13
HETATM   13  C3  UNL     1       2.751   3.088  -1.102  1.00  0.00     0.195 C 
BRANCH  13  14
HETATM   14  C2  UNL     1       2.992   3.988  -2.309  1.00  0.00    -0.011 C 
HETATM   15  C1  UNL     1       2.692   5.251  -2.311  1.00  0.00     0.009 C 
ENDBRANCH  13  14
ENDBRANCH  12  13
ENDBRANCH  11  12
BRANCH  11  16
HETATM   16  C5  UNL     1       2.170  -0.179  -0.853  1.00  0.00     0.158 C 
BRANCH  16  17
HETATM   17  O2  UNL     1       1.733  -0.727  -2.052  1.00  0.00    -0.392 OA
ATOM     18  H2  UNL     1       2.154  -1.555  -2.249  1.00  0.00     0.210 HD
ENDBRANCH  16  17
BRANCH  16  19
HETATM   19  C6  UNL     1       2.332  -1.126   0.236  1.00  0.00     0.046 C 
HETATM   20  C7  UNL     1       3.022  -2.439  -0.315  1.00  0.00     0.015 C 
BRANCH  19  21
HETATM   21  C8  UNL     1       3.269  -0.815   1.381  1.00  0.00     0.152 C 
BRANCH  21  22
HETATM   22  O3  UNL     1       3.049  -1.966   2.257  1.00  0.00    -0.391 OA
ATOM     23  H3  UNL     1       3.638  -1.771   2.976  1.00  0.00     0.210 HD
ENDBRANCH  21  22
BRANCH  21  24
HETATM   24  C9  UNL     1       4.716  -0.886   1.024  1.00  0.00    -0.059 C 
HETATM   25  C10 UNL     1       5.416   0.038   0.116  1.00  0.00     0.046 C 
HETATM   26  C11 UNL     1       5.491  -1.863   1.548  1.00  0.00    -0.026 C 
HETATM   27  C12 UNL     1       6.918  -1.969   1.223  1.00  0.00     0.036 C 
ENDBRANCH  21  24
ENDBRANCH  19  21
ENDBRANCH  16  19
ENDBRANCH  11  16
ENDBRANCH   1  11
BRANCH  10  28
HETATM   28  N1  UNL     1      -3.963  -1.608  -1.087  1.00  0.00    -0.070 N 
HETATM   29  C26 UNL     1      -4.703  -0.935  -2.184  1.00  0.00     0.272 C 
HETATM   30  C27 UNL     1      -3.379  -2.759  -1.671  1.00  0.00     0.272 C 
HETATM   31  C28 UNL     1      -5.103  -1.991  -0.225  1.00  0.00     0.272 C 
ENDBRANCH  10  28
BRANCH   9  32
HETATM   32  O4  UNL     1      -3.551  -0.623   1.950  1.00  0.00    -0.297 OA
BRANCH  32  33
HETATM   33  C22 UNL     1      -4.219   0.490   2.328  1.00  0.00     0.256 C 
HETATM   34  C23 UNL     1      -5.151   0.509   3.500  1.00  0.00     0.126 C 
HETATM   35  O5  UNL     1      -4.024   1.506   1.654  1.00  0.00    -0.266 OA
ENDBRANCH  32  33
ENDBRANCH   9  32
BRANCH   9  36
HETATM   36  C24 UNL     1      -2.123  -2.229   1.213  1.00  0.00     0.212 C 
HETATM   37  O6  UNL     1      -1.242  -2.812   0.548  1.00  0.00    -0.646 OA
HETATM   38  O7  UNL     1      -2.549  -3.015   2.281  1.00  0.00    -0.646 OA
ENDBRANCH   9  36
TORSDOF 14
