REMARK  6 active torsions:
REMARK  status: ('A' for Active; 'I' for Inactive)
REMARK    1  A    between atoms: C2_2  and  N1_3 
REMARK    2  A    between atoms: N1_3  and  C3_5 
REMARK    3  A    between atoms: C6_13  and  N5_14 
REMARK    4  A    between atoms: N5_14  and  C7_16 
REMARK    5  A    between atoms: C9_20  and  N7_21 
REMARK    6  A    between atoms: C12_26  and  O1_27 
ROOT
HETATM    1  C3  UNL     1      -3.982   0.230  -0.664  1.00  0.00     0.134 A 
HETATM    2  N2  UNL     1      -4.689  -0.805  -0.123  1.00  0.00    -0.281 N 
ATOM      3  H2  UNL     1      -5.695  -0.947  -0.219  1.00  0.00     0.189 HD
HETATM    4  N3  UNL     1      -3.867  -1.594   0.544  1.00  0.00    -0.278 N 
HETATM    5  C4  UNL     1      -4.203  -2.807   1.271  1.00  0.00     0.179 C 
HETATM    6  C5  UNL     1      -2.602  -1.101   0.460  1.00  0.00     0.155 A 
HETATM    7  N4  UNL     1      -1.431  -1.534   0.962  1.00  0.00    -0.174 N 
ATOM      8  H4  UNL     1      -1.406  -2.386   1.522  1.00  0.00     0.186 HD
HETATM    9  C6  UNL     1      -0.292  -0.855   0.733  1.00  0.00     0.686 A 
HETATM   10  N9  UNL     1      -0.364   0.265  -0.009  1.00  0.00    -0.176 N 
ATOM     11  H9  UNL     1       0.500   0.779  -0.181  1.00  0.00     0.186 HD
HETATM   12  C14 UNL     1      -1.494   0.747  -0.535  1.00  0.00     0.132 A 
HETATM   13  N10 UNL     1      -1.527   1.838  -1.251  1.00  0.00    -0.384 N 
ATOM     14 1H10 UNL     1      -2.389   2.206  -1.652  1.00  0.00     0.157 HD
ATOM     15 2H10 UNL     1      -0.664   2.353  -1.425  1.00  0.00     0.157 HD
HETATM   16  C15 UNL     1      -2.661   0.050  -0.300  1.00  0.00     0.099 A 
ENDROOT
BRANCH   9  17
HETATM   17  N5  UNL     1       0.833  -1.275   1.217  1.00  0.00    -0.186 N 
ATOM     18  H5  UNL     1       0.834  -2.130   1.773  1.00  0.00     0.184 HD
BRANCH  17  19
HETATM   19  C7  UNL     1       2.058  -0.604   1.010  1.00  0.00     0.116 A 
HETATM   20  C8  UNL     1       2.382   0.538   1.710  1.00  0.00     0.140 A 
HETATM   21  N6  UNL     1       3.554   1.130   1.474  1.00  0.00    -0.199 N 
HETATM   22  C9  UNL     1       4.470   0.701   0.591  1.00  0.00     0.681 A 
ATOM     23  H6  UNL     1       3.771   1.973   2.005  1.00  0.00     0.183 HD
HETATM   24  N8  UNL     1       4.159  -0.426  -0.104  1.00  0.00    -0.168 N 
HETATM   25  C12 UNL     1       2.989  -1.059   0.099  1.00  0.00     0.186 A 
ATOM     26  H8  UNL     1       4.820  -0.796  -0.787  1.00  0.00     0.186 HD
BRANCH  22  27
HETATM   27  N7  UNL     1       5.697   1.384   0.393  1.00  0.00    -0.226 N 
HETATM   28  C10 UNL     1       5.944   2.573   1.175  1.00  0.00     0.168 C 
HETATM   29  C11 UNL     1       6.695   0.937  -0.552  1.00  0.00     0.168 C 
ENDBRANCH  22  27
BRANCH  25  30
HETATM   30  O1  UNL     1       2.654  -2.220  -0.609  1.00  0.00    -0.339 OA
HETATM   31  C13 UNL     1       3.519  -2.785  -1.567  1.00  0.00     0.211 C 
ENDBRANCH  25  30
ENDBRANCH  17  19
ENDBRANCH   9  17
BRANCH   1  32
HETATM   32  N1  UNL     1      -4.404   1.204  -1.377  1.00  0.00    -0.375 N 
ATOM     33  H1  UNL     1      -3.762   1.918  -1.721  1.00  0.00     0.161 HD
BRANCH  32  34
HETATM   34  C2  UNL     1      -5.819   1.265  -1.682  1.00  0.00     0.116 C 
HETATM   35  C1  UNL     1      -6.570   2.011  -0.598  1.00  0.00     0.026 C 
ENDBRANCH  32  34
ENDBRANCH   1  32
TORSDOF 6
