REMARK  1 active torsions:
REMARK  status: ('A' for Active; 'I' for Inactive)
REMARK    1  A    between atoms: N1_6  and  C6_7 
ROOT
HETATM    1  C1  UNL     1       4.320   0.388  -0.415  1.00  0.00     0.010 C 
HETATM    2  C2  UNL     1       3.004  -0.245  -0.799  1.00  0.00    -0.018 C 
HETATM    3  C3  UNL     1       2.452  -0.957   0.410  1.00  0.00     0.011 C 
HETATM    4  C4  UNL     1       1.446  -0.043   1.049  1.00  0.00     0.020 C 
HETATM    5  C5  UNL     1       0.121  -0.779   1.124  1.00  0.00     0.278 C 
HETATM    6  N1  UNL     1      -0.581  -0.250  -0.006  1.00  0.00     0.095 N 
HETATM    7  C10 UNL     1      -0.271   1.146  -0.100  1.00  0.00     0.278 C 
HETATM    8  C11 UNL     1       1.242   1.123   0.108  1.00  0.00     0.020 C 
HETATM    9  C12 UNL     1       1.951   0.766  -1.171  1.00  0.00     0.011 C 
ENDROOT
BRANCH   6  10
HETATM   10  C6  UNL     1      -1.952  -0.573   0.059  1.00  0.00     0.250 C 
HETATM   11  C7  UNL     1      -2.794   0.077  -1.021  1.00  0.00     0.065 C 
HETATM   12  C8  UNL     1      -4.193  -0.223  -0.481  1.00  0.00     0.234 C 
HETATM   13  N2  UNL     1      -4.055  -0.427   0.939  1.00  0.00    -0.073 N 
HETATM   14  C9  UNL     1      -2.675  -0.086   1.287  1.00  0.00     0.268 C 
ATOM     15  H22 UNL     1      -4.745   0.087   1.487  1.00  0.00     0.277 HD
ATOM     16  H21 UNL     1      -4.324  -1.365   1.237  1.00  0.00     0.277 HD
ENDBRANCH   6  10
TORSDOF 1
