REMARK  2 active torsions:
REMARK  status: ('A' for Active; 'I' for Inactive)
REMARK    1  A    between atoms: O1_2  and  C2_3 
REMARK    2  A    between atoms: C3_4  and  O2_5 
ROOT
HETATM    1  C2  UNL     1      -0.745  -0.060   0.195  1.00  0.00     0.204 C 
HETATM    2  C3  UNL     1      -0.106   1.163  -0.446  1.00  0.00     0.288 C 
HETATM    3  O3  UNL     1       0.717   0.853  -1.497  1.00  0.00    -0.351 OA
HETATM    4  C4  UNL     1       1.677  -0.101  -1.192  1.00  0.00     0.151 C 
HETATM    5  C5  UNL     1       2.320   0.151   0.157  1.00  0.00     0.200 C 
HETATM    6  O4  UNL     1       1.390  -0.196   1.097  1.00  0.00    -0.381 OA
HETATM    7  C6  UNL     1       0.430  -0.994   0.530  1.00  0.00     0.157 C 
HETATM    8  C7  UNL     1       0.965  -1.418  -0.846  1.00  0.00     0.069 C 
ENDROOT
BRANCH   1   9
HETATM    9  O1  UNL     1      -1.407   0.339   1.339  1.00  0.00    -0.383 OA
HETATM   10  C1  UNL     1      -2.775  -0.005   1.240  1.00  0.00     0.202 C 
ENDBRANCH   1   9
BRANCH   2  11
HETATM   11  O2  UNL     1      -1.154   1.954  -0.915  1.00  0.00    -0.369 OA
ATOM     12  H2  UNL     1      -0.755   2.718  -1.315  1.00  0.00     0.212 HD
ENDBRANCH   2  11
TORSDOF 2
