REMARK  2 active torsions:
REMARK  status: ('A' for Active; 'I' for Inactive)
REMARK    1  A    between atoms: C5_6  and  C6_7 
REMARK    2  A    between atoms: C7_9  and  O3_11 
ROOT
HETATM    1  C1  UNL     1      -3.149  -1.068   0.752  1.00  0.00     0.078 C 
HETATM    2  C2  UNL     1      -2.054  -0.146   0.249  1.00  0.00     0.157 C 
HETATM    3  C3  UNL     1      -2.683   1.246   0.118  1.00  0.00     0.078 C 
HETATM    4  O1  UNL     1      -1.563  -0.583  -0.972  1.00  0.00    -0.353 OA
HETATM    5  C4  UNL     1      -0.168  -0.420  -0.933  1.00  0.00     0.206 C 
HETATM    6  C5  UNL     1       0.021   0.408   0.289  1.00  0.00     0.183 C 
HETATM    7  O4  UNL     1      -0.979  -0.092   1.136  1.00  0.00    -0.346 OA
ENDROOT
BRANCH   6   8
HETATM    8  C6  UNL     1       1.382   0.359   0.888  1.00  0.00     0.218 A 
HETATM    9  O2  UNL     1       1.899  -0.920   1.266  1.00  0.00    -0.340 OA
HETATM   10  C7  UNL     1       2.576  -0.123   0.247  1.00  0.00     0.187 A 
HETATM   11  C8  UNL     1       3.927   0.415   0.729  1.00  0.00     0.082 C 
BRANCH  10  12
HETATM   12  O3  UNL     1       2.631  -0.808  -0.935  1.00  0.00    -0.363 OA
ATOM     13  H3  UNL     1       3.420  -1.126  -1.358  1.00  0.00     0.213 HD
ENDBRANCH  10  12
ENDBRANCH   6   8
TORSDOF 2
