REMARK  3 active torsions:
REMARK  status: ('A' for Active; 'I' for Inactive)
REMARK    1  A    between atoms: O1_2  and  C2_3 
REMARK    2  A    between atoms: C2_3  and  O2_4 
REMARK    3  A    between atoms: C2_3  and  C3_6 
ROOT
HETATM    1  C3  UNL     1       0.302  -0.538   0.669  1.00  0.00     0.277 C 
HETATM    2  C4  UNL     1      -0.830  -1.426   0.213  1.00  0.00     0.047 C 
HETATM    3  C5  UNL     1      -2.036  -0.590   0.471  1.00  0.00     0.018 C 
HETATM    4  C6  UNL     1      -2.158   0.393  -0.691  1.00  0.00     0.036 C 
HETATM    5  C7  UNL     1      -0.887   1.197  -0.513  1.00  0.00     0.273 C 
HETATM    6  N1  UNL     1      -0.299   0.781   0.764  1.00  0.00     0.098 N 
HETATM    7  C8  UNL     1      -1.511   0.400   1.524  1.00  0.00     0.277 C 
ENDROOT
BRANCH   1   8
HETATM    8  C2  UNL     1       1.482  -0.593  -0.263  1.00  0.00     0.289 C 
BRANCH   8   9
HETATM    9  O1  UNL     1       2.478   0.259   0.145  1.00  0.00    -0.364 OA
HETATM   10  C1  UNL     1       2.960   1.112  -0.818  1.00  0.00     0.204 C 
ENDBRANCH   8   9
BRANCH   8  11
HETATM   11  O2  UNL     1       2.006  -1.902  -0.129  1.00  0.00    -0.369 OA
ATOM     12  H2  UNL     1       1.317  -2.492  -0.411  1.00  0.00     0.212 HD
ENDBRANCH   8  11
ENDBRANCH   1   8
TORSDOF 3
