REMARK  5 active torsions:
REMARK  status: ('A' for Active; 'I' for Inactive)
REMARK    1  A    between atoms: C2_2  and  C4_4 
REMARK    2  A    between atoms: C5_8  and  N2_9 
REMARK       I    between atoms: N2_9  and  C6_11 
REMARK    3  A    between atoms: C6_11  and  C7_13 
REMARK    4  A    between atoms: C9_22  and  N7_23 
REMARK    5  A    between atoms: N7_23  and  N8_25 
ROOT
HETATM    1  C4  UNL     1      -2.310  -0.566  -0.300  1.00  0.00     0.136 A 
HETATM    2  O1  UNL     1      -1.510  -1.534  -0.744  1.00  0.00    -0.233 OA
HETATM    3  N1  UNL     1      -0.295  -1.140  -0.871  1.00  0.00    -0.242 N 
ATOM      4  H1  UNL     1       0.489  -1.707  -1.195  1.00  0.00     0.196 HD
HETATM    5  C5  UNL     1      -0.238   0.142  -0.505  1.00  0.00     0.160 A 
HETATM    6  C9  UNL     1      -1.527   0.549  -0.128  1.00  0.00     0.130 A 
ENDROOT
BRANCH   5   7
HETATM    7  N2  UNL     1       0.787   0.904  -0.483  1.00  0.00    -0.303 N 
HETATM    8  C6  UNL     1       2.035   0.396  -0.880  1.00  0.00     0.294 C 
HETATM    9  O2  UNL     1       2.225   0.050  -2.083  1.00  0.00    -0.264 OA
ATOM     10  H2  UNL     1       0.700   1.874  -0.179  1.00  0.00     0.171 HD
BRANCH   8  11
HETATM   11  C7  UNL     1       3.152   0.241   0.042  1.00  0.00     0.206 A 
HETATM   12  N3  UNL     1       3.109   0.562   1.346  1.00  0.00    -0.264 N 
HETATM   13  N4  UNL     1       4.274   0.306   1.904  1.00  0.00    -0.225 N 
ATOM     14  H3  UNL     1       2.297   0.946   1.830  1.00  0.00     0.190 HD
HETATM   15  N5  UNL     1       5.088  -0.182   0.981  1.00  0.00    -0.223 N 
ATOM     16  H4  UNL     1       4.510   0.458   2.885  1.00  0.00     0.210 HD
HETATM   17  C8  UNL     1       6.440  -0.579   1.211  1.00  0.00     0.202 C 
HETATM   18  N6  UNL     1       4.393  -0.221  -0.169  1.00  0.00    -0.262 N 
ATOM     19  H6  UNL     1       4.754  -0.551  -1.064  1.00  0.00     0.190 HD
ENDBRANCH   8  11
ENDBRANCH   5   7
BRANCH   6  20
HETATM   20  N7  UNL     1      -1.898   1.835   0.313  1.00  0.00    -0.301 N 
ATOM     21  H7  UNL     1      -1.904   2.010   1.318  1.00  0.00     0.186 HD
BRANCH  20  22
HETATM   22  N8  UNL     1      -2.261   2.894  -0.538  1.00  0.00    -0.344 N 
ATOM     23  H82 UNL     1      -2.250   2.701  -1.540  1.00  0.00     0.176 HD
ATOM     24  H81 UNL     1      -2.530   3.825  -0.219  1.00  0.00     0.176 HD
ENDBRANCH  20  22
ENDBRANCH   6  20
BRANCH   1  25
HETATM   25  C2  UNL     1      -3.726  -0.741  -0.068  1.00  0.00    -0.033 C 
HETATM   26  C1  UNL     1      -4.509   0.112   0.502  1.00  0.00     0.021 C 
HETATM   27  C3  UNL     1      -4.347  -2.037  -0.548  1.00  0.00     0.050 C 
ENDBRANCH   1  25
TORSDOF 5
