REMARK  12 active torsions:
REMARK  status: ('A' for Active; 'I' for Inactive)
REMARK    1  A    between atoms: C2_2  and  C3_3 
REMARK    2  A    between atoms: C3_3  and  N1_4 
REMARK    3  A    between atoms: N3_11  and  C7_13 
REMARK    4  A    between atoms: C7_13  and  C8_14 
REMARK    5  A    between atoms: C8_14  and  C9_15 
REMARK    6  A    between atoms: C9_15  and  C10_16 
REMARK    7  A    between atoms: C16_22  and  N4_23 
REMARK    8  A    between atoms: N4_23  and  S1_25 
REMARK    9  A    between atoms: S1_25  and  C17_28 
REMARK   10  A    between atoms: C17_28  and  C18_29 
REMARK   11  A    between atoms: N6_34  and  C21_35 
REMARK   12  A    between atoms: C21_35  and  C22_36 
ROOT
HETATM    1  N1  UNL     1      -3.513  -2.652  -0.961  1.00  0.00    -0.264 N 
HETATM    2  C4  UNL     1      -2.424  -2.765  -0.189  1.00  0.00     0.282 A 
HETATM    3  O1  UNL     1      -2.059  -3.849   0.289  1.00  0.00    -0.265 OA
HETATM    4  C5  UNL     1      -1.687  -1.614   0.073  1.00  0.00     0.148 A 
HETATM    5  N2  UNL     1      -0.583  -1.660   0.817  1.00  0.00    -0.332 N 
ATOM      6  H2  UNL     1      -0.302  -2.562   1.201  1.00  0.00     0.168 HD
HETATM    7  C6  UNL     1       0.198  -0.570   1.098  1.00  0.00     0.147 A 
HETATM    8  N3  UNL     1       1.202  -0.769   1.810  1.00  0.00    -0.373 N 
ATOM      9  H3  UNL     1       1.283  -1.750   2.079  1.00  0.00     0.161 HD
HETATM   10  C16 UNL     1      -0.237   0.634   0.546  1.00  0.00     0.161 A 
HETATM   11  N5  UNL     1      -1.356   0.713  -0.214  1.00  0.00    -0.323 N 
ATOM     12  H5  UNL     1      -1.650   1.608  -0.605  1.00  0.00     0.169 HD
HETATM   13  C20 UNL     1      -2.070  -0.391  -0.446  1.00  0.00     0.146 A 
HETATM   14  N6  UNL     1      -3.168  -0.302  -1.217  1.00  0.00    -0.283 N 
HETATM   15  C24 UNL     1      -3.845  -1.467  -1.437  1.00  0.00     0.333 A 
HETATM   16  O4  UNL     1      -4.896  -1.427  -2.167  1.00  0.00    -0.246 OA
ENDROOT
BRANCH   8  17
HETATM   17  C7  UNL     1       2.246  -0.003   2.337  1.00  0.00     0.121 C 
BRANCH  17  18
HETATM   18  C8  UNL     1       3.504  -0.014   1.449  1.00  0.00     0.020 C 
BRANCH  18  19
HETATM   19  C9  UNL     1       4.003  -1.436   1.307  1.00  0.00     0.006 C 
BRANCH  19  20
HETATM   20  C10 UNL     1       5.227  -1.532   0.458  1.00  0.00    -0.014 C 
HETATM   21  C11 UNL     1       6.387  -0.728   1.019  1.00  0.00     0.004 C 
HETATM   22  C12 UNL     1       7.606  -1.037   0.176  1.00  0.00     0.000 C 
HETATM   23  C13 UNL     1       7.400  -0.618  -1.245  1.00  0.00     0.000 C 
HETATM   24  C14 UNL     1       5.976  -0.312  -1.598  1.00  0.00     0.000 C 
HETATM   25  C15 UNL     1       4.970  -1.230  -0.984  1.00  0.00     0.004 C 
ENDBRANCH  19  20
ENDBRANCH  18  19
ENDBRANCH  17  18
ENDBRANCH   8  17
BRANCH  10  26
HETATM   26  N4  UNL     1       0.466   1.647   0.779  1.00  0.00    -0.267 N 
ATOM     27  H4  UNL     1       1.287   1.464   1.356  1.00  0.00     0.180 HD
BRANCH  26  28
HETATM   28  S1  UNL     1       0.292   3.268   0.304  1.00  0.00     0.232 S 
HETATM   29  O2  UNL     1       1.627   3.954   0.509  1.00  0.00    -0.206 OA
HETATM   30  O3  UNL     1      -0.108   3.344  -1.138  1.00  0.00    -0.206 OA
BRANCH  28  31
HETATM   31  C17 UNL     1      -0.958   4.032   1.308  1.00  0.00     0.163 C 
BRANCH  31  32
HETATM   32  C18 UNL     1      -1.193   5.469   0.964  1.00  0.00     0.012 C 
HETATM   33  C19 UNL     1      -1.639   5.672  -0.458  1.00  0.00     0.006 C 
ENDBRANCH  31  32
ENDBRANCH  28  31
ENDBRANCH  26  28
ENDBRANCH  10  26
BRANCH   1  34
HETATM   34  C3  UNL     1      -4.326  -3.843  -1.269  1.00  0.00     0.137 C 
BRANCH  34  35
HETATM   35  C2  UNL     1      -5.368  -3.907  -0.145  1.00  0.00     0.016 C 
HETATM   36  C1  UNL     1      -6.284  -5.099  -0.338  1.00  0.00     0.006 C 
ENDBRANCH  34  35
ENDBRANCH   1  34
BRANCH  14  37
HETATM   37  C21 UNL     1      -3.726   0.876  -1.785  1.00  0.00     0.135 C 
BRANCH  37  38
HETATM   38  C22 UNL     1      -4.845   1.512  -1.013  1.00  0.00     0.016 C 
HETATM   39  C23 UNL     1      -4.565   1.954   0.366  1.00  0.00     0.006 C 
ENDBRANCH  37  38
ENDBRANCH  14  37
TORSDOF 12
