REMARK  11 active torsions:
REMARK  status: ('A' for Active; 'I' for Inactive)
REMARK    1  A    between atoms: C3_4  and  O1_5 
REMARK    2  A    between atoms: O1_5  and  C4_6 
REMARK    3  A    between atoms: C4_6  and  C5_7 
REMARK    4  A    between atoms: C5_7  and  N2_8 
REMARK    5  A    between atoms: C5_7  and  C6_12 
REMARK    6  A    between atoms: C6_12  and  O2_13 
REMARK    7  A    between atoms: O2_13  and  C7_14 
REMARK    8  A    between atoms: C10_17  and  S1_18 
REMARK    9  A    between atoms: S1_18  and  N3_21 
REMARK   10  A    between atoms: N3_21  and  C11_23 
REMARK   11  A    between atoms: C13_30  and  N6_31 
ROOT
HETATM    1  N1  UNL     1      -4.229   3.150  -2.413  1.00  0.00    -0.191 NA
HETATM    2  C1  UNL     1      -4.429   2.314  -1.621  1.00  0.00     0.107 C 
HETATM    3  C2  UNL     1      -4.667   1.271  -0.669  1.00  0.00     0.137 A 
HETATM    4  C3  UNL     1      -3.626   0.929   0.199  1.00  0.00     0.181 A 
HETATM    5  N5  UNL     1      -3.871  -0.038   1.070  1.00  0.00    -0.169 N 
ATOM      6  H5  UNL     1      -3.136  -0.315   1.720  1.00  0.00     0.186 HD
HETATM    7  C13 UNL     1      -5.046  -0.659   1.123  1.00  0.00     0.679 A 
HETATM    8  N7  UNL     1      -6.052  -0.325   0.281  1.00  0.00    -0.177 N 
ATOM      9  H7  UNL     1      -6.945  -0.815   0.341  1.00  0.00     0.185 HD
HETATM   10  C14 UNL     1      -5.884   0.652  -0.638  1.00  0.00     0.157 A 
HETATM   11  N8  UNL     1      -6.968   0.974  -1.501  1.00  0.00    -0.080 NA
ENDROOT
BRANCH   4  12
HETATM   12  O1  UNL     1      -2.486   1.576   0.107  1.00  0.00    -0.332 OA
BRANCH  12  13
HETATM   13  C4  UNL     1      -1.245   1.811   0.476  1.00  0.00     0.212 C 
BRANCH  13  14
HETATM   14  C5  UNL     1      -0.292   0.643   0.427  1.00  0.00     0.231 C 
BRANCH  14  15
HETATM   15  N2  UNL     1      -0.725  -0.353   1.369  1.00  0.00    -0.071 N 
ATOM     16  H23 UNL     1      -0.831   0.023   2.311  1.00  0.00     0.274 HD
ATOM     17  H22 UNL     1      -1.694  -0.635   1.219  1.00  0.00     0.274 HD
ATOM     18  H21 UNL     1      -0.081  -1.143   1.336  1.00  0.00     0.274 HD
ENDBRANCH  14  15
BRANCH  14  19
HETATM   19  C6  UNL     1      -0.327   0.061  -0.987  1.00  0.00     0.212 C 
BRANCH  19  20
HETATM   20  O2  UNL     1       0.508  -1.066  -0.970  1.00  0.00    -0.334 OA
BRANCH  20  21
HETATM   21  C7  UNL     1       1.851  -1.019  -0.768  1.00  0.00     0.141 A 
HETATM   22  C8  UNL     1       2.522  -2.243  -0.735  1.00  0.00     0.057 A 
HETATM   23  C9  UNL     1       3.872  -2.273  -0.540  1.00  0.00     0.031 A 
HETATM   24  C10 UNL     1       4.561  -1.102  -0.378  1.00  0.00     0.095 A 
HETATM   25  C12 UNL     1       3.848   0.096  -0.419  1.00  0.00     0.115 A 
HETATM   26  N4  UNL     1       2.529   0.132  -0.609  1.00  0.00    -0.345 N 
ATOM     27  H4  UNL     1       2.038   1.025  -0.634  1.00  0.00     0.167 HD
BRANCH  24  28
HETATM   28  S1  UNL     1       6.295  -1.030  -0.075  1.00  0.00     0.266 S 
HETATM   29  O3  UNL     1       6.859  -2.411  -0.266  1.00  0.00    -0.200 OA
HETATM   30  O4  UNL     1       6.888  -0.067  -1.053  1.00  0.00    -0.200 OA
BRANCH  28  31
HETATM   31  N3  UNL     1       6.505  -0.508   1.570  1.00  0.00    -0.258 N 
ATOM     32  H3  UNL     1       5.994  -0.965   2.325  1.00  0.00     0.181 HD
BRANCH  31  33
HETATM   33  C11 UNL     1       7.389   0.554   1.850  1.00  0.00     0.363 C 
HETATM   34  O5  UNL     1       8.023   1.116   0.929  1.00  0.00    -0.283 OA
ENDBRANCH  31  33
ENDBRANCH  28  31
ENDBRANCH  24  28
ENDBRANCH  20  21
ENDBRANCH  19  20
ENDBRANCH  14  19
ENDBRANCH  13  14
ENDBRANCH  12  13
ENDBRANCH   4  12
BRANCH   7  35
HETATM   35  N6  UNL     1      -5.253  -1.613   2.001  1.00  0.00    -0.234 N 
ATOM     36  H62 UNL     1      -4.495  -1.865   2.635  1.00  0.00     0.174 HD
ATOM     37  H61 UNL     1      -6.154  -2.089   2.042  1.00  0.00     0.174 HD
ENDBRANCH   7  35
TORSDOF 11
