REMARK  12 active torsions:
REMARK  status: ('A' for Active; 'I' for Inactive)
REMARK    1  A    between atoms: C2_2  and  C3_3 
REMARK    2  A    between atoms: C3_3  and  N1_4 
REMARK    3  A    between atoms: C5_8  and  C6_9 
REMARK    4  A    between atoms: C6_9  and  C7_10 
REMARK    5  A    between atoms: C7_10  and  N3_11 
REMARK    6  A    between atoms: C7_10  and  C17_27 
REMARK       I    between atoms: N3_11  and  C8_13 
REMARK    7  A    between atoms: C8_13  and  C9_15 
REMARK    8  A    between atoms: C9_15  and  N4_16 
REMARK       I    between atoms: N4_16  and  C10_18 
REMARK    9  A    between atoms: C10_18  and  O3_20 
REMARK       I    between atoms: C17_27  and  N5_29 
REMARK   10  A    between atoms: N6_32  and  C20_33 
REMARK   11  A    between atoms: C20_33  and  C21_34 
REMARK   12  A    between atoms: C21_34  and  N7_35 
ROOT
HETATM    1  C7  UNL     1      -1.313   0.080   0.324  1.00  0.00     0.182 C 
ENDROOT
BRANCH   1   2
HETATM    2  C6  UNL     1      -1.790   1.286   1.111  1.00  0.00     0.093 C 
BRANCH   2   3
HETATM    3  C5  UNL     1      -2.468   2.293   0.260  1.00  0.00     0.028 A 
HETATM    4  N2  UNL     1      -3.773   2.392  -0.021  1.00  0.00    -0.354 N 
HETATM    5  C4  UNL     1      -4.002   3.431  -0.833  1.00  0.00     0.183 A 
ATOM      6  H2  UNL     1      -4.493   1.763   0.334  1.00  0.00     0.166 HD
HETATM    7  N1  UNL     1      -2.798   4.024  -1.085  1.00  0.00    -0.348 N 
HETATM    8  C30 UNL     1      -1.875   3.334  -0.423  1.00  0.00     0.117 A 
BRANCH   7   9
HETATM    9  C3  UNL     1      -2.587   5.195  -1.928  1.00  0.00     0.155 C 
BRANCH   9  10
HETATM   10  C2  UNL     1      -2.686   6.435  -1.125  1.00  0.00    -0.017 C 
HETATM   11  C1  UNL     1      -1.680   7.293  -1.016  1.00  0.00     0.008 C 
ENDBRANCH   9  10
ENDBRANCH   7   9
ENDBRANCH   2   3
ENDBRANCH   1   2
BRANCH   1  12
HETATM   12  N3  UNL     1      -2.527  -0.497  -0.277  1.00  0.00    -0.345 N 
HETATM   13  C8  UNL     1      -2.956  -1.812   0.026  1.00  0.00     0.246 C 
HETATM   14  O1  UNL     1      -2.263  -2.470   0.826  1.00  0.00    -0.271 OA
ATOM     15  H3  UNL     1      -3.074   0.066  -0.929  1.00  0.00     0.163 HD
BRANCH  13  16
HETATM   16  C9  UNL     1      -4.168  -2.424  -0.556  1.00  0.00     0.116 C 
HETATM   17  C12 UNL     1      -5.339  -1.556  -0.241  1.00  0.00     0.041 C 
HETATM   18  C13 UNL     1      -6.567  -1.811  -1.054  1.00  0.00     0.003 C 
HETATM   19  C14 UNL     1      -6.291  -2.496  -2.367  1.00  0.00     0.000 C 
HETATM   20  C15 UNL     1      -4.981  -1.931  -2.877  1.00  0.00     0.003 C 
HETATM   21  C16 UNL     1      -3.903  -2.572  -2.034  1.00  0.00     0.041 C 
BRANCH  16  22
HETATM   22  N4  UNL     1      -4.308  -3.752  -0.001  1.00  0.00    -0.319 N 
HETATM   23  C10 UNL     1      -4.478  -4.084   1.346  1.00  0.00     0.361 C 
HETATM   24  O2  UNL     1      -4.537  -3.265   2.277  1.00  0.00    -0.238 OA
ATOM     25  H4  UNL     1      -4.280  -4.528  -0.662  1.00  0.00     0.166 HD
BRANCH  23  26
HETATM   26  O3  UNL     1      -4.596  -5.432   1.719  1.00  0.00    -0.309 OA
HETATM   27  C11 UNL     1      -4.770  -5.789   3.086  1.00  0.00     0.215 C 
ENDBRANCH  23  26
ENDBRANCH  16  22
ENDBRANCH  13  16
ENDBRANCH   1  12
BRANCH   1  28
HETATM   28  C17 UNL     1      -0.337   0.417  -0.699  1.00  0.00     0.243 C 
HETATM   29  O4  UNL     1      -0.695   0.639  -1.875  1.00  0.00    -0.271 OA
HETATM   30  N5  UNL     1       1.052   0.501  -0.398  1.00  0.00    -0.347 N 
HETATM   31  C18 UNL     1       1.985   0.896  -1.435  1.00  0.00     0.156 C 
HETATM   32  C29 UNL     1       1.494   0.155   0.910  1.00  0.00     0.156 C 
HETATM   33  C19 UNL     1       3.423   0.831  -1.116  1.00  0.00     0.293 C 
HETATM   34  N6  UNL     1       3.701   0.107   0.073  1.00  0.00     0.103 N 
HETATM   35  C28 UNL     1       2.885   0.759   1.116  1.00  0.00     0.293 C 
BRANCH  34  36
HETATM   36  C20 UNL     1       5.038   0.064   0.540  1.00  0.00     0.183 C 
HETATM   37  C23 UNL     1       5.082  -0.790   1.790  1.00  0.00     0.043 C 
HETATM   38  C24 UNL     1       6.088  -1.911   1.717  1.00  0.00     0.003 C 
HETATM   39  C25 UNL     1       5.920  -2.824   0.549  1.00  0.00     0.000 C 
HETATM   40  C26 UNL     1       5.537  -2.004  -0.661  1.00  0.00     0.003 C 
HETATM   41  C27 UNL     1       6.004  -0.583  -0.426  1.00  0.00     0.043 C 
BRANCH  36  42
HETATM   42  C21 UNL     1       5.536   1.447   0.907  1.00  0.00     0.273 C 
BRANCH  42  43
HETATM   43  N7  UNL     1       6.906   1.421   1.392  1.00  0.00    -0.076 N 
HETATM   44  C22 UNL     1       7.371   2.756   1.725  1.00  0.00     0.267 C 
ATOM     45  H72 UNL     1       7.013   0.780   2.178  1.00  0.00     0.276 HD
ATOM     46  H71 UNL     1       7.530   0.961   0.729  1.00  0.00     0.276 HD
ENDBRANCH  42  43
ENDBRANCH  36  42
ENDBRANCH  34  36
ENDBRANCH   1  28
TORSDOF 12
