REMARK  3 active torsions:
REMARK  status: ('A' for Active; 'I' for Inactive)
REMARK    1  A    between atoms: N1_1  and  C1_4 
REMARK    2  A    between atoms: C4_7  and  N2_8 
REMARK    3  A    between atoms: N4_18  and  N5_19 
ROOT
HETATM    1  C1  UNL     1       1.190  -0.921   0.003  1.00  0.00     0.138 A 
HETATM    2  C2  UNL     1      -0.020  -0.248   0.005  1.00  0.00     0.039 A 
HETATM    3  C3  UNL     1      -1.236  -0.899   0.025  1.00  0.00     0.053 A 
HETATM    4  C4  UNL     1      -2.455  -0.226   0.027  1.00  0.00     0.103 A 
HETATM    5  C5  UNL     1      -2.388   1.152   0.008  1.00  0.00     0.038 A 
HETATM    6  C6  UNL     1      -1.183   1.812  -0.012  1.00  0.00     0.033 A 
HETATM    7  C7  UNL     1       0.024   1.126  -0.014  1.00  0.00     0.050 A 
HETATM    8  N3  UNL     1       1.206   1.768  -0.034  1.00  0.00    -0.306 N 
ATOM      9  H3  UNL     1       1.221   2.788  -0.049  1.00  0.00     0.171 HD
HETATM   10  C8  UNL     1       2.375   1.089  -0.035  1.00  0.00     0.347 A 
HETATM   11  O3  UNL     1       3.429   1.777  -0.054  1.00  0.00    -0.245 OA
HETATM   12  N4  UNL     1       2.363  -0.255  -0.017  1.00  0.00    -0.195 N 
ENDROOT
BRANCH   1  13
HETATM   13  N1  UNL     1       1.233  -2.177   0.020  1.00  0.00    -0.383 N 
ATOM     14  H12 UNL     1       0.346  -2.681   0.035  1.00  0.00     0.157 HD
ATOM     15  H11 UNL     1       2.124  -2.673   0.019  1.00  0.00     0.157 HD
ENDBRANCH   1  13
BRANCH  12  16
HETATM   16  N5  UNL     1       3.612  -0.884  -0.020  1.00  0.00    -0.333 N 
ATOM     17  H52 UNL     1       3.603  -1.904  -0.006  1.00  0.00     0.177 HD
ATOM     18  H51 UNL     1       4.499  -0.380  -0.035  1.00  0.00     0.177 HD
ENDBRANCH  12  16
BRANCH   4  19
HETATM   19  N2  UNL     1      -3.692  -0.909   0.048  1.00  0.00    -0.116 N 
HETATM   20  O1  UNL     1      -4.735  -0.230   0.048  1.00  0.00    -0.532 OA
HETATM   21  O2  UNL     1      -3.814  -2.266   0.067  1.00  0.00    -0.532 OA
ENDBRANCH   4  19
TORSDOF 3
