REMARK  5 active torsions:
REMARK  status: ('A' for Active; 'I' for Inactive)
REMARK    1  A    between atoms: C1_2  and  C2_3 
REMARK       I    between atoms: C1_2  and  N1_5 
REMARK    2  A    between atoms: N1_5  and  C3_7 
REMARK    3  A    between atoms: C3_7  and  C4_8 
REMARK    4  A    between atoms: C4_8  and  C5_9 
REMARK    5  A    between atoms: C4_8  and  N6_24 
ROOT
HETATM    1  C4  UNL     1      -0.374   0.326  -0.469  1.00  0.00     0.165 C 
ENDROOT
BRANCH   1   2
HETATM    2  C3  UNL     1      -0.796   1.327   0.624  1.00  0.00     0.155 C 
BRANCH   2   3
HETATM    3  N1  UNL     1      -2.201   1.308   0.833  1.00  0.00    -0.358 N 
HETATM    4  C1  UNL     1      -2.791   2.156   1.797  1.00  0.00     0.227 C 
HETATM    5  O1  UNL     1      -2.086   2.956   2.501  1.00  0.00    -0.273 OA
ATOM      6  H1  UNL     1      -2.787   0.679   0.284  1.00  0.00     0.162 HD
BRANCH   4   7
HETATM    7  C2  UNL     1      -4.256   2.173   2.053  1.00  0.00     0.188 C 
HETATM    8  S1  UNL     1      -5.080   3.404   1.007  1.00  0.00    -0.088 SA
ENDBRANCH   4   7
ENDBRANCH   2   3
ENDBRANCH   1   2
BRANCH   1   9
HETATM    9  C5  UNL     1       1.088   0.458  -0.573  1.00  0.00     0.108 A 
HETATM   10  N2  UNL     1       2.001  -0.060   0.250  1.00  0.00    -0.337 N 
HETATM   11  C6  UNL     1       3.239   0.264  -0.154  1.00  0.00     0.147 A 
ATOM     12  H2  UNL     1       1.788  -0.624   1.073  1.00  0.00     0.167 HD
HETATM   13  C7  UNL     1       4.520  -0.012   0.334  1.00  0.00     0.280 A 
HETATM   14  C9  UNL     1       3.075   1.025  -1.292  1.00  0.00     0.143 A 
HETATM   15  O2  UNL     1       4.649  -0.708   1.374  1.00  0.00    -0.265 OA
HETATM   16  N3  UNL     1       5.560   0.492  -0.351  1.00  0.00    -0.273 N 
HETATM   17  C8  UNL     1       5.377   1.233  -1.459  1.00  0.00     0.328 A 
ATOM     18  H3  UNL     1       6.509   0.309  -0.024  1.00  0.00     0.173 HD
HETATM   19  O3  UNL     1       6.427   1.667  -2.038  1.00  0.00    -0.247 OA
HETATM   20  N4  UNL     1       4.153   1.508  -1.942  1.00  0.00    -0.292 N 
ATOM     21  H4  UNL     1       4.042   2.072  -2.785  1.00  0.00     0.172 HD
HETATM   22  N5  UNL     1       1.742   1.131  -1.530  1.00  0.00    -0.328 N 
ATOM     23  H5  UNL     1       1.312   1.636  -2.305  1.00  0.00     0.169 HD
ENDBRANCH   1   9
BRANCH   1  24
HETATM   24  N6  UNL     1      -0.889  -0.962  -0.227  1.00  0.00    -0.397 N 
HETATM   25  C10 UNL     1      -0.498  -1.651   0.945  1.00  0.00     0.145 C 
HETATM   26  C11 UNL     1      -1.408  -2.851   1.144  1.00  0.00     0.251 C 
HETATM   27  N7  UNL     1      -1.354  -3.747   0.008  1.00  0.00    -0.072 N 
HETATM   28  C12 UNL     1      -1.757  -3.044  -1.178  1.00  0.00     0.251 C 
ATOM     29  H72 UNL     1      -0.438  -4.183  -0.095  1.00  0.00     0.277 HD
ATOM     30  H71 UNL     1      -1.902  -4.594   0.159  1.00  0.00     0.277 HD
HETATM   31  C13 UNL     1      -1.001  -1.751  -1.405  1.00  0.00     0.145 C 
ENDBRANCH   1  24
TORSDOF 5
