REMARK  8 active torsions:
REMARK  status: ('A' for Active; 'I' for Inactive)
REMARK    1  A    between atoms: N1_1  and  C1_4 
REMARK    2  A    between atoms: C4_13  and  C5_14 
REMARK       I    between atoms: C5_14  and  N5_16 
REMARK    3  A    between atoms: N5_16  and  C6_18 
REMARK    4  A    between atoms: C6_18  and  C12_27 
REMARK    5  A    between atoms: C7_19  and  O3_20 
REMARK    6  A    between atoms: C7_19  and  N6_22 
REMARK    7  A    between atoms: C12_27  and  N7_28 
REMARK    8  A    between atoms: C12_27  and  C13_32 
ROOT
HETATM    1  C5  UNL     1       2.154   1.179  -0.016  1.00  0.00     0.263 C 
HETATM    2  O2  UNL     1       2.320   2.341  -0.528  1.00  0.00    -0.267 OA
HETATM    3  N5  UNL     1       1.087   0.879   0.813  1.00  0.00    -0.320 N 
ATOM      4  H5  UNL     1       1.288   0.810   1.811  1.00  0.00     0.169 HD
ENDROOT
BRANCH   3   5
HETATM    5  C6  UNL     1      -0.169   0.672   0.444  1.00  0.00     0.102 C 
HETATM    6  C7  UNL     1      -1.063   0.387   1.502  1.00  0.00     0.164 C 
BRANCH   6   7
HETATM    7  O3  UNL     1      -0.474   0.387   2.702  1.00  0.00    -0.345 OA
ATOM      8  H3  UNL     1      -1.075   0.196   3.413  1.00  0.00     0.219 HD
ENDBRANCH   6   7
BRANCH   6   9
HETATM    9  N6  UNL     1      -2.436   0.103   1.578  1.00  0.00    -0.360 N 
HETATM   10  C8  UNL     1      -3.546  -0.068   0.700  1.00  0.00     0.125 C 
HETATM   11  C9  UNL     1      -4.349  -1.222   1.323  1.00  0.00     0.021 C 
HETATM   12  C10 UNL     1      -3.790  -1.389   2.707  1.00  0.00     0.021 C 
HETATM   13  C11 UNL     1      -3.101  -0.072   2.928  1.00  0.00     0.125 C 
ENDBRANCH   6   9
BRANCH   5  14
HETATM   14  C12 UNL     1      -0.446   0.773  -0.979  1.00  0.00     0.325 C 
BRANCH  14  15
HETATM   15  N7  UNL     1      -0.781  -0.459  -1.649  1.00  0.00    -0.061 N 
ATOM     16  H73 UNL     1      -0.049  -1.150  -1.488  1.00  0.00     0.275 HD
ATOM     17  H72 UNL     1      -1.565  -0.908  -1.175  1.00  0.00     0.275 HD
ATOM     18  H71 UNL     1      -0.975  -0.388  -2.648  1.00  0.00     0.275 HD
ENDBRANCH  14  15
BRANCH  14  19
HETATM   19  C13 UNL     1      -1.416   1.823  -1.372  1.00  0.00     0.268 C 
HETATM   20  N8  UNL     1      -2.309   1.604  -2.431  1.00  0.00    -0.060 NA
HETATM   21  O4  UNL     1      -1.426   2.902  -0.753  1.00  0.00    -0.274 OA
ENDBRANCH  14  19
ENDBRANCH   5  14
ENDBRANCH   3   5
BRANCH   1  22
HETATM   22  C4  UNL     1       3.153   0.181  -0.355  1.00  0.00     0.117 A 
HETATM   23  C1  UNL     1       3.058  -1.076   0.184  1.00  0.00     0.122 A 
HETATM   24  N2  UNL     1       4.033  -1.968  -0.164  1.00  0.00    -0.294 N 
HETATM   25  C2  UNL     1       5.035  -1.627  -0.995  1.00  0.00     0.327 A 
ATOM     26  H2  UNL     1       4.000  -2.914   0.215  1.00  0.00     0.172 HD
HETATM   27  O1  UNL     1       5.917  -2.470  -1.297  1.00  0.00    -0.247 OA
HETATM   28  N3  UNL     1       5.106  -0.388  -1.510  1.00  0.00    -0.296 N 
HETATM   29  C3  UNL     1       4.183   0.539  -1.211  1.00  0.00     0.139 A 
ATOM     30  H3  UNL     1       5.873  -0.148  -2.138  1.00  0.00     0.171 HD
HETATM   31  N4  UNL     1       4.283   1.838  -1.770  1.00  0.00    -0.081 NA
BRANCH  23  32
HETATM   32  N1  UNL     1       2.128  -1.467   0.995  1.00  0.00    -0.384 N 
ATOM     33  H12 UNL     1       2.057  -2.402   1.396  1.00  0.00     0.157 HD
ATOM     34  H11 UNL     1       1.400  -0.801   1.255  1.00  0.00     0.157 HD
ENDBRANCH  23  32
ENDBRANCH   1  22
TORSDOF 8
