REMARK  4 active torsions:
REMARK  status: ('A' for Active; 'I' for Inactive)
REMARK    1  A    between atoms: C4_7  and  C5_8 
REMARK    2  A    between atoms: C5_8  and  C6_9 
REMARK    3  A    between atoms: C7_10  and  O2_11 
REMARK    4  A    between atoms: N4_16  and  O3_17 
ROOT
HETATM    1  C1  UNL     1       4.337   0.472   0.730  1.00  0.00     0.064 C 
HETATM    2  C2  UNL     1       3.092   0.366   0.265  1.00  0.00     0.101 A 
HETATM    3  N1  UNL     1       2.799   0.656  -1.013  1.00  0.00    -0.309 N 
ATOM      4  H1  UNL     1       3.543   0.963  -1.640  1.00  0.00     0.170 HD
HETATM    5  C3  UNL     1       1.543   0.549  -1.482  1.00  0.00     0.262 A 
HETATM    6  O1  UNL     1       1.282   0.828  -2.700  1.00  0.00    -0.267 OA
HETATM    7  C4  UNL     1       0.486   0.140  -0.693  1.00  0.00     0.102 A 
HETATM    8  C8  UNL     1       0.797  -0.155   0.619  1.00  0.00     0.262 A 
HETATM    9  O4  UNL     1      -0.110  -0.531   1.387  1.00  0.00    -0.267 OA
HETATM   10  N5  UNL     1       2.084  -0.035   1.059  1.00  0.00    -0.309 N 
ATOM     11  H5  UNL     1       2.290  -0.259   2.033  1.00  0.00     0.170 HD
ENDROOT
BRANCH   7  12
HETATM   12  C5  UNL     1      -0.738   0.045  -1.186  1.00  0.00     0.060 C 
BRANCH  12  13
HETATM   13  C6  UNL     1      -1.909  -0.373  -0.440  1.00  0.00     0.132 A 
HETATM   14  C7  UNL     1      -2.795   0.452   0.233  1.00  0.00     0.184 A 
HETATM   15  N2  UNL     1      -3.749  -0.332   0.791  1.00  0.00    -0.260 N 
HETATM   16  N3  UNL     1      -3.463  -1.587   0.476  1.00  0.00     0.009 NA
ATOM     17  H2  UNL     1      -4.541  -0.015   1.350  1.00  0.00     0.186 HD
HETATM   18  N4  UNL     1      -2.357  -1.630  -0.266  1.00  0.00    -0.143 N 
BRANCH  14  19
HETATM   19  O2  UNL     1      -2.694   1.820   0.301  1.00  0.00    -0.344 OA
ATOM     20  H2  UNL     1      -3.302   2.386   0.763  1.00  0.00     0.219 HD
ENDBRANCH  14  19
BRANCH  18  21
HETATM   21  O3  UNL     1      -1.838  -2.676  -0.716  1.00  0.00    -0.269 OA
ATOM     22  H3  UNL     1      -2.154  -3.563  -0.593  1.00  0.00     0.246 HD
ENDBRANCH  18  21
ENDBRANCH  12  13
ENDBRANCH   7  12
TORSDOF 4
