REMARK  6 active torsions:
REMARK  status: ('A' for Active; 'I' for Inactive)
REMARK       I    between atoms: N1_2  and  C2_3 
REMARK    1  A    between atoms: N1_2  and  C13_22 
REMARK    2  A    between atoms: C2_3  and  C3_5 
REMARK    3  A    between atoms: C3_5  and  C4_6 
REMARK    4  A    between atoms: C4_6  and  C5_7 
REMARK       I    between atoms: C5_7  and  N2_9 
REMARK    5  A    between atoms: N2_9  and  C6_11 
REMARK       I    between atoms: N3_14  and  C9_15 
REMARK    6  A    between atoms: C9_15  and  C10_17 
ROOT
HETATM    1  C5  UNL     1      -1.269   0.439   0.657  1.00  0.00     0.218 C 
HETATM    2  O2  UNL     1      -1.290   0.174   1.884  1.00  0.00    -0.274 OA
HETATM    3  N2  UNL     1      -2.478   0.805   0.023  1.00  0.00    -0.355 N 
ATOM      4  H2  UNL     1      -2.481   1.025  -0.973  1.00  0.00     0.162 HD
ENDROOT
BRANCH   1   5
HETATM    5  C4  UNL     1      -0.030   0.377  -0.121  1.00  0.00     0.112 C 
BRANCH   5   6
HETATM    6  C3  UNL     1       1.125  -0.028   0.739  1.00  0.00     0.112 C 
BRANCH   6   7
HETATM    7  C2  UNL     1       2.352  -0.078  -0.084  1.00  0.00     0.220 C 
HETATM    8  N1  UNL     1       3.625  -0.438   0.470  1.00  0.00    -0.352 N 
HETATM    9  C1  UNL     1       3.793  -0.774   1.861  1.00  0.00     0.153 C 
HETATM   10  O1  UNL     1       2.235   0.209  -1.298  1.00  0.00    -0.273 OA
BRANCH   8  11
HETATM   11  C13 UNL     1       4.764  -0.465  -0.385  1.00  0.00     0.086 C 
HETATM   12  C14 UNL     1       5.411  -1.823  -0.488  1.00  0.00     0.025 C 
HETATM   13  C15 UNL     1       6.651  -1.631  -1.375  1.00  0.00     0.002 C 
HETATM   14  C16 UNL     1       7.706  -1.030  -0.437  1.00  0.00     0.000 C 
HETATM   15  C17 UNL     1       7.048  -0.184   0.630  1.00  0.00     0.002 C 
HETATM   16  C18 UNL     1       5.808   0.509   0.118  1.00  0.00     0.025 C 
ENDBRANCH   8  11
ENDBRANCH   6   7
ENDBRANCH   5   6
ENDBRANCH   1   5
BRANCH   3  17
HETATM   17  C6  UNL     1      -3.703   0.870   0.772  1.00  0.00     0.104 C 
HETATM   18  C7  UNL     1      -4.308   2.269   0.730  1.00  0.00     0.046 C 
HETATM   19  C8  UNL     1      -5.785   1.929   0.974  1.00  0.00     0.128 C 
HETATM   20  N3  UNL     1      -5.959   0.846   0.034  1.00  0.00    -0.345 N 
HETATM   21  C9  UNL     1      -7.062   0.680  -0.835  1.00  0.00     0.292 C 
HETATM   22  C12 UNL     1      -4.797   0.006   0.180  1.00  0.00     0.151 C 
HETATM   23  O3  UNL     1      -8.011   1.521  -0.836  1.00  0.00    -0.267 OA
BRANCH  21  24
HETATM   24  C10 UNL     1      -7.126  -0.488  -1.765  1.00  0.00     0.319 C 
HETATM   25  C11 UNL     1      -8.398  -0.425  -2.573  1.00  0.00     0.101 C 
HETATM   26  F1  UNL     1      -6.070  -0.480  -2.655  1.00  0.00    -0.196 F 
HETATM   27  F2  UNL     1      -7.118  -1.663  -1.064  1.00  0.00    -0.196 F 
ENDBRANCH  21  24
ENDBRANCH   3  17
TORSDOF 6
