REMARK  4 active torsions:
REMARK  status: ('A' for Active; 'I' for Inactive)
REMARK    1  A    between atoms: C4_7  and  S2_8 
REMARK    2  A    between atoms: S2_8  and  C5_9 
REMARK    3  A    between atoms: C5_9  and  C7_11 
REMARK       I    between atoms: C7_11  and  N2_13 
REMARK    4  A    between atoms: N2_13  and  C8_15 
ROOT
HETATM    1  S2  UNL     1       0.485   0.019  -0.619  1.00  0.00    -0.091 SA
ENDROOT
BRANCH   1   2
HETATM    2  C4  UNL     1       2.281  -0.137  -0.526  1.00  0.00     0.115 A 
HETATM    3  N1  UNL     1       3.207   0.765  -0.748  1.00  0.00    -0.338 N 
HETATM    4  C3  UNL     1       4.480   0.453  -0.625  1.00  0.00     0.096 A 
ATOM      5  H1  UNL     1       2.940   1.712  -1.017  1.00  0.00     0.167 HD
HETATM    6  S1  UNL     1       5.996   1.461  -0.860  1.00  0.00    -0.095 SA
HETATM    7  C13 UNL     1       4.784  -0.811  -0.267  1.00  0.00     0.078 A 
HETATM    8  C2  UNL     1       7.265   0.522   0.019  1.00  0.00     0.117 C 
HETATM    9  C1  UNL     1       8.580   0.499  -0.707  1.00  0.00     0.033 C 
HETATM   10  S4  UNL     1       6.542  -1.150  -0.121  1.00  0.00    -0.104 SA
HETATM   11  S3  UNL     1       3.199  -1.510  -0.119  1.00  0.00    -0.055 SA
ENDBRANCH   1   2
BRANCH   1  12
HETATM   12  C5  UNL     1      -0.174   0.537   0.996  1.00  0.00     0.142 C 
HETATM   13  C6  UNL     1       0.069  -0.590   1.963  1.00  0.00     0.031 C 
BRANCH  12  14
HETATM   14  C7  UNL     1      -1.609   0.872   0.834  1.00  0.00     0.231 C 
HETATM   15  O1  UNL     1      -2.046   2.023   1.086  1.00  0.00    -0.272 OA
HETATM   16  N2  UNL     1      -2.535  -0.103   0.388  1.00  0.00    -0.355 N 
ATOM     17  H2  UNL     1      -2.205  -1.045   0.178  1.00  0.00     0.162 HD
BRANCH  16  18
HETATM   18  C8  UNL     1      -3.917   0.203   0.227  1.00  0.00     0.084 C 
HETATM   19  C9  UNL     1      -4.449  -0.064  -1.160  1.00  0.00     0.025 C 
HETATM   20  C10 UNL     1      -5.955   0.101  -0.925  1.00  0.00     0.002 C 
HETATM   21  C11 UNL     1      -6.182  -0.478   0.455  1.00  0.00     0.002 C 
HETATM   22  C12 UNL     1      -4.814  -0.700   1.066  1.00  0.00     0.025 C 
ENDBRANCH  16  18
ENDBRANCH  12  14
ENDBRANCH   1  12
TORSDOF 4
