REMARK  4 active torsions:
REMARK  status: ('A' for Active; 'I' for Inactive)
REMARK    1  A    between atoms: C6_7  and  C8_9 
REMARK    2  A    between atoms: C8_9  and  O2_10 
REMARK    3  A    between atoms: O2_10  and  C9_11 
REMARK    4  A    between atoms: C18_22  and  O4_23 
ROOT
HETATM    1  C1  UNL     1      -0.822   1.769  -3.086  1.00  0.00     0.019 C 
HETATM    2  C2  UNL     1      -0.481   1.423  -1.867  1.00  0.00    -0.034 C 
HETATM    3  C3  UNL     1       0.834   1.218  -1.223  1.00  0.00     0.033 C 
HETATM    4  C4  UNL     1       2.059   1.278  -1.988  1.00  0.00     0.089 C 
HETATM    5  C5  UNL     1       3.143   0.847  -1.018  1.00  0.00     0.138 C 
HETATM    6  O1  UNL     1       4.252   0.737  -1.464  1.00  0.00    -0.297 OA
HETATM    7  C6  UNL     1       2.881   0.574   0.394  1.00  0.00     0.039 C 
HETATM    8  C7  UNL     1       3.029   1.908   1.147  1.00  0.00     0.025 C 
HETATM    9  C11 UNL     1       1.536  -0.052   0.685  1.00  0.00     0.029 C 
HETATM   10  C12 UNL     1       0.668  -0.135  -0.493  1.00  0.00    -0.027 C 
HETATM   11  C13 UNL     1       1.220  -1.253  -1.402  1.00  0.00     0.016 C 
HETATM   12  C14 UNL     1      -0.743  -0.263  -0.412  1.00  0.00     0.052 C 
HETATM   13  C15 UNL     1      -1.586  -0.545   0.721  1.00  0.00     0.051 C 
HETATM   14  C16 UNL     1      -2.934  -0.213   0.055  1.00  0.00     0.097 C 
HETATM   15  O3  UNL     1      -2.623   0.763  -0.909  1.00  0.00    -0.346 OA
HETATM   16  C17 UNL     1      -1.357   1.129  -0.741  1.00  0.00     0.166 C 
HETATM   17 CL1  UNL     1      -1.067   2.278   0.575  1.00  0.00    -0.083 Cl
HETATM   18  C18 UNL     1      -3.895   0.364   1.068  1.00  0.00     0.156 C 
HETATM   19  C20 UNL     1      -5.277  -0.099   0.596  1.00  0.00     0.036 C 
HETATM   20  C21 UNL     1      -4.985  -1.524   0.153  1.00  0.00     0.014 C 
HETATM   21  C22 UNL     1      -3.649  -1.345  -0.535  1.00  0.00    -0.014 C 
HETATM   22  C23 UNL     1      -2.994  -2.671  -0.624  1.00  0.00     0.018 C 
HETATM   23  C24 UNL     1      -4.008  -0.964  -1.987  1.00  0.00     0.018 C 
ENDROOT
BRANCH  18  24
HETATM   24  O4  UNL     1      -3.767  -0.132   2.338  1.00  0.00    -0.388 OA
HETATM   25  C19 UNL     1      -3.680   0.926   3.234  1.00  0.00     0.202 C 
ENDBRANCH  18  24
BRANCH   7  26
HETATM   26  C8  UNL     1       3.996  -0.352   0.900  1.00  0.00     0.184 C 
BRANCH  26  27
HETATM   27  O2  UNL     1       5.244   0.294   0.745  1.00  0.00    -0.390 OA
BRANCH  27  28
HETATM   28  C9  UNL     1       6.269  -0.534   1.200  1.00  0.00     0.163 C 
HETATM   29  C10 UNL     1       7.618   0.092   1.063  1.00  0.00     0.033 C 
ENDBRANCH  27  28
ENDBRANCH  26  27
ENDBRANCH   7  26
TORSDOF 4
