REMARK  10 active torsions:
REMARK  status: ('A' for Active; 'I' for Inactive)
REMARK    1  A    between atoms: C2_2  and  O1_5 
REMARK    2  A    between atoms: O1_5  and  C5_6 
REMARK       I    between atoms: C5_6  and  N1_8 
REMARK    3  A    between atoms: N1_8  and  C6_10 
REMARK    4  A    between atoms: C6_10  and  C7_11 
REMARK    5  A    between atoms: C7_11  and  N2_13 
REMARK    6  A    between atoms: C7_11  and  C14_22 
REMARK       I    between atoms: N2_13  and  C9_15 
REMARK    7  A    between atoms: C9_15  and  O4_17 
REMARK    8  A    between atoms: O4_17  and  C10_18 
REMARK    9  A    between atoms: C14_22  and  O6_24 
REMARK   10  A    between atoms: O6_24  and  C15_25 
ROOT
HETATM    1  C7  UNL     1       0.046   0.386  -0.236  1.00  0.00     0.151 C 
HETATM    2  C8  UNL     1       0.158   0.455   1.232  1.00  0.00     0.056 C 
ENDROOT
BRANCH   1   3
HETATM    3  C6  UNL     1       1.150   0.878  -1.035  1.00  0.00     0.107 C 
BRANCH   3   4
HETATM    4  N1  UNL     1       2.475   0.483  -0.822  1.00  0.00    -0.314 N 
HETATM    5  C5  UNL     1       3.139  -0.744  -0.793  1.00  0.00     0.365 C 
HETATM    6  O2  UNL     1       2.598  -1.840  -0.965  1.00  0.00    -0.238 OA
ATOM      7  H1  UNL     1       3.098   1.272  -0.648  1.00  0.00     0.170 HD
BRANCH   5   8
HETATM    8  O1  UNL     1       4.514  -0.754  -0.558  1.00  0.00    -0.294 OA
BRANCH   8   9
HETATM    9  C2  UNL     1       5.428  -1.764  -0.448  1.00  0.00     0.061 C 
HETATM   10  C1  UNL     1       5.110  -2.691   0.726  1.00  0.00     0.046 C 
HETATM   11  C3  UNL     1       5.591  -2.566  -1.701  1.00  0.00     0.046 C 
HETATM   12  C4  UNL     1       6.778  -1.099  -0.119  1.00  0.00     0.046 C 
ENDBRANCH   8   9
ENDBRANCH   5   8
ENDBRANCH   3   4
ENDBRANCH   1   3
BRANCH   1  13
HETATM   13  N2  UNL     1      -1.031   1.534  -0.442  1.00  0.00    -0.314 N 
HETATM   14  C9  UNL     1      -0.669   2.750   0.111  1.00  0.00     0.362 C 
HETATM   15  O3  UNL     1       0.399   3.011   0.739  1.00  0.00    -0.238 OA
ATOM     16  H2  UNL     1      -1.911   1.389  -0.937  1.00  0.00     0.166 HD
BRANCH  14  17
HETATM   17  O4  UNL     1      -1.550   3.832  -0.013  1.00  0.00    -0.294 OA
BRANCH  17  18
HETATM   18  C10 UNL     1      -1.318   5.108   0.462  1.00  0.00     0.061 C 
HETATM   19  C11 UNL     1      -2.566   5.942   0.119  1.00  0.00     0.046 C 
HETATM   20  C12 UNL     1      -1.048   5.257   1.916  1.00  0.00     0.046 C 
HETATM   21  C13 UNL     1      -0.165   5.786  -0.305  1.00  0.00     0.046 C 
ENDBRANCH  17  18
ENDBRANCH  14  17
ENDBRANCH   1  13
BRANCH   1  22
HETATM   22  C14 UNL     1      -0.738  -0.742  -0.741  1.00  0.00     0.293 C 
HETATM   23  O5  UNL     1      -0.549  -1.395  -1.783  1.00  0.00    -0.262 OA
BRANCH  22  24
HETATM   24  O6  UNL     1      -1.856  -1.185  -0.064  1.00  0.00    -0.304 OA
BRANCH  24  25
HETATM   25  C15 UNL     1      -2.798  -2.104  -0.190  1.00  0.00     0.114 C 
HETATM   26  C16 UNL     1      -3.858  -1.827   0.936  1.00  0.00     0.053 C 
HETATM   27  C17 UNL     1      -4.418  -3.152   1.207  1.00  0.00     0.065 C 
HETATM   28  C18 UNL     1      -5.037  -3.685  -0.053  1.00  0.00     0.019 C 
HETATM   29  C22 UNL     1      -3.117  -3.989   1.236  1.00  0.00     0.286 C 
HETATM   30  C19 UNL     1      -3.841  -3.706  -0.972  1.00  0.00     0.038 C 
HETATM   31  C20 UNL     1      -3.554  -2.305  -1.469  1.00  0.00     0.050 C 
HETATM   32  C21 UNL     1      -2.602  -3.572  -0.114  1.00  0.00     0.204 C 
HETATM   33  F1  UNL     1      -1.481  -4.135  -0.569  1.00  0.00    -0.233 F 
HETATM   34  F2  UNL     1      -2.303  -3.509   2.254  1.00  0.00    -0.202 F 
HETATM   35  F3  UNL     1      -3.420  -5.310   1.350  1.00  0.00    -0.202 F 
ENDBRANCH  24  25
ENDBRANCH  22  24
ENDBRANCH   1  22
TORSDOF 10
