REMARK  3 active torsions:
REMARK  status: ('A' for Active; 'I' for Inactive)
REMARK    1  A    between atoms: C2_2  and  C3_3 
REMARK    2  A    between atoms: C3_3  and  N1_4 
REMARK    3  A    between atoms: C6_7  and  N2_8 
ROOT
HETATM    1  N1  UNL     1       0.306  -0.647  -0.485  1.00  0.00     0.106 N 
HETATM    2  C4  UNL     1      -0.685  -1.543   0.071  1.00  0.00     0.276 C 
HETATM    3  C5  UNL     1      -1.816  -0.953   0.810  1.00  0.00     0.063 C 
HETATM    4  C6  UNL     1      -2.477   0.023  -0.145  1.00  0.00     0.188 C 
HETATM    5  C7  UNL     1      -1.533   1.043  -0.655  1.00  0.00     0.083 C 
HETATM    6  C8  UNL     1      -0.085   0.723  -0.458  1.00  0.00     0.330 C 
HETATM    7  C9  UNL     1       0.332   1.319   0.814  1.00  0.00     0.095 C 
HETATM    8  N3  UNL     1       0.653   1.798   1.843  1.00  0.00    -0.195 NA
ENDROOT
BRANCH   1   9
HETATM    9  C3  UNL     1       1.575  -0.931   0.121  1.00  0.00     0.273 C 
BRANCH   9  10
HETATM   10  C2  UNL     1       2.822  -0.542  -0.514  1.00  0.00     0.026 C 
HETATM   11  C1  UNL     1       3.176   0.848  -0.818  1.00  0.00     0.007 C 
ENDBRANCH   9  10
ENDBRANCH   1   9
BRANCH   4  12
HETATM   12  N2  UNL     1      -3.626   0.586   0.530  1.00  0.00    -0.075 N 
ATOM     13  H23 UNL     1      -4.269  -0.125   0.879  1.00  0.00     0.274 HD
ATOM     14  H22 UNL     1      -3.391   1.007   1.429  1.00  0.00     0.274 HD
ATOM     15  H21 UNL     1      -4.070   1.242  -0.112  1.00  0.00     0.274 HD
ENDBRANCH   4  12
TORSDOF 3
