REMARK  11 active torsions:
REMARK  status: ('A' for Active; 'I' for Inactive)
REMARK    1  A    between atoms: N1_1  and  C1_4 
REMARK    2  A    between atoms: C2_10  and  N4_11 
REMARK    3  A    between atoms: N4_11  and  C3_13 
REMARK    4  A    between atoms: C4_14  and  N5_15 
REMARK    5  A    between atoms: N5_15  and  C5_17 
REMARK    6  A    between atoms: C5_17  and  C6_18 
REMARK    7  A    between atoms: C6_18  and  O2_19 
REMARK    8  A    between atoms: O2_19  and  C7_20 
REMARK    9  A    between atoms: C9_27  and  C10_28 
REMARK   10  A    between atoms: C11_32  and  C12_33 
REMARK   11  A    between atoms: N11_38  and  N12_39 
ROOT
HETATM    1  C3  UNL     1      -0.560  -1.246  -0.007  1.00  0.00     0.173 A 
HETATM    2  C4  UNL     1       0.356  -0.953   0.982  1.00  0.00     0.149 A 
HETATM    3  N7  UNL     1       0.134   0.091   1.827  1.00  0.00    -0.326 N 
ATOM      4  H7  UNL     1       0.819   0.295   2.555  1.00  0.00     0.168 HD
HETATM    5  C8  UNL     1      -0.956   0.854   1.728  1.00  0.00     0.149 A 
HETATM    6  N8  UNL     1      -1.138   1.923   2.629  1.00  0.00    -0.080 NA
HETATM    7  C9  UNL     1      -1.900   0.596   0.749  1.00  0.00     0.129 A 
HETATM    8  N11 UNL     1      -1.668  -0.427  -0.064  1.00  0.00    -0.237 N 
ENDROOT
BRANCH   1   9
HETATM    9  N4  UNL     1      -0.479  -2.190  -0.863  1.00  0.00    -0.320 N 
ATOM     10  H4  UNL     1      -1.242  -2.276  -1.535  1.00  0.00     0.169 HD
BRANCH   9  11
HETATM   11  C2  UNL     1       0.555  -3.108  -0.959  1.00  0.00     0.175 A 
HETATM   12  C1  UNL     1       1.706  -3.090  -1.732  1.00  0.00     0.167 A 
HETATM   13  N2  UNL     1       2.372  -4.223  -1.484  1.00  0.00    -0.222 N 
HETATM   14  O1  UNL     1       1.692  -4.890  -0.628  1.00  0.00    -0.153 OA
ATOM     15  H2  UNL     1       3.259  -4.504  -1.901  1.00  0.00     0.198 HD
HETATM   16  N3  UNL     1       0.618  -4.296  -0.279  1.00  0.00    -0.222 N 
ATOM     17  H3  UNL     1      -0.071  -4.644   0.388  1.00  0.00     0.198 HD
BRANCH  12  18
HETATM   18  N1  UNL     1       2.035  -2.128  -2.539  1.00  0.00    -0.381 N 
ATOM     19  H12 UNL     1       2.882  -2.115  -3.108  1.00  0.00     0.157 HD
ATOM     20  H11 UNL     1       1.527  -1.264  -2.728  1.00  0.00     0.157 HD
ENDBRANCH  12  18
ENDBRANCH   9  11
ENDBRANCH   1   9
BRANCH   2  21
HETATM   21  N5  UNL     1       1.394  -1.671   1.072  1.00  0.00    -0.371 N 
ATOM     22  H5  UNL     1       1.517  -2.439   0.412  1.00  0.00     0.161 HD
BRANCH  21  23
HETATM   23  C5  UNL     1       2.401  -1.448   2.062  1.00  0.00     0.148 C 
BRANCH  23  24
HETATM   24  C6  UNL     1       3.379  -0.391   1.631  1.00  0.00     0.199 C 
BRANCH  24  25
HETATM   25  O2  UNL     1       4.042  -0.774   0.421  1.00  0.00    -0.305 OA
BRANCH  25  26
HETATM   26  C7  UNL     1       4.992   0.080  -0.153  1.00  0.00     0.372 C 
HETATM   27  N6  UNL     1       5.698  -0.213  -1.344  1.00  0.00    -0.032 NA
HETATM   28  O3  UNL     1       5.201   1.168   0.462  1.00  0.00    -0.242 OA
ENDBRANCH  25  26
ENDBRANCH  24  25
ENDBRANCH  23  24
ENDBRANCH  21  23
ENDBRANCH   2  21
BRANCH   8  29
HETATM   29  N12 UNL     1      -2.609  -0.730  -1.059  1.00  0.00    -0.336 N 
ATOM     30 2H12 UNL     1      -2.431  -1.516  -1.684  1.00  0.00     0.177 HD
ATOM     31 1H12 UNL     1      -3.429  -0.124  -1.101  1.00  0.00     0.177 HD
ENDBRANCH   8  29
BRANCH   7  32
HETATM   32  C10 UNL     1      -3.101   1.439   0.646  1.00  0.00     0.114 A 
HETATM   33  N9  UNL     1      -4.033   1.686   1.582  1.00  0.00    -0.256 N 
HETATM   34  O4  UNL     1      -4.931   2.502   1.103  1.00  0.00    -0.228 OA
ATOM     35  H9  UNL     1      -4.038   1.295   2.524  1.00  0.00     0.195 HD
HETATM   36  C11 UNL     1      -4.678   2.840  -0.118  1.00  0.00     0.201 A 
HETATM   37  C13 UNL     1      -3.493   2.166  -0.452  1.00  0.00     0.120 A 
HETATM   38  N10 UNL     1      -2.863   2.273  -1.706  1.00  0.00    -0.097 NA
BRANCH  36  39
HETATM   39  C12 UNL     1      -5.417   3.721  -1.014  1.00  0.00     0.238 C 
HETATM   40  O5  UNL     1      -6.469   4.289  -0.650  1.00  0.00    -0.642 OA
HETATM   41  O6  UNL     1      -4.960   3.945  -2.302  1.00  0.00    -0.642 OA
ENDBRANCH  36  39
ENDBRANCH   7  32
TORSDOF 11
