REMARK  3 active torsions:
REMARK  status: ('A' for Active; 'I' for Inactive)
REMARK    1  A    between atoms: N1_1  and  N2_4 
REMARK    2  A    between atoms: C1_6  and  N3_7 
REMARK    3  A    between atoms: C7_14  and  N4_15 
ROOT
HETATM    1  N3  UNL     1       1.493  -1.000  -0.030  1.00  0.00    -0.356 N 
ATOM      2  H3  UNL     1       1.706  -1.925  -0.404  1.00  0.00     0.166 HD
HETATM    3  C2  UNL     1       0.273  -0.635   0.131  1.00  0.00     0.018 C 
HETATM    4  C3  UNL     1      -0.156   0.663   0.657  1.00  0.00     0.054 C 
HETATM    5  C4  UNL     1      -1.287   1.295  -0.078  1.00  0.00     0.006 C 
HETATM    6  C5  UNL     1      -2.265   0.360  -0.677  1.00  0.00     0.003 C 
HETATM    7  C6  UNL     1      -1.670  -0.898  -1.244  1.00  0.00     0.039 C 
HETATM    8  C7  UNL     1      -0.783  -1.611  -0.249  1.00  0.00     0.228 C 
ENDROOT
BRANCH   1   9
HETATM    9  C1  UNL     1       2.555  -0.101   0.318  1.00  0.00     0.196 C 
HETATM   10  N2  UNL     1       3.027   0.621  -0.642  1.00  0.00    -0.303 N 
ATOM     11  H2  UNL     1       2.659   0.550  -1.591  1.00  0.00     0.187 HD
BRANCH  10  12
HETATM   12  N1  UNL     1       4.058   1.500  -0.328  1.00  0.00    -0.344 N 
ATOM     13  H12 UNL     1       4.415   1.559   0.626  1.00  0.00     0.176 HD
ATOM     14  H11 UNL     1       4.431   2.071  -1.087  1.00  0.00     0.176 HD
ENDBRANCH  10  12
ENDBRANCH   1   9
BRANCH   8  15
HETATM   15  N4  UNL     1      -1.568  -1.982   0.907  1.00  0.00    -0.070 N 
ATOM     16  H43 UNL     1      -0.984  -2.332   1.666  1.00  0.00     0.275 HD
ATOM     17  H42 UNL     1      -1.958  -1.166   1.379  1.00  0.00     0.275 HD
ATOM     18  H41 UNL     1      -2.292  -2.651   0.646  1.00  0.00     0.275 HD
ENDBRANCH   8  15
TORSDOF 3
