REMARK  8 active torsions:
REMARK  status: ('A' for Active; 'I' for Inactive)
REMARK    1  A    between atoms: C5_5  and  C6_6 
REMARK    2  A    between atoms: C9_9  and  O1_10 
REMARK    3  A    between atoms: C10_12  and  C11_13 
REMARK    4  A    between atoms: C11_13  and  C12_14 
REMARK    5  A    between atoms: C12_14  and  C13_15 
REMARK    6  A    between atoms: C13_15  and  C14_16 
REMARK    7  A    between atoms: C17_19  and  C18_20 
REMARK    8  A    between atoms: C23_29  and  C24_30 
ROOT
HETATM    1  C6  UNL     1      -0.600  -0.016  -0.822  1.00  0.00     0.032 C 
HETATM    2  C7  UNL     1       0.524  -0.597  -0.451  1.00  0.00     0.049 C 
HETATM    3  C8  UNL     1       0.780  -1.294   0.870  1.00  0.00     0.098 C 
HETATM    4  C9  UNL     1       1.904  -2.300   0.276  1.00  0.00     0.153 C 
HETATM    5  C10 UNL     1       2.749  -1.220  -0.204  1.00  0.00     0.157 C 
HETATM    6  O2  UNL     1       1.678  -0.655  -1.174  1.00  0.00    -0.347 OA
ENDROOT
BRANCH   1   7
HETATM    7  C5  UNL     1      -1.794   0.067   0.066  1.00  0.00     0.006 C 
HETATM    8  C4  UNL     1      -2.914   0.586  -0.330  1.00  0.00    -0.071 C 
HETATM    9  C2  UNL     1      -4.180   0.780   0.419  1.00  0.00    -0.019 C 
HETATM   10  C21 UNL     1      -3.264   0.866  -1.772  1.00  0.00     0.035 C 
HETATM   11  C1  UNL     1      -4.036   0.250   1.799  1.00  0.00     0.020 C 
HETATM   12  C3  UNL     1      -4.442   2.277   0.494  1.00  0.00     0.020 C 
HETATM   13  C23 UNL     1      -5.156   0.077  -0.469  1.00  0.00     0.028 C 
HETATM   14  C22 UNL     1      -4.632   0.299  -1.899  1.00  0.00     0.012 C 
BRANCH  13  15
HETATM   15  C24 UNL     1      -6.546   0.660  -0.490  1.00  0.00     0.191 C 
HETATM   16  C25 UNL     1      -7.194   0.929   0.814  1.00  0.00     0.035 C 
HETATM   17  C26 UNL     1      -8.177  -0.199   1.058  1.00  0.00     0.029 C 
HETATM   18  C27 UNL     1      -8.553  -0.556  -0.343  1.00  0.00     0.233 C 
HETATM   19  N1  UNL     1      -7.370  -0.411  -1.121  1.00  0.00    -0.070 N 
ATOM     20  H12 UNL     1      -7.562  -0.236  -2.107  1.00  0.00     0.277 HD
ATOM     21  H11 UNL     1      -6.861  -1.287  -1.238  1.00  0.00     0.277 HD
ENDBRANCH  13  15
ENDBRANCH   1   7
BRANCH   4  22
HETATM   22  O1  UNL     1       2.410  -2.966   1.384  1.00  0.00    -0.393 OA
ATOM     23  H1  UNL     1       3.069  -3.556   1.036  1.00  0.00     0.210 HD
ENDBRANCH   4  22
BRANCH   5  24
HETATM   24  C11 UNL     1       3.888  -1.314  -1.132  1.00  0.00     0.035 C 
BRANCH  24  25
HETATM   25  C12 UNL     1       4.415   0.213  -1.098  1.00  0.00     0.007 C 
BRANCH  25  26
HETATM   26  C13 UNL     1       4.996   0.409   0.303  1.00  0.00     0.038 C 
BRANCH  26  27
HETATM   27  C14 UNL     1       6.445   0.219   0.391  1.00  0.00    -0.058 A 
HETATM   28  C15 UNL     1       7.072   0.859   1.476  1.00  0.00     0.008 A 
HETATM   29  C16 UNL     1       8.444   0.903   1.578  1.00  0.00     0.017 A 
HETATM   30  C17 UNL     1       9.266   0.314   0.610  1.00  0.00     0.047 A 
HETATM   31  C19 UNL     1       8.633  -0.310  -0.435  1.00  0.00     0.017 A 
HETATM   32  C20 UNL     1       7.245  -0.377  -0.571  1.00  0.00     0.008 A 
BRANCH  30  33
HETATM   33  C18 UNL     1      10.763   0.393   0.706  1.00  0.00     0.417 C 
HETATM   34  F1  UNL     1      11.307  -0.012  -0.484  1.00  0.00    -0.166 F 
HETATM   35  F2  UNL     1      11.168   1.726   0.879  1.00  0.00    -0.166 F 
HETATM   36  F3  UNL     1      11.240  -0.283   1.787  1.00  0.00    -0.166 F 
ENDBRANCH  30  33
ENDBRANCH  26  27
ENDBRANCH  25  26
ENDBRANCH  24  25
ENDBRANCH   5  24
TORSDOF 8
