REMARK  9 active torsions:
REMARK  status: ('A' for Active; 'I' for Inactive)
REMARK    1  A    between atoms: C2_2  and  C3_3 
REMARK    2  A    between atoms: C2_2  and  C12_22 
REMARK    3  A    between atoms: C3_3  and  C4_4 
REMARK       I    between atoms: C4_4  and  N1_6 
REMARK    4  A    between atoms: N1_6  and  C5_8 
REMARK    5  A    between atoms: C8_13  and  S1_14 
REMARK    6  A    between atoms: S1_14  and  C9_15 
REMARK    7  A    between atoms: C12_22  and  O3_23 
REMARK    8  A    between atoms: C12_22  and  N6_25 
REMARK    9  A    between atoms: N6_25  and  C13_27 
ROOT
HETATM    1  C9  UNL     1       7.596  -1.420  -1.609  1.00  0.00     0.206 C 
HETATM    2  C10 UNL     1       8.792  -1.553  -2.409  1.00  0.00     0.069 C 
HETATM    3  N4  UNL     1       9.769  -1.667  -3.032  1.00  0.00    -0.197 NA
ENDROOT
BRANCH   1   4
HETATM    4  S1  UNL     1       6.249  -0.599  -2.547  1.00  0.00    -0.079 SA
BRANCH   4   5
HETATM    5  C8  UNL     1       4.859  -0.506  -1.432  1.00  0.00     0.151 A 
HETATM    6  N3  UNL     1       4.750   0.576  -0.643  1.00  0.00    -0.318 N 
HETATM    7  C6  UNL     1       3.755   0.733   0.242  1.00  0.00     0.152 A 
HETATM    8  C7  UNL     1       5.741   1.615  -0.758  1.00  0.00     0.159 C 
HETATM    9  C5  UNL     1       2.819  -0.299   0.308  1.00  0.00     0.145 A 
HETATM   10  N2  UNL     1       3.680   1.894   1.069  1.00  0.00    -0.080 NA
HETATM   11  C11 UNL     1       2.916  -1.420  -0.498  1.00  0.00     0.277 A 
HETATM   12  N5  UNL     1       3.946  -1.500  -1.359  1.00  0.00    -0.302 N 
HETATM   13  O2  UNL     1       2.064  -2.353  -0.436  1.00  0.00    -0.266 OA
ATOM     14  H5  UNL     1       4.039  -2.317  -1.962  1.00  0.00     0.171 HD
BRANCH   9  15
HETATM   15  N1  UNL     1       1.748  -0.196   1.230  1.00  0.00    -0.320 N 
HETATM   16  C4  UNL     1       0.480   0.327   0.787  1.00  0.00     0.222 C 
HETATM   17  O1  UNL     1       0.353   0.670  -0.400  1.00  0.00    -0.273 OA
ATOM     18  H1  UNL     1       1.873  -0.489   2.199  1.00  0.00     0.169 HD
BRANCH  16  19
HETATM   19  C3  UNL     1      -0.603   0.428   1.758  1.00  0.00     0.111 C 
BRANCH  19  20
HETATM   20  C2  UNL     1      -1.965   0.422   1.143  1.00  0.00     0.038 C 
HETATM   21  C1  UNL     1      -2.934   0.656   2.334  1.00  0.00     0.015 C 
BRANCH  20  22
HETATM   22  C12 UNL     1      -2.329  -0.956   0.579  1.00  0.00     0.217 C 
BRANCH  22  23
HETATM   23  O3  UNL     1      -1.469  -1.274  -0.472  1.00  0.00    -0.377 OA
ATOM     24  H3  UNL     1      -1.695  -2.128  -0.822  1.00  0.00     0.212 HD
ENDBRANCH  22  23
BRANCH  22  25
HETATM   25  N6  UNL     1      -3.682  -1.097   0.232  1.00  0.00    -0.392 N 
ATOM     26  H6  UNL     1      -4.257  -1.729   0.789  1.00  0.00     0.156 HD
BRANCH  25  27
HETATM   27  C13 UNL     1      -4.284  -0.427  -0.826  1.00  0.00     0.079 C 
HETATM   28  C14 UNL     1      -5.469  -1.263  -1.364  1.00  0.00     0.025 C 
HETATM   29  C15 UNL     1      -6.540  -0.307  -1.756  1.00  0.00     0.002 C 
HETATM   30  C16 UNL     1      -6.024   1.090  -1.505  1.00  0.00     0.002 C 
HETATM   31  C17 UNL     1      -4.864   0.909  -0.520  1.00  0.00     0.025 C 
ENDBRANCH  25  27
ENDBRANCH  22  25
ENDBRANCH  20  22
ENDBRANCH  19  20
ENDBRANCH  16  19
ENDBRANCH   9  15
ENDBRANCH   4   5
ENDBRANCH   1   4
TORSDOF 9
