REMARK  10 active torsions:
REMARK  status: ('A' for Active; 'I' for Inactive)
REMARK    1  A    between atoms: C3_3  and  N1_4 
REMARK    2  A    between atoms: C5_7  and  N2_8 
REMARK    3  A    between atoms: C6_10  and  C7_11 
REMARK    4  A    between atoms: C12_16  and  O2_17 
REMARK    5  A    between atoms: N3_19  and  C13_20 
REMARK    6  A    between atoms: C15_22  and  O3_23 
REMARK    7  A    between atoms: C17_26  and  O4_27 
REMARK    8  A    between atoms: N4_29  and  C18_30 
REMARK    9  A    between atoms: C18_30  and  C19_31 
REMARK   10  A    between atoms: C19_31  and  C20_32 
ROOT
HETATM    1  C1  UNL     1       2.659  -4.804  -2.315  1.00  0.00     0.014 C 
HETATM    2  C2  UNL     1       2.238  -4.361  -1.277  1.00  0.00    -0.097 C 
HETATM    3  C3  UNL     1       1.726  -3.838  -0.027  1.00  0.00     0.229 C 
ENDROOT
BRANCH   3   4
HETATM    4  N1  UNL     1       1.751  -2.370  -0.023  1.00  0.00    -0.253 N 
HETATM    5  C4  UNL     1       0.699  -1.659  -0.464  1.00  0.00     0.283 A 
HETATM    6  O1  UNL     1      -0.305  -2.317  -0.880  1.00  0.00    -0.265 OA
HETATM    7  C5  UNL     1       0.680  -0.269  -0.477  1.00  0.00     0.153 A 
HETATM    8  C17 UNL     1       1.819   0.349  -0.005  1.00  0.00     0.179 A 
HETATM    9  N4  UNL     1       2.886  -0.337   0.442  1.00  0.00    -0.278 N 
HETATM   10  C23 UNL     1       2.822  -1.691   0.421  1.00  0.00     0.334 A 
HETATM   11  O5  UNL     1       3.815  -2.333   0.837  1.00  0.00    -0.246 OA
BRANCH   7  12
HETATM   12  N2  UNL     1      -0.442   0.431  -0.947  1.00  0.00    -0.357 N 
HETATM   13  C6  UNL     1      -1.673   0.199  -0.564  1.00  0.00     0.101 C 
ATOM     14  H2  UNL     1      -0.289   1.170  -1.633  1.00  0.00     0.165 HD
BRANCH  13  15
HETATM   15  C7  UNL     1      -2.724   1.007  -1.142  1.00  0.00    -0.005 A 
HETATM   16  C8  UNL     1      -2.380   1.989  -2.072  1.00  0.00     0.014 A 
HETATM   17  C9  UNL     1      -3.371   2.765  -2.630  1.00  0.00     0.002 A 
HETATM   18  C10 UNL     1      -4.677   2.550  -2.251  1.00  0.00     0.017 A 
HETATM   19  C11 UNL     1      -5.017   1.579  -1.331  1.00  0.00     0.030 A 
HETATM   20  C12 UNL     1      -6.208   1.151  -0.777  1.00  0.00     0.155 A 
HETATM   21  C16 UNL     1      -4.029   0.783  -0.756  1.00  0.00     0.041 A 
HETATM   22  N3  UNL     1      -6.004   0.152   0.092  1.00  0.00    -0.307 N 
HETATM   23  C15 UNL     1      -4.668  -0.075   0.106  1.00  0.00     0.156 A 
BRANCH  20  24
HETATM   24  O2  UNL     1      -7.437   1.715  -1.109  1.00  0.00    -0.345 OA
ATOM     25  H2  UNL     1      -8.256   1.421  -0.728  1.00  0.00     0.219 HD
ENDBRANCH  20  24
BRANCH  22  26
HETATM   26  C13 UNL     1      -7.031  -0.541   0.859  1.00  0.00     0.129 C 
HETATM   27  C14 UNL     1      -7.273   0.136   2.196  1.00  0.00     0.027 C 
ENDBRANCH  22  26
BRANCH  23  28
HETATM   28  O3  UNL     1      -4.038  -1.034   0.878  1.00  0.00    -0.345 OA
ATOM     29  H3  UNL     1      -3.101  -1.193   0.888  1.00  0.00     0.219 HD
ENDBRANCH  23  28
ENDBRANCH  13  15
ENDBRANCH   7  12
BRANCH   8  30
HETATM   30  O4  UNL     1       1.844   1.735  -0.000  1.00  0.00    -0.344 OA
ATOM     31  H4  UNL     1       2.629   2.161   0.325  1.00  0.00     0.219 HD
ENDBRANCH   8  30
BRANCH   9  32
HETATM   32  C18 UNL     1       4.058   0.366   0.927  1.00  0.00     0.136 C 
BRANCH  32  33
HETATM   33  C19 UNL     1       5.060   0.640  -0.170  1.00  0.00     0.024 C 
BRANCH  33  34
HETATM   34  C20 UNL     1       6.224   1.381   0.501  1.00  0.00    -0.021 C 
HETATM   35  C21 UNL     1       6.811   0.506   1.575  1.00  0.00     0.009 C 
HETATM   36  C22 UNL     1       7.326   1.590  -0.545  1.00  0.00     0.009 C 
ENDBRANCH  33  34
ENDBRANCH  32  33
ENDBRANCH   9  32
ENDBRANCH   3   4
TORSDOF 10
