REMARK  12 active torsions:
REMARK  status: ('A' for Active; 'I' for Inactive)
REMARK    1  A    between atoms: O1_2  and  C2_3 
REMARK    2  A    between atoms: C5_6  and  C6_7 
REMARK    3  A    between atoms: C6_7  and  N1_8 
REMARK    4  A    between atoms: N1_8  and  C7_10 
REMARK    5  A    between atoms: N3_15  and  C9_16 
REMARK    6  A    between atoms: C9_16  and  C10_17 
REMARK       I    between atoms: C10_17  and  N4_19 
REMARK    7  A    between atoms: C12_26  and  C13_27 
REMARK    8  A    between atoms: C13_27  and  C14_28 
REMARK    9  A    between atoms: C14_28  and  C15_29 
REMARK   10  A    between atoms: C15_29  and  C16_30 
REMARK   11  A    between atoms: C16_30  and  C17_31 
REMARK   12  A    between atoms: C26_43  and  O4_44 
ROOT
HETATM    1  C9  UNL     1       0.281  -1.027  -1.517  1.00  0.00     0.236 C 
ENDROOT
BRANCH   1   2
HETATM    2  N3  UNL     1      -1.104  -0.896  -1.082  1.00  0.00    -0.300 N 
HETATM    3  C8  UNL     1      -1.422  -0.036  -0.103  1.00  0.00     0.328 A 
HETATM    4  N2  UNL     1      -2.708   0.110   0.323  1.00  0.00    -0.294 N 
HETATM    5  O2  UNL     1      -0.481   0.626   0.400  1.00  0.00    -0.246 OA
HETATM    6  C7  UNL     1      -3.680  -0.612  -0.237  1.00  0.00     0.112 A 
ATOM      7  H2  UNL     1      -2.927   0.770   1.069  1.00  0.00     0.172 HD
HETATM    8  C23 UNL     1      -3.373  -1.498  -1.241  1.00  0.00    -0.002 A 
HETATM    9  C22 UNL     1      -2.051  -1.647  -1.677  1.00  0.00     0.106 A 
HETATM   10  C24 UNL     1      -4.467  -2.294  -1.849  1.00  0.00     0.054 C 
BRANCH   6  11
HETATM   11  N1  UNL     1      -4.898  -0.491   0.149  1.00  0.00    -0.371 N 
ATOM     12  H1  UNL     1      -5.597  -1.070  -0.317  1.00  0.00     0.161 HD
BRANCH  11  13
HETATM   13  C6  UNL     1      -5.355   0.390   1.179  1.00  0.00     0.160 C 
BRANCH  13  14
HETATM   14  C5  UNL     1      -6.853   0.356   1.172  1.00  0.00    -0.038 A 
HETATM   15  C4  UNL     1      -7.517  -0.661   1.810  1.00  0.00     0.012 A 
HETATM   16  C3  UNL     1      -8.889  -0.733   1.833  1.00  0.00     0.040 A 
HETATM   17  C2  UNL     1      -9.633   0.234   1.202  1.00  0.00     0.101 A 
HETATM   18  C26 UNL     1      -8.987   1.285   0.542  1.00  0.00     0.102 A 
HETATM   19  C25 UNL     1      -7.596   1.328   0.538  1.00  0.00     0.048 A 
BRANCH  17  20
HETATM   20  O1  UNL     1     -11.018   0.190   1.207  1.00  0.00    -0.353 OA
HETATM   21  C1  UNL     1     -11.682  -0.861   1.866  1.00  0.00     0.210 C 
ENDBRANCH  17  20
BRANCH  18  22
HETATM   22  O4  UNL     1      -9.777   2.232  -0.076  1.00  0.00    -0.353 OA
HETATM   23  C27 UNL     1      -9.228   3.336  -0.770  1.00  0.00     0.210 C 
ENDBRANCH  18  22
ENDBRANCH  13  14
ENDBRANCH  11  13
ENDBRANCH   6  11
ENDBRANCH   1   2
BRANCH   1  24
HETATM   24  C10 UNL     1       0.572  -0.083  -2.600  1.00  0.00     0.242 C 
HETATM   25  O3  UNL     1      -0.346   0.724  -2.973  1.00  0.00    -0.271 OA
HETATM   26  N4  UNL     1       1.787   0.001  -3.261  1.00  0.00    -0.305 N 
HETATM   27  C11 UNL     1       2.970   0.043  -2.712  1.00  0.00     0.167 A 
ATOM     28  H4  UNL     1       1.753   0.033  -4.280  1.00  0.00     0.171 HD
HETATM   29  N5  UNL     1       4.150   0.124  -3.336  1.00  0.00    -0.279 N 
HETATM   30  S1  UNL     1       3.464   0.014  -1.060  1.00  0.00    -0.038 SA
HETATM   31  N6  UNL     1       5.207   0.155  -2.641  1.00  0.00    -0.296 N 
ATOM     32  H5  UNL     1       4.197   0.160  -4.354  1.00  0.00     0.189 HD
HETATM   33  C12 UNL     1       5.141   0.108  -1.322  1.00  0.00     0.069 A 
ATOM     34  H6  UNL     1       6.115   0.217  -3.101  1.00  0.00     0.187 HD
BRANCH  33  35
HETATM   35  C13 UNL     1       6.320   0.138  -0.367  1.00  0.00     0.066 C 
BRANCH  35  36
HETATM   36  C14 UNL     1       6.708  -1.283  -0.178  1.00  0.00     0.007 C 
BRANCH  36  37
HETATM   37  C15 UNL     1       7.816  -1.624   0.716  1.00  0.00     0.005 C 
BRANCH  37  38
HETATM   38  C16 UNL     1       9.193  -1.188   0.465  1.00  0.00     0.040 C 
BRANCH  38  39
HETATM   39  C17 UNL     1       9.538   0.212   0.395  1.00  0.00    -0.035 A 
HETATM   40  C18 UNL     1       9.977   0.882  -0.754  1.00  0.00     0.026 A 
HETATM   41  C19 UNL     1      10.264   2.179  -0.404  1.00  0.00     0.088 A 
HETATM   42  N7  UNL     1      10.021   2.336   0.907  1.00  0.00    -0.369 N 
HETATM   43  C20 UNL     1       9.584   1.146   1.384  1.00  0.00     0.011 A 
ATOM     44  H7  UNL     1      10.143   3.194   1.445  1.00  0.00     0.165 HD
HETATM   45  C21 UNL     1       9.215   0.927   2.794  1.00  0.00     0.068 C 
ENDBRANCH  38  39
ENDBRANCH  37  38
ENDBRANCH  36  37
ENDBRANCH  35  36
ENDBRANCH  33  35
ENDBRANCH   1  24
TORSDOF 12
