REMARK  18 active torsions:
REMARK  status: ('A' for Active; 'I' for Inactive)
REMARK    1  A    between atoms: C2_2  and  C3_3 
REMARK    2  A    between atoms: C3_3  and  C5_5 
REMARK    3  A    between atoms: C5_5  and  N1_6 
REMARK    4  A    between atoms: C5_5  and  C24_34 
REMARK    5  A    between atoms: N1_6  and  C6_8 
REMARK    6  A    between atoms: C6_8  and  C7_9 
REMARK    7  A    between atoms: C6_8  and  C16_21 
REMARK       I    between atoms: C7_9  and  N2_11 
REMARK    8  A    between atoms: N2_11  and  C8_13 
REMARK    9  A    between atoms: C8_13  and  C9_14 
REMARK   10  A    between atoms: C9_14  and  C10_15 
REMARK   11  A    between atoms: C10_15  and  C11_16 
REMARK   12  A    between atoms: C11_16  and  C12_17 
REMARK   13  A    between atoms: C16_21  and  C17_22 
REMARK   14  A    between atoms: C16_21  and  N3_25 
REMARK   15  A    between atoms: C17_22  and  O2_23 
REMARK   16  A    between atoms: C20_28  and  C21_29 
REMARK       I    between atoms: C24_34  and  N5_36 
REMARK   17  A    between atoms: N5_36  and  C25_38 
REMARK   18  A    between atoms: C25_38  and  C26_40 
ROOT
HETATM    1  C6  UNL     1      -0.203   1.220  -0.225  1.00  0.00     0.195 C 
ENDROOT
BRANCH   1   2
HETATM    2  N1  UNL     1      -1.302   0.355  -0.503  1.00  0.00    -0.395 N 
ATOM      3  H1  UNL     1      -2.017   0.596  -1.190  1.00  0.00     0.155 HD
BRANCH   2   4
HETATM    4  C5  UNL     1      -1.347  -0.892   0.248  1.00  0.00     0.174 C 
BRANCH   4   5
HETATM    5  C3  UNL     1      -1.458  -0.700   1.700  1.00  0.00     0.013 C 
HETATM    6  C4  UNL     1      -2.603   0.217   2.128  1.00  0.00     0.012 C 
BRANCH   5   7
HETATM    7  C2  UNL     1      -1.406  -1.927   2.537  1.00  0.00     0.002 C 
HETATM    8  C1  UNL     1      -1.184  -1.519   4.005  1.00  0.00     0.005 C 
ENDBRANCH   5   7
ENDBRANCH   4   5
BRANCH   4   9
HETATM    9  C24 UNL     1      -2.436  -1.637  -0.437  1.00  0.00     0.245 C 
HETATM   10  O4  UNL     1      -2.320  -1.586  -1.730  1.00  0.00    -0.271 OA
HETATM   11  N5  UNL     1      -3.513  -2.343   0.042  1.00  0.00    -0.319 N 
ATOM     12  H5  UNL     1      -3.662  -2.412   1.049  1.00  0.00     0.169 HD
BRANCH  11  13
HETATM   13  C25 UNL     1      -4.424  -2.979  -0.847  1.00  0.00     0.083 C 
HETATM   14  S1  UNL     1      -4.298  -2.949  -2.470  1.00  0.00    -0.065 SA
BRANCH  13  15
HETATM   15  C26 UNL     1      -5.581  -3.715  -0.283  1.00  0.00     0.039 C 
HETATM   16  C27 UNL     1      -5.160  -4.804   0.655  1.00  0.00     0.017 C 
HETATM   17  C28 UNL     1      -6.493  -4.252  -1.345  1.00  0.00     0.017 C 
ENDBRANCH  13  15
ENDBRANCH  11  13
ENDBRANCH   4   9
ENDBRANCH   2   4
ENDBRANCH   1   2
BRANCH   1  18
HETATM   18  C7  UNL     1       1.132   0.663  -0.543  1.00  0.00     0.242 C 
HETATM   19  O1  UNL     1       1.194  -0.336  -1.301  1.00  0.00    -0.271 OA
HETATM   20  N2  UNL     1       2.331   1.194  -0.035  1.00  0.00    -0.359 N 
ATOM     21  H2  UNL     1       2.234   2.002   0.580  1.00  0.00     0.162 HD
BRANCH  20  22
HETATM   22  C8  UNL     1       3.658   0.750  -0.269  1.00  0.00     0.122 C 
BRANCH  22  23
HETATM   23  C9  UNL     1       3.958  -0.664   0.133  1.00  0.00     0.020 C 
BRANCH  23  24
HETATM   24  C10 UNL     1       5.437  -0.897  -0.187  1.00  0.00     0.002 C 
BRANCH  24  25
HETATM   25  C11 UNL     1       5.880  -2.295   0.169  1.00  0.00     0.008 C 
BRANCH  25  26
HETATM   26  C12 UNL     1       7.330  -2.464  -0.144  1.00  0.00    -0.051 C 
HETATM   27  C13 UNL     1       8.189  -1.486   0.637  1.00  0.00     0.014 C 
HETATM   28  C14 UNL     1       7.607  -2.271  -1.613  1.00  0.00     0.014 C 
HETATM   29  C15 UNL     1       7.756  -3.864   0.254  1.00  0.00     0.014 C 
ENDBRANCH  25  26
ENDBRANCH  24  25
ENDBRANCH  23  24
ENDBRANCH  22  23
ENDBRANCH  20  22
ENDBRANCH   1  18
BRANCH   1  30
HETATM   30  C16 UNL     1      -0.427   2.410  -1.197  1.00  0.00     0.134 C 
BRANCH  30  31
HETATM   31  C17 UNL     1       0.630   3.453  -1.102  1.00  0.00     0.191 C 
BRANCH  31  32
HETATM   32  O2  UNL     1       0.307   4.428  -2.064  1.00  0.00    -0.399 OA
ATOM     33  H2  UNL     1       0.982   5.094  -2.003  1.00  0.00     0.209 HD
ENDBRANCH  31  32
ENDBRANCH  30  31
BRANCH  30  34
HETATM   34  N3  UNL     1      -1.697   3.021  -0.961  1.00  0.00    -0.404 N 
HETATM   35  C18 UNL     1      -1.885   3.635   0.300  1.00  0.00     0.118 C 
HETATM   36  C19 UNL     1      -3.372   3.913   0.565  1.00  0.00     0.033 C 
HETATM   37  C20 UNL     1      -4.007   4.502  -0.682  1.00  0.00     0.078 C 
HETATM   38  C22 UNL     1      -3.828   3.580  -1.858  1.00  0.00     0.033 C 
HETATM   39  C23 UNL     1      -2.838   2.443  -1.552  1.00  0.00     0.118 C 
BRANCH  37  40
HETATM   40  C21 UNL     1      -3.342   5.791  -1.052  1.00  0.00     0.235 C 
HETATM   41  N4  UNL     1      -3.308   6.891  -0.146  1.00  0.00    -0.062 NA
HETATM   42  O3  UNL     1      -2.780   5.978  -2.168  1.00  0.00    -0.277 OA
ENDBRANCH  37  40
ENDBRANCH  30  34
ENDBRANCH   1  30
TORSDOF 18
