REMARK  15 active torsions:
REMARK  status: ('A' for Active; 'I' for Inactive)
REMARK    1  A    between atoms: C2_2  and  C3_3 
REMARK    2  A    between atoms: C3_3  and  N1_4 
REMARK    3  A    between atoms: N1_4  and  C4_6 
REMARK    4  A    between atoms: C8_14  and  N4_15 
REMARK    5  A    between atoms: N4_15  and  C9_17 
REMARK    6  A    between atoms: C13_21  and  N5_22 
REMARK    7  A    between atoms: N6_25  and  C16_26 
REMARK    8  A    between atoms: C16_26  and  O1_27 
REMARK    9  A    between atoms: C16_26  and  C17_29 
REMARK   10  A    between atoms: C17_29  and  N7_30 
REMARK   11  A    between atoms: N7_30  and  C18_32 
REMARK   12  A    between atoms: C18_32  and  C19_33 
REMARK   13  A    between atoms: C19_33  and  C20_34 
REMARK   14  A    between atoms: C20_34  and  O2_35 
REMARK   15  A    between atoms: C25_40  and  O3_41 
ROOT
HETATM    1  C9  UNL     1      -1.803  -1.436  -0.234  1.00  0.00     0.088 A 
HETATM    2  C10 UNL     1      -1.058  -1.952  -1.306  1.00  0.00    -0.030 A 
HETATM    3  C11 UNL     1      -1.812  -2.596  -2.423  1.00  0.00     0.050 C 
HETATM    4  C12 UNL     1       0.317  -1.860  -1.317  1.00  0.00     0.038 A 
HETATM    5  C13 UNL     1       1.021  -1.260  -0.281  1.00  0.00     0.033 A 
HETATM    6  C24 UNL     1       0.294  -0.758   0.759  1.00  0.00     0.068 A 
HETATM    7  C25 UNL     1      -1.085  -0.849   0.774  1.00  0.00     0.098 A 
ENDROOT
BRANCH   1   8
HETATM    8  N4  UNL     1      -3.156  -1.555  -0.235  1.00  0.00    -0.188 N 
ATOM      9  H4  UNL     1      -3.442  -2.518  -0.413  1.00  0.00     0.184 HD
BRANCH   8  10
HETATM   10  C8  UNL     1      -4.149  -0.809  -0.078  1.00  0.00     0.683 A 
HETATM   11  N3  UNL     1      -4.069   0.506   0.171  1.00  0.00    -0.191 N 
HETATM   12  C7  UNL     1      -5.199   1.235   0.321  1.00  0.00     0.066 A 
ATOM     13  H3  UNL     1      -3.157   0.956   0.247  1.00  0.00     0.184 HD
HETATM   14  C6  UNL     1      -5.123   2.575   0.577  1.00  0.00     0.048 A 
HETATM   15  C29 UNL     1      -6.443   0.621   0.216  1.00  0.00     0.058 A 
HETATM   16  C5  UNL     1      -6.258   3.312   0.730  1.00  0.00     0.092 A 
HETATM   17  N2  UNL     1      -7.467   2.688   0.623  1.00  0.00    -0.352 N 
HETATM   18  C4  UNL     1      -7.588   1.376   0.373  1.00  0.00     0.115 A 
ATOM     19  H2  UNL     1      -8.315   3.243   0.738  1.00  0.00     0.166 HD
HETATM   20  C27 UNL     1      -6.545  -0.736  -0.041  1.00  0.00     0.039 A 
HETATM   21  N8  UNL     1      -5.373  -1.381  -0.174  1.00  0.00    -0.195 N 
HETATM   22  C28 UNL     1      -7.837  -1.458  -0.168  1.00  0.00     0.070 C 
ATOM     23  H8  UNL     1      -5.408  -2.383  -0.363  1.00  0.00     0.184 HD
BRANCH  18  24
HETATM   24  N1  UNL     1      -8.699   0.831   0.278  1.00  0.00    -0.376 N 
ATOM     25  H1  UNL     1      -8.717  -0.171   0.087  1.00  0.00     0.161 HD
BRANCH  24  26
HETATM   26  C3  UNL     1      -9.955   1.498   0.416  1.00  0.00     0.121 C 
BRANCH  26  27
HETATM   27  C2  UNL     1     -10.626   1.674  -0.939  1.00  0.00     0.015 C 
HETATM   28  C1  UNL     1      -9.770   2.485  -1.863  1.00  0.00     0.006 C 
ENDBRANCH  26  27
ENDBRANCH  24  26
ENDBRANCH  18  24
ENDBRANCH   8  10
ENDBRANCH   1   8
BRANCH   7  29
HETATM   29  O3  UNL     1      -1.762  -0.323   1.856  1.00  0.00    -0.354 OA
HETATM   30  C26 UNL     1      -1.041   0.285   2.901  1.00  0.00     0.210 C 
ENDBRANCH   7  29
BRANCH   5  31
HETATM   31  N5  UNL     1       2.421  -1.221  -0.319  1.00  0.00    -0.378 N 
HETATM   32  C14 UNL     1       3.231  -2.065  -1.195  1.00  0.00     0.143 C 
HETATM   33  C15 UNL     1       4.217  -2.745  -0.258  1.00  0.00     0.145 C 
HETATM   34  N6  UNL     1       5.170  -1.692   0.197  1.00  0.00    -0.358 N 
HETATM   35  C22 UNL     1       4.658  -0.340   0.198  1.00  0.00     0.145 C 
HETATM   36  C23 UNL     1       3.152  -0.315   0.530  1.00  0.00     0.143 C 
BRANCH  34  37
HETATM   37  C16 UNL     1       6.405  -2.118   0.642  1.00  0.00     0.153 C 
BRANCH  37  38
HETATM   38  O1  UNL     1       6.529  -3.432   0.754  1.00  0.00    -0.345 OA
ATOM     39  H1  UNL     1       7.379  -3.725   1.060  1.00  0.00     0.219 HD
ENDBRANCH  37  38
BRANCH  37  40
HETATM   40  C17 UNL     1       7.580  -1.338   1.007  1.00  0.00     0.139 C 
BRANCH  40  41
HETATM   41  N7  UNL     1       7.645   0.039   0.791  1.00  0.00    -0.395 N 
ATOM     42  H7  UNL     1       7.544   0.683   1.576  1.00  0.00     0.159 HD
BRANCH  41  43
HETATM   43  C18 UNL     1       7.850   0.543  -0.514  1.00  0.00     0.121 C 
BRANCH  43  44
HETATM   44  C19 UNL     1       9.283   0.190  -0.937  1.00  0.00     0.046 C 
BRANCH  44  45
HETATM   45  C20 UNL     1      10.226   0.839   0.040  1.00  0.00     0.168 C 
BRANCH  45  46
HETATM   46  O2  UNL     1      10.012   2.225  -0.038  1.00  0.00    -0.396 OA
HETATM   47  C21 UNL     1      10.849   2.900   0.839  1.00  0.00     0.201 C 
ENDBRANCH  45  46
ENDBRANCH  44  45
ENDBRANCH  43  44
ENDBRANCH  41  43
ENDBRANCH  40  41
ENDBRANCH  37  40
ENDBRANCH  34  37
ENDBRANCH   5  31
TORSDOF 15
