REMARK  3 active torsions:
REMARK  status: ('A' for Active; 'I' for Inactive)
REMARK    1  A    between atoms: N1_1  and  C1_5 
REMARK    2  A    between atoms: C1_5  and  C2_6 
REMARK    3  A    between atoms: C7_11  and  N2_12 
ROOT
HETATM    1  C2  UNL     1       0.844  -0.368   0.266  1.00  0.00     0.013 C 
HETATM    2  C3  UNL     1       0.297  -1.617  -0.337  1.00  0.00     0.006 C 
HETATM    3  C4  UNL     1      -1.171  -1.780  -0.251  1.00  0.00     0.000 C 
HETATM    4  C5  UNL     1      -1.730  -0.890   0.813  1.00  0.00     0.002 C 
HETATM    5  C6  UNL     1      -2.065   0.429   0.237  1.00  0.00     0.033 C 
HETATM    6  C7  UNL     1      -1.044   1.122  -0.563  1.00  0.00     0.183 C 
HETATM    7  C8  UNL     1       0.373   0.892  -0.334  1.00  0.00     0.039 C 
ENDROOT
BRANCH   1   8
HETATM    8  C1  UNL     1       2.352  -0.452  -0.029  1.00  0.00     0.234 C 
BRANCH   8   9
HETATM    9  N1  UNL     1       3.048   0.694   0.493  1.00  0.00    -0.079 N 
ATOM     10  H13 UNL     1       2.646   1.566   0.149  1.00  0.00     0.274 HD
ATOM     11  H12 UNL     1       2.867   0.822   1.489  1.00  0.00     0.274 HD
ATOM     12  H11 UNL     1       4.048   0.638   0.297  1.00  0.00     0.274 HD
ENDBRANCH   8   9
ENDBRANCH   1   8
BRANCH   6  13
HETATM   13  N2  UNL     1      -1.299   2.572  -0.429  1.00  0.00    -0.075 N 
ATOM     14  H23 UNL     1      -2.252   2.836  -0.680  1.00  0.00     0.274 HD
ATOM     15  H22 UNL     1      -1.328   2.885   0.541  1.00  0.00     0.274 HD
ATOM     16  H21 UNL     1      -0.591   3.053  -0.984  1.00  0.00     0.274 HD
ENDBRANCH   6  13
TORSDOF 3
