REMARK  2 active torsions:
REMARK  status: ('A' for Active; 'I' for Inactive)
REMARK    1  A    between atoms: O1_2  and  C2_3 
REMARK    2  A    between atoms: C2_3  and  C3_5 
ROOT
HETATM    1  C3  UNL     1       2.137  -0.047  -0.184  1.00  0.00     0.100 A 
HETATM    2  S1  UNL     1       1.284   1.214  -0.954  1.00  0.00    -0.058 SA
HETATM    3  C4  UNL     1      -0.306   0.762  -0.545  1.00  0.00     0.118 A 
HETATM    4  C5  UNL     1      -0.131  -0.375   0.190  1.00  0.00     0.001 A 
HETATM    5  C6  UNL     1       1.141  -0.797   0.379  1.00  0.00     0.043 A 
HETATM    6 BR1  UNL     1       1.580  -2.401   1.403  1.00  0.00    -0.049 Br
HETATM    7  C7  UNL     1      -1.205  -1.237   0.833  1.00  0.00     0.043 C 
HETATM    8  C8  UNL     1      -2.220  -0.375   1.497  1.00  0.00     0.005 C 
HETATM    9  C9  UNL     1      -3.463  -0.129   0.707  1.00  0.00     0.002 C 
HETATM   10  C10 UNL     1      -3.247   0.025  -0.766  1.00  0.00     0.027 C 
HETATM   11  C11 UNL     1      -2.762   1.400  -1.135  1.00  0.00     0.176 C 
HETATM   12  O3  UNL     1      -1.386   1.552  -0.990  1.00  0.00    -0.343 OA
ENDROOT
BRANCH   1  13
HETATM   13  C2  UNL     1       3.600  -0.276  -0.135  1.00  0.00     0.301 C 
HETATM   14  O2  UNL     1       4.017  -1.275   0.493  1.00  0.00    -0.259 OA
BRANCH  13  15
HETATM   15  O1  UNL     1       4.447   0.621  -0.784  1.00  0.00    -0.322 OA
HETATM   16  C1  UNL     1       5.834   0.369  -0.716  1.00  0.00     0.213 C 
ENDBRANCH  13  15
ENDBRANCH   1  13
TORSDOF 2
