REMARK  3 active torsions:
REMARK  status: ('A' for Active; 'I' for Inactive)
REMARK    1  A    between atoms: C2_2  and  O2_4 
REMARK    2  A    between atoms: O2_4  and  C3_5 
REMARK    3  A    between atoms: C3_5  and  C4_6 
ROOT
HETATM    1  C3  UNL     1      -0.548  -0.367  -0.108  1.00  0.00     0.099 C 
HETATM    2  C8  UNL     1       0.255  -1.166  -1.128  1.00  0.00     0.032 C 
HETATM    3  C9  UNL     1       1.690  -1.261  -1.101  1.00  0.00     0.011 C 
HETATM    4 CL1  UNL     1       2.452  -2.530  -0.137  1.00  0.00    -0.089 Cl
HETATM    5  C10 UNL     1       2.531  -0.033  -0.985  1.00  0.00     0.058 C 
HETATM    6  C11 UNL     1       2.761   0.420   0.427  1.00  0.00     0.029 C 
HETATM    7  C12 UNL     1       3.534   1.719   0.330  1.00  0.00     0.118 C 
HETATM    8  C13 UNL     1       2.457   2.616  -0.192  1.00  0.00     0.259 C 
HETATM    9  O3  UNL     1       2.570   3.809  -0.611  1.00  0.00    -0.265 OA
HETATM   10  O4  UNL     1       1.252   1.925  -0.153  1.00  0.00    -0.316 OA
HETATM   11  C14 UNL     1       1.392   0.976   0.851  1.00  0.00     0.140 C 
HETATM   12  C15 UNL     1       0.374  -0.041   1.030  1.00  0.00     0.076 C 
ENDROOT
BRANCH   1  13
HETATM   13  O2  UNL     1      -1.050   0.658  -0.816  1.00  0.00    -0.305 OA
BRANCH  13  14
HETATM   14  C2  UNL     1      -1.747   1.757  -0.817  1.00  0.00     0.255 C 
HETATM   15  C1  UNL     1      -2.040   2.575  -2.035  1.00  0.00     0.126 C 
HETATM   16  O1  UNL     1      -2.193   2.148   0.249  1.00  0.00    -0.266 OA
ENDBRANCH  13  14
ENDBRANCH   1  13
BRANCH   1  17
HETATM   17  C4  UNL     1      -1.663  -1.203   0.457  1.00  0.00    -0.016 C 
HETATM   18  C5  UNL     1      -2.571  -1.776  -0.622  1.00  0.00     0.018 C 
HETATM   19  C6  UNL     1      -1.138  -2.438   1.192  1.00  0.00     0.018 C 
HETATM   20  C7  UNL     1      -2.592  -0.576   1.443  1.00  0.00     0.018 C 
ENDBRANCH   1  17
TORSDOF 3
