REMARK  2 active torsions:
REMARK  status: ('A' for Active; 'I' for Inactive)
REMARK    1  A    between atoms: C2_2  and  C3_3 
REMARK    2  A    between atoms: C3_3  and  N1_4 
ROOT
HETATM    1  N1  UNL     1      -0.256  -0.181   0.698  1.00  0.00     0.116 N 
HETATM    2  C4  UNL     1      -1.301  -1.154   0.479  1.00  0.00     0.301 C 
HETATM    3  C5  UNL     1      -2.524  -0.297   0.146  1.00  0.00     0.200 C 
HETATM    4  O1  UNL     1      -2.193   0.882   0.854  1.00  0.00    -0.361 OA
HETATM    5  C6  UNL     1      -0.893   1.071   0.378  1.00  0.00     0.440 C 
ENDROOT
BRANCH   1   6
HETATM    6  C3  UNL     1       0.909  -0.436  -0.119  1.00  0.00     0.302 C 
BRANCH   6   7
HETATM    7  C2  UNL     1       1.915   0.640  -0.013  1.00  0.00    -0.007 C 
HETATM    8  C1  UNL     1       3.143   0.407   0.407  1.00  0.00     0.008 C 
ENDBRANCH   6   7
ENDBRANCH   1   6
TORSDOF 2
