REMARK  4 active torsions:
REMARK  status: ('A' for Active; 'I' for Inactive)
REMARK       I    between atoms: C2_2  and  N1_4 
REMARK    1  A    between atoms: N1_4  and  C3_5 
REMARK       I    between atoms: N1_4  and  C5_9 
REMARK    2  A    between atoms: C3_5  and  C4_6 
REMARK    3  A    between atoms: C4_6  and  O2_7 
REMARK    4  A    between atoms: C5_9  and  C6_11 
ROOT
HETATM    1  C1  UNL     1       2.113  -2.906   1.399  1.00  0.00     0.117 C 
HETATM    2  C2  UNL     1       2.620  -1.829   0.528  1.00  0.00     0.222 C 
HETATM    3  O1  UNL     1       3.867  -1.899   0.247  1.00  0.00    -0.273 OA
HETATM    4  N1  UNL     1       1.859  -0.763  -0.002  1.00  0.00    -0.286 N 
HETATM    5  C5  UNL     1       0.493  -0.634   0.306  1.00  0.00     0.232 C 
HETATM    6  O3  UNL     1      -0.048  -1.511   1.015  1.00  0.00    -0.272 OA
ENDROOT
BRANCH   5   7
HETATM    7  C6  UNL     1      -0.387   0.463  -0.135  1.00  0.00     0.095 A 
HETATM    8  C7  UNL     1      -1.295   1.117   0.920  1.00  0.00    -0.027 A 
HETATM    9  C8  UNL     1      -1.415   2.624   0.932  1.00  0.00     0.016 C 
HETATM   10  C9  UNL     1      -1.399   0.475   2.257  1.00  0.00     0.016 C 
HETATM   11  C10 UNL     1      -1.820   0.396  -0.330  1.00  0.00    -0.027 A 
HETATM   12  C11 UNL     1      -2.714  -0.750  -0.038  1.00  0.00     0.016 C 
HETATM   13  C12 UNL     1      -2.383   1.331  -1.423  1.00  0.00     0.016 C 
ENDBRANCH   5   7
BRANCH   4  14
HETATM   14  C3  UNL     1       2.558   0.199  -0.846  1.00  0.00     0.161 C 
BRANCH  14  15
HETATM   15  C4  UNL     1       2.573  -0.221  -2.284  1.00  0.00     0.184 C 
BRANCH  15  16
HETATM   16  O2  UNL     1       1.292  -0.354  -2.794  1.00  0.00    -0.399 OA
ATOM     17  H2  UNL     1       1.302  -0.620  -3.706  1.00  0.00     0.209 HD
ENDBRANCH  15  16
ENDBRANCH  14  15
ENDBRANCH   4  14
TORSDOF 4
