REMARK  2 active torsions:
REMARK  status: ('A' for Active; 'I' for Inactive)
REMARK       I    between atoms: N1_2  and  C2_4 
REMARK    1  A    between atoms: C2_4  and  C3_6 
REMARK    2  A    between atoms: C9_12  and  S1_13 
ROOT
HETATM    1  C3  UNL     1      -0.993   0.108  -0.499  1.00  0.00     0.086 C 
HETATM    2  C4  UNL     1      -0.321   0.294   0.829  1.00  0.00     0.001 C 
HETATM    3  C5  UNL     1       0.303  -1.092   1.053  1.00  0.00     0.011 C 
HETATM    4  C6  UNL     1       0.978  -1.155  -0.326  1.00  0.00     0.009 C 
HETATM    5  C7  UNL     1      -0.260  -0.946  -1.194  1.00  0.00     0.000 C 
HETATM    6  C8  UNL     1      -0.906  -2.263  -1.392  1.00  0.00     0.011 C 
HETATM    7  C9  UNL     1       1.737   0.122  -0.333  1.00  0.00     0.113 C 
HETATM    8  C11 UNL     1       0.952   1.084   0.551  1.00  0.00     0.026 C 
ENDROOT
BRANCH   1   9
HETATM    9  C2  UNL     1      -2.423  -0.051  -0.311  1.00  0.00     0.222 C 
HETATM   10  N1  UNL     1      -3.140   1.006   0.315  1.00  0.00    -0.365 N 
HETATM   11  C1  UNL     1      -4.585   0.934   0.547  1.00  0.00     0.149 C 
ATOM     12  H1  UNL     1      -2.633   1.840   0.612  1.00  0.00     0.161 HD
HETATM   13  O1  UNL     1      -3.091  -1.055  -0.657  1.00  0.00    -0.273 OA
ENDBRANCH   1   9
BRANCH   7  14
HETATM   14  S1  UNL     1       3.376   0.020   0.284  1.00  0.00     0.145 S 
HETATM   15  C10 UNL     1       4.100   1.665   0.224  1.00  0.00     0.161 C 
HETATM   16  O2  UNL     1       4.253  -0.870  -0.520  1.00  0.00    -0.228 OA
HETATM   17  O3  UNL     1       3.374  -0.373   1.733  1.00  0.00    -0.228 OA
ENDBRANCH   7  14
TORSDOF 2
