REMARK  2 active torsions:
REMARK  status: ('A' for Active; 'I' for Inactive)
REMARK    1  A    between atoms: C4_4  and  C5_5 
REMARK       I    between atoms: N1_7  and  C7_8 
REMARK    2  A    between atoms: C7_8  and  C8_10 
ROOT
HETATM    1  C5  UNL     1      -0.620  -0.625  -0.126  1.00  0.00     0.033 C 
HETATM    2  C6  UNL     1       0.414  -1.729   0.035  1.00  0.00     0.135 C 
HETATM    3  N1  UNL     1       1.679  -0.991   0.027  1.00  0.00    -0.339 N 
HETATM    4  C7  UNL     1       2.914  -1.518   0.485  1.00  0.00     0.309 C 
HETATM    5  O1  UNL     1       2.882  -2.722   0.918  1.00  0.00    -0.263 OA
HETATM    6  C9  UNL     1       1.502   0.316  -0.498  1.00  0.00     0.093 C 
HETATM    7  C10 UNL     1       1.103   1.375   0.541  1.00  0.00     0.035 C 
HETATM    8  C11 UNL     1       0.068   1.800  -0.479  1.00  0.00    -0.040 C 
HETATM    9  C12 UNL     1       0.770   2.748  -1.462  1.00  0.00     0.015 C 
HETATM   10  C13 UNL     1      -1.149   2.456   0.031  1.00  0.00     0.015 C 
HETATM   11  C14 UNL     1       0.038   0.405  -0.971  1.00  0.00     0.025 C 
ENDROOT
BRANCH   4  12
HETATM   12  C8  UNL     1       4.145  -0.760   0.473  1.00  0.00     0.322 C 
HETATM   13  N2  UNL     1       5.319  -1.420   0.959  1.00  0.00    -0.053 NA
HETATM   14  O2  UNL     1       4.204   0.418   0.062  1.00  0.00    -0.266 OA
ENDBRANCH   4  12
BRANCH   1  15
HETATM   15  C4  UNL     1      -1.877  -1.144  -0.694  1.00  0.00    -0.018 C 
HETATM   16  C2  UNL     1      -3.012  -1.078  -0.054  1.00  0.00    -0.091 C 
HETATM   17  C1  UNL     1      -3.248  -0.506   1.283  1.00  0.00     0.042 C 
HETATM   18  C3  UNL     1      -4.222  -1.647  -0.762  1.00  0.00     0.042 C 
ENDBRANCH   1  15
TORSDOF 2
