REMARK  6 active torsions:
REMARK  status: ('A' for Active; 'I' for Inactive)
REMARK    1  A    between atoms: C2_2  and  O1_3 
REMARK    2  A    between atoms: O1_3  and  C3_4 
REMARK    3  A    between atoms: C3_4  and  C4_6 
REMARK    4  A    between atoms: C8_12  and  C9_13 
REMARK    5  A    between atoms: C9_13  and  C10_14 
REMARK    6  A    between atoms: C19_31  and  N5_32 
ROOT
HETATM    1  N5  UNL     1      -3.353   2.084   1.281  1.00  0.00    -0.305 N 
HETATM    2  C20 UNL     1      -4.228   3.069   1.538  1.00  0.00     0.187 A 
HETATM    3  N6  UNL     1      -4.914   2.813   2.667  1.00  0.00    -0.342 N 
ATOM      4  H6  UNL     1      -5.637   3.394   3.091  1.00  0.00     0.167 HD
HETATM    5  C21 UNL     1      -4.448   1.626   3.126  1.00  0.00     0.130 A 
HETATM    6  C22 UNL     1      -4.923   0.972   4.338  1.00  0.00     0.119 C 
HETATM    7  N7  UNL     1      -5.311   0.457   5.297  1.00  0.00    -0.190 NA
HETATM    8  C23 UNL     1      -3.485   1.190   2.259  1.00  0.00     0.137 A 
ENDROOT
BRANCH   1   9
HETATM    9  C19 UNL     1      -2.472   2.084   0.130  1.00  0.00     0.359 C 
HETATM   10  N4  UNL     1      -2.249   0.735  -0.281  1.00  0.00    -0.379 N 
HETATM   11  C18 UNL     1      -2.340   0.502  -1.689  1.00  0.00     0.118 C 
ATOM     12  H4  UNL     1      -2.039  -0.010   0.383  1.00  0.00     0.157 HD
HETATM   13  C17 UNL     1      -2.729  -0.904  -2.056  1.00  0.00     0.020 C 
HETATM   14  C16 UNL     1      -1.453  -1.758  -2.061  1.00  0.00     0.011 C 
HETATM   15  C15 UNL     1      -1.503  -2.628  -0.878  1.00  0.00     0.103 C 
HETATM   16  C14 UNL     1      -0.335  -3.448  -0.548  1.00  0.00     0.217 C 
HETATM   17  N3  UNL     1       0.900  -3.603  -1.172  1.00  0.00    -0.360 N 
HETATM   18  O3  UNL     1      -0.514  -4.150   0.531  1.00  0.00    -0.274 OA
HETATM   19  C13 UNL     1       1.895  -2.643  -1.522  1.00  0.00     0.133 C 
ATOM     20  H3  UNL     1       1.132  -4.565  -1.421  1.00  0.00     0.162 HD
HETATM   21  C8  UNL     1       2.531  -1.895  -0.376  1.00  0.00     0.060 C 
HETATM   22  C7  UNL     1       1.663  -0.784   0.167  1.00  0.00     0.034 A 
HETATM   23  C4  UNL     1       1.263   0.480  -0.220  1.00  0.00     0.092 A 
HETATM   24  N1  UNL     1       1.064  -1.096   1.381  1.00  0.00    -0.366 N 
HETATM   25  C5  UNL     1       0.403   0.908   0.805  1.00  0.00     0.088 A 
HETATM   26  C6  UNL     1       0.306  -0.111   1.793  1.00  0.00     0.120 A 
HETATM   27  N8  UNL     1      -0.400   2.072   1.119  1.00  0.00    -0.260 N 
HETATM   28  O4  UNL     1      -1.296   2.741   0.343  1.00  0.00    -0.232 OA
ATOM     29  H8  UNL     1      -0.276   2.445   2.060  1.00  0.00     0.194 HD
ATOM     30  H1  UNL     1       1.197  -1.974   1.883  1.00  0.00     0.165 HD
BRANCH  21  31
HETATM   31  C9  UNL     1       3.022  -2.887   0.660  1.00  0.00     0.077 C 
BRANCH  31  32
HETATM   32  C10 UNL     1       3.844  -2.126   1.677  1.00  0.00     0.051 A 
HETATM   33  N2  UNL     1       4.449  -2.604   2.755  1.00  0.00    -0.363 N 
HETATM   34  C11 UNL     1       5.118  -1.808   3.519  1.00  0.00     0.095 A 
ATOM     35  H2  UNL     1       4.386  -3.597   2.980  1.00  0.00     0.165 HD
HETATM   36  C12 UNL     1       5.175  -0.481   3.174  1.00  0.00     0.068 A 
HETATM   37  S1  UNL     1       4.240  -0.466   1.743  1.00  0.00    -0.087 SA
ENDBRANCH  31  32
ENDBRANCH  21  31
BRANCH  23  38
HETATM   38  C3  UNL     1       1.652   1.266  -1.474  1.00  0.00     0.297 C 
HETATM   39  O2  UNL     1       2.425   0.851  -2.371  1.00  0.00    -0.259 OA
BRANCH  38  40
HETATM   40  O1  UNL     1       1.235   2.518  -1.819  1.00  0.00    -0.318 OA
BRANCH  40  41
HETATM   41  C2  UNL     1       1.582   3.230  -2.944  1.00  0.00     0.174 C 
HETATM   42  C1  UNL     1       0.882   4.593  -2.927  1.00  0.00     0.034 C 
ENDBRANCH  40  41
ENDBRANCH  38  40
ENDBRANCH  23  38
ENDBRANCH   1   9
TORSDOF 6
