REMARK  4 active torsions:
REMARK  status: ('A' for Active; 'I' for Inactive)
REMARK    1  A    between atoms: O1_1  and  C1_3 
REMARK    2  A    between atoms: C1_3  and  C2_4 
REMARK    3  A    between atoms: C4_6  and  O2_7 
REMARK    4  A    between atoms: C6_10  and  N1_11 
ROOT
HETATM    1  C2  UNL     1      -2.001   0.536  -0.419  1.00  0.00     0.150 C 
HETATM    2  C3  UNL     1      -3.091   0.198   0.582  1.00  0.00     0.066 C 
HETATM    3  C4  UNL     1      -2.601  -1.042   1.289  1.00  0.00     0.124 C 
HETATM    4  C5  UNL     1      -1.184  -0.981   1.714  1.00  0.00     0.085 C 
HETATM    5  C6  UNL     1      -0.322   0.022   1.072  1.00  0.00     0.225 C 
HETATM    6  O5  UNL     1      -0.939   1.001   0.336  1.00  0.00    -0.359 OA
ENDROOT
BRANCH   5   7
HETATM    7  N1  UNL     1       0.650  -0.633   0.212  1.00  0.00    -0.345 N 
HETATM    8  C7  UNL     1       1.839  -0.251   0.039  1.00  0.00     0.152 C 
HETATM    9  C8  UNL     1       2.713  -1.025  -0.872  1.00  0.00     0.089 C 
HETATM   10  O4  UNL     1       2.363   0.862   0.664  1.00  0.00    -0.184 OA
HETATM   11  C9  UNL     1       4.152  -0.667  -0.526  1.00  0.00     0.037 C 
HETATM   12  C10 UNL     1       4.235   0.860  -0.621  1.00  0.00     0.211 C 
HETATM   13  O3  UNL     1       3.558   1.373   0.457  1.00  0.00    -0.234 OA
ATOM     14  H1  UNL     1       0.346  -1.467  -0.291  1.00  0.00     0.164 HD
ENDBRANCH   5   7
BRANCH   3  15
HETATM   15  O2  UNL     1      -2.795  -2.106   0.378  1.00  0.00    -0.395 OA
ATOM     16  H2  UNL     1      -2.487  -2.887   0.823  1.00  0.00     0.210 HD
ENDBRANCH   3  15
BRANCH   1  17
HETATM   17  C1  UNL     1      -2.451   1.511  -1.446  1.00  0.00     0.196 C 
BRANCH  17  18
HETATM   18  O1  UNL     1      -2.876   2.715  -0.933  1.00  0.00    -0.398 OA
ATOM     19  H1  UNL     1      -3.164   3.338  -1.590  1.00  0.00     0.209 HD
ENDBRANCH  17  18
ENDBRANCH   1  17
TORSDOF 4
