REMARK  4 active torsions:
REMARK  status: ('A' for Active; 'I' for Inactive)
REMARK    1  A    between atoms: C1_2  and  C2_4 
REMARK    2  A    between atoms: C2_4  and  N2_5 
REMARK    3  A    between atoms: C2_4  and  C3_9 
REMARK       I    between atoms: C3_9  and  N3_11 
REMARK    4  A    between atoms: C4_13  and  C5_14 
ROOT
HETATM    1  C3  UNL     1       2.406   0.250  -0.684  1.00  0.00     0.274 C 
HETATM    2  O2  UNL     1       3.304  -0.541  -1.063  1.00  0.00    -0.269 OA
HETATM    3  N3  UNL     1       1.270  -0.219  -0.003  1.00  0.00    -0.252 N 
HETATM    4  S1  UNL     1      -0.070   0.922   0.294  1.00  0.00    -0.035 SA
HETATM    5  C4  UNL     1      -1.501  -0.154   0.701  1.00  0.00     0.107 C 
HETATM    6  C11 UNL     1      -1.344  -1.425  -0.075  1.00  0.00     0.062 C 
HETATM    7  C12 UNL     1      -0.161  -2.168   0.410  1.00  0.00    -0.029 A 
HETATM    8  C13 UNL     1      -0.270  -3.465   0.846  1.00  0.00     0.009 A 
HETATM    9  C14 UNL     1       0.836  -4.167   1.306  1.00  0.00     0.001 A 
HETATM   10  C15 UNL     1       2.078  -3.523   1.320  1.00  0.00     0.002 A 
HETATM   11  C16 UNL     1       2.225  -2.220   0.890  1.00  0.00     0.031 A 
HETATM   12  C17 UNL     1       1.082  -1.553   0.434  1.00  0.00     0.055 A 
ENDROOT
BRANCH   1  13
HETATM   13  C2  UNL     1       2.611   1.703  -0.995  1.00  0.00     0.364 C 
BRANCH  13  14
HETATM   14  C1  UNL     1       3.076   2.463   0.192  1.00  0.00     0.271 C 
HETATM   15  N1  UNL     1       4.368   3.077   0.250  1.00  0.00    -0.060 NA
HETATM   16  O1  UNL     1       2.356   2.604   1.203  1.00  0.00    -0.274 OA
ENDBRANCH  13  14
BRANCH  13  17
HETATM   17  N2  UNL     1       3.716   1.763  -1.966  1.00  0.00    -0.058 N 
ATOM     18  H23 UNL     1       4.019   2.713  -2.182  1.00  0.00     0.275 HD
ATOM     19  H22 UNL     1       4.606   1.433  -1.593  1.00  0.00     0.275 HD
ATOM     20  H21 UNL     1       3.396   1.241  -2.782  1.00  0.00     0.275 HD
ENDBRANCH  13  17
ENDBRANCH   1  13
BRANCH   5  21
HETATM   21  C5  UNL     1      -2.779   0.539   0.400  1.00  0.00    -0.042 A 
HETATM   22  C6  UNL     1      -3.142   0.946  -0.847  1.00  0.00     0.008 A 
HETATM   23  C7  UNL     1      -4.338   1.588  -1.093  1.00  0.00     0.001 A 
HETATM   24  C8  UNL     1      -5.226   1.849  -0.070  1.00  0.00     0.000 A 
HETATM   25  C9  UNL     1      -4.850   1.433   1.195  1.00  0.00     0.001 A 
HETATM   26  C10 UNL     1      -3.650   0.788   1.443  1.00  0.00     0.008 A 
ENDBRANCH   5  21
TORSDOF 4
