REMARK  7 active torsions:
REMARK  status: ('A' for Active; 'I' for Inactive)
REMARK    1  A    between atoms: C2_2  and  C4_4 
REMARK    2  A    between atoms: C4_4  and  N1_5 
REMARK    3  A    between atoms: C4_4  and  C5_9 
REMARK    4  A    between atoms: C5_9  and  O1_10 
REMARK    5  A    between atoms: C5_9  and  N2_12 
REMARK       I    between atoms: N3_14  and  C7_15 
REMARK    6  A    between atoms: C7_15  and  C8_17 
REMARK    7  A    between atoms: C9_18  and  C10_19 
ROOT
HETATM    1  N2  UNL     1      -1.856   0.670  -0.507  1.00  0.00    -0.330 N 
HETATM    2  C6  UNL     1      -0.638   0.147  -1.181  1.00  0.00     0.255 C 
HETATM    3  N3  UNL     1       0.529   0.239  -0.367  1.00  0.00    -0.332 N 
HETATM    4  C7  UNL     1       1.757  -0.215  -0.977  1.00  0.00     0.244 C 
HETATM    5  O2  UNL     1       1.764  -0.661  -2.159  1.00  0.00    -0.268 OA
HETATM    6  C14 UNL     1       0.635   0.723   0.971  1.00  0.00     0.131 C 
HETATM    7  C15 UNL     1      -0.740   0.920   1.554  1.00  0.00     0.060 C 
HETATM    8  C16 UNL     1      -1.552   1.663   0.473  1.00  0.00     0.196 C 
HETATM    9  C17 UNL     1      -0.577   2.636  -0.097  1.00  0.00     0.085 C 
HETATM   10  N4  UNL     1       0.163   3.398  -0.547  1.00  0.00    -0.195 NA
ENDROOT
BRANCH   1  11
HETATM   11  C5  UNL     1      -3.083   0.141  -0.900  1.00  0.00     0.147 C 
BRANCH  11  12
HETATM   12  C4  UNL     1      -4.440   0.425  -0.463  1.00  0.00     0.260 C 
BRANCH  12  13
HETATM   13  C2  UNL     1      -5.124  -0.804   0.169  1.00  0.00     0.016 C 
HETATM   14  C1  UNL     1      -6.603  -0.459   0.306  1.00  0.00     0.012 C 
HETATM   15  C3  UNL     1      -5.014  -2.003  -0.709  1.00  0.00     0.012 C 
ENDBRANCH  12  13
BRANCH  12  16
HETATM   16  N1  UNL     1      -4.643   1.540   0.391  1.00  0.00    -0.067 N 
ATOM     17  H13 UNL     1      -5.629   1.702   0.596  1.00  0.00     0.275 HD
ATOM     18  H12 UNL     1      -4.329   1.365   1.346  1.00  0.00     0.275 HD
ATOM     19  H11 UNL     1      -4.191   2.353  -0.027  1.00  0.00     0.275 HD
ENDBRANCH  12  16
ENDBRANCH  11  12
BRANCH  11  20
HETATM   20  O1  UNL     1      -3.015  -0.772  -1.823  1.00  0.00    -0.348 OA
ATOM     21  H1  UNL     1      -2.128  -0.958  -2.109  1.00  0.00     0.219 HD
ENDBRANCH  11  20
ENDBRANCH   1  11
BRANCH   4  22
HETATM   22  C8  UNL     1       3.009  -0.173  -0.263  1.00  0.00     0.071 C 
HETATM   23  C9  UNL     1       4.130  -0.578  -0.795  1.00  0.00    -0.013 C 
BRANCH  23  24
HETATM   24  C10 UNL     1       5.413  -0.527  -0.039  1.00  0.00    -0.034 C 
HETATM   25  C11 UNL     1       5.930   0.903   0.009  1.00  0.00     0.018 C 
HETATM   26  C12 UNL     1       5.184  -0.963   1.409  1.00  0.00     0.018 C 
HETATM   27  C13 UNL     1       6.384  -1.455  -0.732  1.00  0.00     0.018 C 
ENDBRANCH  23  24
ENDBRANCH   4  22
TORSDOF 7
