REMARK  3 active torsions:
REMARK  status: ('A' for Active; 'I' for Inactive)
REMARK    1  A    between atoms: C1_2  and  C2_4 
REMARK    2  A    between atoms: C2_4  and  S1_5 
REMARK    3  A    between atoms: S1_5  and  C3_6 
ROOT
HETATM    1  C3  UNL     1      -0.933   1.148  -0.233  1.00  0.00     0.147 A 
HETATM    2  N2  UNL     1      -2.149   1.538  -0.651  1.00  0.00    -0.346 N 
ATOM      3  H2  UNL     1      -2.247   2.362  -1.244  1.00  0.00     0.167 HD
HETATM    4  C4  UNL     1      -3.227   0.844  -0.288  1.00  0.00     0.096 A 
HETATM    5  C5  UNL     1      -3.137  -0.277   0.515  1.00  0.00     0.091 A 
HETATM    6  C6  UNL     1      -1.861  -0.636   0.919  1.00  0.00     0.248 A 
HETATM    7  O2  UNL     1      -1.698  -1.659   1.660  1.00  0.00    -0.268 OA
HETATM    8  N3  UNL     1      -0.776   0.071   0.547  1.00  0.00    -0.304 N 
ATOM      9  H3  UNL     1       0.154  -0.211   0.856  1.00  0.00     0.171 HD
ENDROOT
BRANCH   1  10
HETATM   10  S1  UNL     1       0.534   2.070  -0.729  1.00  0.00    -0.085 SA
BRANCH  10  11
HETATM   11  C2  UNL     1       2.003   1.240  -0.103  1.00  0.00     0.181 C 
BRANCH  11  12
HETATM   12  C1  UNL     1       2.217  -0.064  -0.789  1.00  0.00     0.240 C 
HETATM   13  N1  UNL     1       3.329  -0.872  -0.419  1.00  0.00    -0.061 NA
HETATM   14  O1  UNL     1       1.470  -0.514  -1.693  1.00  0.00    -0.276 OA
ENDBRANCH  11  12
ENDBRANCH  10  11
ENDBRANCH   1  10
TORSDOF 3
