REMARK  5 active torsions:
REMARK  status: ('A' for Active; 'I' for Inactive)
REMARK    1  A    between atoms: C1_2  and  C2_4 
REMARK    2  A    between atoms: C2_4  and  C3_5 
REMARK    3  A    between atoms: C3_5  and  N2_6 
REMARK    4  A    between atoms: C3_5  and  C4_10 
REMARK    5  A    between atoms: C4_10  and  C5_12 
ROOT
HETATM    1  C4  UNL     1       0.528  -0.205  -0.694  1.00  0.00     0.161 C 
HETATM    2  O2  UNL     1       0.767  -0.897  -1.650  1.00  0.00    -0.295 OA
ENDROOT
BRANCH   1   3
HETATM    3  C3  UNL     1       1.542   0.664  -0.059  1.00  0.00     0.261 C 
BRANCH   3   4
HETATM    4  C2  UNL     1       2.661  -0.122   0.577  1.00  0.00     0.140 C 
BRANCH   4   5
HETATM    5  C1  UNL     1       3.397  -0.981  -0.353  1.00  0.00     0.233 C 
HETATM    6  N1  UNL     1       4.516  -0.475  -1.056  1.00  0.00    -0.062 NA
HETATM    7  O1  UNL     1       3.056  -2.170  -0.545  1.00  0.00    -0.277 OA
ENDBRANCH   4   5
ENDBRANCH   3   4
BRANCH   3   8
HETATM    8  N2  UNL     1       0.947   1.447   1.033  1.00  0.00    -0.068 N 
ATOM      9  H23 UNL     1       0.652   0.883   1.830  1.00  0.00     0.275 HD
ATOM     10  H22 UNL     1       1.619   2.024   1.538  1.00  0.00     0.275 HD
ATOM     11  H21 UNL     1       0.190   1.979   0.603  1.00  0.00     0.275 HD
ENDBRANCH   3   8
ENDBRANCH   1   3
BRANCH   1  12
HETATM   12  C5  UNL     1      -0.841  -0.234  -0.143  1.00  0.00     0.060 C 
HETATM   13  C6  UNL     1      -1.547   1.078  -0.157  1.00  0.00     0.040 C 
HETATM   14  C7  UNL     1      -2.886   1.039  -0.846  1.00  0.00     0.233 C 
HETATM   15  N3  UNL     1      -3.731  -0.024  -0.426  1.00  0.00    -0.075 N 
HETATM   16  C8  UNL     1      -3.041  -1.252  -0.117  1.00  0.00     0.233 C 
ATOM     17  H32 UNL     1      -4.304   0.270   0.365  1.00  0.00     0.277 HD
ATOM     18  H31 UNL     1      -4.461  -0.192  -1.119  1.00  0.00     0.277 HD
HETATM   19  C9  UNL     1      -1.724  -1.243  -0.862  1.00  0.00     0.040 C 
ENDBRANCH   1  12
TORSDOF 5
