REMARK  5 active torsions:
REMARK  status: ('A' for Active; 'I' for Inactive)
REMARK    1  A    between atoms: C1_2  and  C2_4 
REMARK    2  A    between atoms: C2_4  and  C3_5 
REMARK    3  A    between atoms: C3_5  and  N2_6 
REMARK    4  A    between atoms: C3_5  and  C4_10 
REMARK    5  A    between atoms: C4_10  and  C5_12 
ROOT
HETATM    1  C3  UNL     1      -0.622  -1.048   0.365  1.00  0.00     0.267 C 
ENDROOT
BRANCH   1   2
HETATM    2  C2  UNL     1      -1.428   0.082  -0.257  1.00  0.00     0.140 C 
BRANCH   2   3
HETATM    3  C1  UNL     1      -2.780   0.178   0.295  1.00  0.00     0.233 C 
HETATM    4  N1  UNL     1      -3.634   1.198  -0.207  1.00  0.00    -0.062 NA
HETATM    5  O1  UNL     1      -3.252  -0.575   1.185  1.00  0.00    -0.277 OA
ENDBRANCH   2   3
ENDBRANCH   1   2
BRANCH   1   6
HETATM    6  N2  UNL     1      -1.288  -2.325   0.123  1.00  0.00    -0.067 N 
ATOM      7  H23 UNL     1      -2.255  -2.320   0.448  1.00  0.00     0.275 HD
ATOM      8  H22 UNL     1      -1.466  -2.482  -0.869  1.00  0.00     0.275 HD
ATOM      9  H21 UNL     1      -0.747  -3.083   0.540  1.00  0.00     0.275 HD
ENDBRANCH   1   6
BRANCH   1  10
HETATM   10  C4  UNL     1       0.666  -1.079  -0.354  1.00  0.00     0.206 C 
HETATM   11  O2  UNL     1       0.891  -1.981  -1.186  1.00  0.00    -0.288 OA
BRANCH  10  12
HETATM   12  C5  UNL     1       1.669  -0.070  -0.100  1.00  0.00     0.080 A 
HETATM   13  C6  UNL     1       1.629   0.974   0.797  1.00  0.00     0.034 A 
HETATM   14  C7  UNL     1       2.816   1.664   0.701  1.00  0.00     0.019 A 
HETATM   15  C8  UNL     1       3.587   1.044  -0.255  1.00  0.00     0.088 A 
HETATM   16  N3  UNL     1       2.864   0.010  -0.710  1.00  0.00    -0.363 N 
ATOM     17  H3  UNL     1       3.182  -0.637  -1.431  1.00  0.00     0.165 HD
ENDBRANCH  10  12
ENDBRANCH   1  10
TORSDOF 5
