REMARK  7 active torsions:
REMARK  status: ('A' for Active; 'I' for Inactive)
REMARK    1  A    between atoms: N1_1  and  C1_4 
REMARK    2  A    between atoms: C1_4  and  C2_5 
REMARK    3  A    between atoms: C2_5  and  C3_6 
REMARK    4  A    between atoms: C3_6  and  N2_7 
REMARK    5  A    between atoms: N2_7  and  C4_9 
REMARK    6  A    between atoms: C6_15  and  N5_16 
REMARK    7  A    between atoms: C7_19  and  C8_20 
ROOT
HETATM    1  C4  UNL     1       0.434  -0.129   0.062  1.00  0.00     0.119 A 
HETATM    2  N3  UNL     1       0.591  -1.352   0.662  1.00  0.00    -0.338 N 
ATOM      3  H3  UNL     1      -0.242  -1.922   0.810  1.00  0.00     0.168 HD
HETATM    4  C5  UNL     1       1.751  -1.837   1.060  1.00  0.00     0.183 A 
HETATM    5  N4  UNL     1       2.845  -1.097   0.869  1.00  0.00    -0.338 N 
ATOM      6  H4  UNL     1       3.752  -1.454   1.169  1.00  0.00     0.168 HD
HETATM    7  C6  UNL     1       2.767   0.136   0.275  1.00  0.00     0.116 A 
HETATM    8  C7  UNL     1       1.535   0.651  -0.147  1.00  0.00     0.089 A 
ENDROOT
BRANCH   1   9
HETATM    9  N2  UNL     1      -0.862   0.285  -0.322  1.00  0.00    -0.374 N 
ATOM     10  H2  UNL     1      -0.993   1.192  -0.770  1.00  0.00     0.161 HD
BRANCH   9  11
HETATM   11  C3  UNL     1      -2.020  -0.585  -0.079  1.00  0.00     0.134 C 
BRANCH  11  12
HETATM   12  C2  UNL     1      -3.231   0.089  -0.573  1.00  0.00     0.123 C 
BRANCH  12  13
HETATM   13  C1  UNL     1      -4.402  -0.128  -0.065  1.00  0.00    -0.076 C 
BRANCH  13  14
HETATM   14  N1  UNL     1      -5.446  -0.352   0.621  1.00  0.00    -0.370 N 
ATOM     15  H12 UNL     1      -4.855  -0.385   1.452  1.00  0.00     0.165 HD
ATOM     16  H11 UNL     1      -6.369  -0.523   1.021  1.00  0.00     0.165 HD
ENDBRANCH  13  14
ENDBRANCH  12  13
ENDBRANCH  11  12
ENDBRANCH   9  11
ENDBRANCH   1   9
BRANCH   8  17
HETATM   17  C8  UNL     1       1.537   1.957  -0.763  1.00  0.00     0.277 C 
HETATM   18  O1  UNL     1       0.583   2.605  -1.208  1.00  0.00    -0.301 OA
ENDBRANCH   8  17
BRANCH   7  19
HETATM   19  N5  UNL     1       3.883   0.743   0.150  1.00  0.00    -0.385 N 
ATOM     20  H52 UNL     1       4.780   0.368   0.457  1.00  0.00     0.157 HD
ATOM     21  H51 UNL     1       3.825   1.660  -0.292  1.00  0.00     0.157 HD
ENDBRANCH   7  19
TORSDOF 7
