REMARK  4 active torsions:
REMARK  status: ('A' for Active; 'I' for Inactive)
REMARK    1  A    between atoms: C2_2  and  C3_4 
REMARK    2  A    between atoms: C3_4  and  C4_5 
REMARK    3  A    between atoms: C4_5  and  N1_6 
REMARK       I    between atoms: N1_6  and  C5_8 
REMARK    4  A    between atoms: C5_8  and  C6_10 
ROOT
HETATM    1  C6  UNL     1      -0.256  -0.434   0.174  1.00  0.00     0.044 C 
HETATM    2  C7  UNL     1      -0.568  -0.926  -1.222  1.00  0.00     0.024 C 
HETATM    3  C8  UNL     1      -2.060  -0.998  -1.361  1.00  0.00    -0.011 C 
HETATM    4  C9  UNL     1      -2.732  -1.850  -0.341  1.00  0.00     0.029 C 
HETATM    5  C10 UNL     1      -2.250  -1.637   1.057  1.00  0.00     0.078 C 
HETATM    6  C11 UNL     1      -0.769  -1.493   1.125  1.00  0.00     0.044 C 
HETATM    7  N2  UNL     1      -2.863  -0.549   1.746  1.00  0.00    -0.416 N 
ATOM      8  H2  UNL     1      -2.956  -0.530   2.762  1.00  0.00     0.153 HD
HETATM    9  C12 UNL     1      -3.337   0.509   0.919  1.00  0.00     0.123 C 
HETATM   10  C13 UNL     1      -2.300   1.039  -0.050  1.00  0.00    -0.027 C 
HETATM   11  C14 UNL     1      -2.591   2.542  -0.185  1.00  0.00     0.017 C 
HETATM   12  C15 UNL     1      -2.579   0.421  -1.390  1.00  0.00     0.015 C 
HETATM   13  C16 UNL     1      -0.903   0.907   0.427  1.00  0.00     0.030 C 
ENDROOT
BRANCH   1  14
HETATM   14  C5  UNL     1       1.184  -0.255   0.400  1.00  0.00     0.226 C 
HETATM   15  N1  UNL     1       1.905   0.648  -0.407  1.00  0.00    -0.360 N 
ATOM     16  H1  UNL     1       1.398   1.155  -1.132  1.00  0.00     0.162 HD
HETATM   17  O1  UNL     1       1.764  -0.891   1.293  1.00  0.00    -0.273 OA
BRANCH  15  18
HETATM   18  C4  UNL     1       3.312   0.894  -0.266  1.00  0.00     0.128 C 
BRANCH  18  19
HETATM   19  C3  UNL     1       4.178  -0.323  -0.465  1.00  0.00     0.070 C 
BRANCH  19  20
HETATM   20  C2  UNL     1       5.583   0.093  -0.290  1.00  0.00     0.004 C 
HETATM   21  C1  UNL     1       6.449  -0.048  -1.263  1.00  0.00     0.032 C 
HETATM   22 CL1  UNL     1       6.098   0.779   1.226  1.00  0.00    -0.090 Cl
ENDBRANCH  19  20
ENDBRANCH  18  19
ENDBRANCH  15  18
ENDBRANCH   1  14
TORSDOF 4
