REMARK  2 active torsions:
REMARK  status: ('A' for Active; 'I' for Inactive)
REMARK    1  A    between atoms: C2_2  and  C3_3 
REMARK    2  A    between atoms: C4_7  and  N2_9 
ROOT
HETATM    1  C3  UNL     1       0.970  -0.461  -0.416  1.00  0.00     0.323 C 
HETATM    2  N1  UNL     1       0.087   0.645  -0.236  1.00  0.00    -0.015 N 
ATOM      3  H11 UNL     1      -0.033   1.188  -1.091  1.00  0.00     0.283 HD
ATOM      4  H12 UNL     1       0.497   1.378   0.344  1.00  0.00     0.283 HD
HETATM    5  C4  UNL     1      -1.156   0.172   0.285  1.00  0.00     0.285 C 
HETATM    6  C5  UNL     1      -2.204   1.251   0.414  1.00  0.00     0.078 C 
HETATM    7  C6  UNL     1      -1.642  -0.949  -0.595  1.00  0.00     0.095 C 
HETATM    8  C7  UNL     1      -0.778  -1.031  -1.810  1.00  0.00     0.174 C 
HETATM    9  O1  UNL     1       0.570  -1.194  -1.516  1.00  0.00    -0.359 OA
ENDROOT
BRANCH   5  10
HETATM   10  N2  UNL     1      -0.957  -0.385   1.616  1.00  0.00    -0.045 N 
ATOM     11  H23 UNL     1      -0.238  -1.109   1.624  1.00  0.00     0.277 HD
ATOM     12  H22 UNL     1      -0.506   0.279   2.245  1.00  0.00     0.277 HD
ATOM     13  H21 UNL     1      -1.845  -0.723   1.988  1.00  0.00     0.277 HD
ENDBRANCH   5  10
BRANCH   1  14
HETATM   14  C2  UNL     1       2.433  -0.055  -0.494  1.00  0.00     0.057 C 
HETATM   15  C1  UNL     1       2.865   0.646   0.772  1.00  0.00     0.009 C 
ENDBRANCH   1  14
TORSDOF 2
