REMARK  1 active torsions:
REMARK  status: ('A' for Active; 'I' for Inactive)
REMARK    1  A    between atoms: C6_6  and  O1_7 
ROOT
HETATM    1  C1  UNL     1      -2.345   0.503  -0.199  1.00  0.00     0.039 C 
HETATM    2  C2  UNL     1      -0.928   0.381   0.364  1.00  0.00     0.120 C 
HETATM    3  C3  UNL     1      -0.560  -1.063   0.420  1.00  0.00     0.032 C 
HETATM    4  C4  UNL     1       0.892  -1.363   0.272  1.00  0.00     0.007 C 
HETATM    5  C5  UNL     1       1.690  -0.358  -0.473  1.00  0.00     0.060 C 
HETATM    6  C6  UNL     1       1.123   0.991  -0.601  1.00  0.00     0.257 C 
HETATM    7  O2  UNL     1      -0.152   1.219  -0.304  1.00  0.00    -0.357 OA
ENDROOT
BRANCH   6   8
HETATM    8  O1  UNL     1       1.902   1.873   0.196  1.00  0.00    -0.371 OA
ATOM      9  H1  UNL     1       1.535   2.745   0.113  1.00  0.00     0.212 HD
ENDBRANCH   6   8
TORSDOF 1
