REMARK  13 active torsions:
REMARK  status: ('A' for Active; 'I' for Inactive)
REMARK    1  A    between atoms: S1_2  and  C2_3 
REMARK    2  A    between atoms: C5_6  and  O1_7 
REMARK    3  A    between atoms: O1_7  and  C6_8 
REMARK    4  A    between atoms: C6_8  and  C7_9 
REMARK    5  A    between atoms: C7_9  and  O2_10 
REMARK    6  A    between atoms: O2_10  and  C8_11 
REMARK    7  A    between atoms: C8_11  and  C9_12 
REMARK    8  A    between atoms: C9_12  and  O3_13 
REMARK    9  A    between atoms: O3_13  and  C10_14 
REMARK   10  A    between atoms: C10_14  and  C11_15 
REMARK   11  A    between atoms: C11_15  and  O4_16 
REMARK   12  A    between atoms: O4_16  and  C12_17 
REMARK   13  A    between atoms: C12_17  and  C14_19 
ROOT
HETATM    1  C8  UNL     1       0.750   0.076   0.255  1.00  0.00     0.193 C 
ENDROOT
BRANCH   1   2
HETATM    2  O2  UNL     1       1.547   1.177   0.064  1.00  0.00    -0.387 OA
BRANCH   2   3
HETATM    3  C7  UNL     1       2.146   1.577   1.229  1.00  0.00     0.194 C 
BRANCH   3   4
HETATM    4  C6  UNL     1       3.024   0.440   1.778  1.00  0.00     0.203 C 
BRANCH   4   5
HETATM    5  O1  UNL     1       3.978   0.019   1.020  1.00  0.00    -0.334 OA
BRANCH   5   6
HETATM    6  C5  UNL     1       4.962  -0.481   0.347  1.00  0.00     0.141 A 
HETATM    7  C4  UNL     1       5.307  -0.019  -0.942  1.00  0.00     0.057 A 
HETATM    8  C3  UNL     1       6.357  -0.595  -1.594  1.00  0.00     0.024 A 
HETATM    9  C2  UNL     1       7.106  -1.613  -1.056  1.00  0.00     0.015 A 
HETATM   10  C20 UNL     1       6.752  -2.046   0.200  1.00  0.00     0.108 A 
HETATM   11  N1  UNL     1       5.727  -1.498   0.861  1.00  0.00    -0.346 N 
ATOM     12  H1  UNL     1       5.503  -1.852   1.791  1.00  0.00     0.167 HD
BRANCH   9  13
HETATM   13  S1  UNL     1       8.473  -2.375  -1.883  1.00  0.00    -0.133 SA
HETATM   14  C1  UNL     1       9.976  -1.434  -1.424  1.00  0.00     0.095 C 
ENDBRANCH   9  13
ENDBRANCH   5   6
ENDBRANCH   4   5
ENDBRANCH   3   4
ENDBRANCH   2   3
ENDBRANCH   1   2
BRANCH   1  15
HETATM   15  C9  UNL     1       0.093  -0.264  -1.079  1.00  0.00     0.193 C 
BRANCH  15  16
HETATM   16  O3  UNL     1      -0.731  -1.357  -0.999  1.00  0.00    -0.387 OA
BRANCH  16  17
HETATM   17  C10 UNL     1      -1.775  -1.246  -0.119  1.00  0.00     0.193 C 
BRANCH  17  18
HETATM   18  C11 UNL     1      -2.702  -0.092  -0.454  1.00  0.00     0.194 C 
BRANCH  18  19
HETATM   19  O4  UNL     1      -3.734  -0.049   0.488  1.00  0.00    -0.380 OA
BRANCH  19  20
HETATM   20  C12 UNL     1      -4.623   0.970   0.254  1.00  0.00     0.150 C 
HETATM   21  C13 UNL     1      -4.541   1.921   1.437  1.00  0.00     0.045 C 
BRANCH  20  22
HETATM   22  C14 UNL     1      -5.995   0.432   0.076  1.00  0.00    -0.030 A 
HETATM   23  C15 UNL     1      -6.467  -0.523   0.949  1.00  0.00     0.010 A 
HETATM   24  C16 UNL     1      -7.739  -1.063   0.833  1.00  0.00     0.001 A 
HETATM   25  C17 UNL     1      -8.513  -0.591  -0.207  1.00  0.00     0.000 A 
HETATM   26  C18 UNL     1      -8.102   0.360  -1.112  1.00  0.00     0.001 A 
HETATM   27  C19 UNL     1      -6.809   0.871  -0.949  1.00  0.00     0.010 A 
ENDBRANCH  20  22
ENDBRANCH  19  20
ENDBRANCH  18  19
ENDBRANCH  17  18
ENDBRANCH  16  17
ENDBRANCH  15  16
ENDBRANCH   1  15
TORSDOF 13
