REMARK  4 active torsions:
REMARK  status: ('A' for Active; 'I' for Inactive)
REMARK    1  A    between atoms: C8_9  and  O2_10 
REMARK    2  A    between atoms: C10_13  and  O3_14 
REMARK    3  A    between atoms: C15_20  and  C16_21 
REMARK    4  A    between atoms: C16_21  and  C17_22 
ROOT
HETATM    1  C1  UNL     1       2.855  -2.916  -1.382  1.00  0.00     0.019 C 
HETATM    2  C2  UNL     1       1.808  -2.284  -0.945  1.00  0.00    -0.062 C 
HETATM    3  C3  UNL     1       0.728  -2.888  -0.128  1.00  0.00     0.038 C 
HETATM    4  C4  UNL     1      -0.052  -1.970   0.757  1.00  0.00     0.013 C 
HETATM    5  C5  UNL     1      -0.307  -0.692   0.155  1.00  0.00     0.038 C 
HETATM    6  C6  UNL     1       0.203  -0.442  -1.241  1.00  0.00     0.089 C 
HETATM    7  C7  UNL     1      -0.522  -1.212  -2.334  1.00  0.00     0.051 C 
HETATM    8  O1  UNL     1      -0.149   0.866  -1.432  1.00  0.00    -0.339 OA
HETATM    9  C8  UNL     1      -1.264   1.142  -0.695  1.00  0.00     0.173 C 
HETATM   10  C9  UNL     1      -2.465   1.707  -1.301  1.00  0.00     0.100 C 
HETATM   11  C10 UNL     1      -3.424   2.070  -0.202  1.00  0.00     0.123 C 
HETATM   12  C11 UNL     1      -3.292   1.457   1.119  1.00  0.00     0.033 C 
HETATM   13  C12 UNL     1      -2.151   0.537   1.414  1.00  0.00     0.017 C 
HETATM   14  C13 UNL     1      -1.658  -0.092   0.098  1.00  0.00     0.019 C 
HETATM   15  C14 UNL     1      -2.762  -0.909  -0.394  1.00  0.00     0.021 C 
HETATM   16  C15 UNL     1       1.610  -0.809  -1.249  1.00  0.00    -0.037 C 
ENDROOT
BRANCH  16  17
HETATM   17  C16 UNL     1       2.696   0.023  -0.712  1.00  0.00     0.065 C 
BRANCH  17  18
HETATM   18  C17 UNL     1       2.987  -0.045   0.685  1.00  0.00    -0.020 C 
HETATM   19  C18 UNL     1       3.058   0.899   1.547  1.00  0.00    -0.091 C 
HETATM   20  C19 UNL     1       2.851   2.342   1.316  1.00  0.00     0.042 C 
HETATM   21  C20 UNL     1       3.382   0.552   3.005  1.00  0.00     0.042 C 
ENDBRANCH  17  18
ENDBRANCH  16  17
BRANCH   9  22
HETATM   22  O2  UNL     1      -0.814   2.140   0.226  1.00  0.00    -0.364 OA
ATOM     23  H2  UNL     1      -1.590   2.332   0.739  1.00  0.00     0.213 HD
ENDBRANCH   9  22
BRANCH  11  24
HETATM   24  O3  UNL     1      -4.720   1.764  -0.725  1.00  0.00    -0.395 OA
ATOM     25  H3  UNL     1      -5.326   1.993  -0.030  1.00  0.00     0.210 HD
ENDBRANCH  11  24
TORSDOF 4
