REMARK  6 active torsions:
REMARK  status: ('A' for Active; 'I' for Inactive)
REMARK    1  A    between atoms: C2_2  and  C3_3 
REMARK    2  A    between atoms: C3_3  and  C4_4 
REMARK    3  A    between atoms: C4_4  and  N1_7 
REMARK       I    between atoms: N1_7  and  C7_9 
REMARK       I    between atoms: C7_9  and  N2_11 
REMARK    4  A    between atoms: N2_11  and  C8_13 
REMARK    5  A    between atoms: C8_13  and  N3_15 
REMARK    6  A    between atoms: N3_15  and  C9_17 
ROOT
HETATM    1  N1  UNL     1       2.190   0.461   0.263  1.00  0.00    -0.334 N 
ATOM      2  H1  UNL     1       1.761   1.013  -0.479  1.00  0.00     0.165 HD
HETATM    3  C7  UNL     1       1.483  -0.699   0.749  1.00  0.00     0.323 C 
HETATM    4  O1  UNL     1       1.962  -1.416   1.657  1.00  0.00    -0.247 OA
HETATM    5  N2  UNL     1       0.237  -1.035   0.199  1.00  0.00    -0.286 N 
ATOM      6  H2  UNL     1      -0.153  -0.449  -0.539  1.00  0.00     0.173 HD
ENDROOT
BRANCH   5   7
HETATM    7  C8  UNL     1      -0.488  -2.154   0.635  1.00  0.00     0.175 C 
HETATM    8  S1  UNL     1       0.114  -3.107   1.808  1.00  0.00    -0.041 SA
BRANCH   7   9
HETATM    9  N3  UNL     1      -1.764  -2.480   0.073  1.00  0.00    -0.362 N 
ATOM     10  H3  UNL     1      -2.244  -3.309   0.422  1.00  0.00     0.162 HD
BRANCH   9  11
HETATM   11  C9  UNL     1      -2.410  -1.708  -0.955  1.00  0.00     0.083 C 
HETATM   12  C10 UNL     1      -3.698  -2.375  -1.399  1.00  0.00     0.025 C 
HETATM   13  C11 UNL     1      -4.591  -1.411  -2.142  1.00  0.00     0.002 C 
HETATM   14  C12 UNL     1      -5.219  -0.476  -1.137  1.00  0.00     0.000 C 
HETATM   15  C13 UNL     1      -4.283  -0.338   0.021  1.00  0.00     0.002 C 
HETATM   16  C14 UNL     1      -2.817  -0.362  -0.376  1.00  0.00     0.025 C 
ENDBRANCH   9  11
ENDBRANCH   7   9
ENDBRANCH   5   7
BRANCH   1  17
HETATM   17  C4  UNL     1       3.462   0.876   0.769  1.00  0.00     0.030 C 
HETATM   18  C5  UNL     1       4.553  -0.151   0.668  1.00  0.00     0.038 C 
HETATM   19  C6  UNL     1       3.264   1.145   2.268  1.00  0.00     0.038 C 
BRANCH  17  20
HETATM   20  C3  UNL     1       3.972   2.122   0.078  1.00  0.00     0.056 C 
BRANCH  20  21
HETATM   21  C2  UNL     1       3.026   3.239   0.078  1.00  0.00    -0.034 C 
HETATM   22  C1  UNL     1       3.338   4.386   0.642  1.00  0.00     0.007 C 
ENDBRANCH  20  21
ENDBRANCH  17  20
ENDBRANCH   1  17
TORSDOF 6
