REMARK  4 active torsions:
REMARK  status: ('A' for Active; 'I' for Inactive)
REMARK    1  A    between atoms: C2_3  and  N2_4 
REMARK    2  A    between atoms: N2_4  and  C3_6 
REMARK    3  A    between atoms: C5_12  and  N5_13 
REMARK    4  A    between atoms: N5_13  and  C6_15 
ROOT
HETATM    1  N1  UNL     1       4.471   1.640   2.503  1.00  0.00    -0.196 NA
HETATM    2  C1  UNL     1       4.062   0.838   1.760  1.00  0.00     0.078 C 
HETATM    3  C2  UNL     1       3.570  -0.145   0.824  1.00  0.00     0.245 C 
ENDROOT
BRANCH   3   4
HETATM    4  N2  UNL     1       2.282   0.262   0.310  1.00  0.00    -0.361 N 
ATOM      5  H2  UNL     1       1.863   1.137   0.625  1.00  0.00     0.162 HD
BRANCH   4   6
HETATM    6  C3  UNL     1       1.587  -0.562  -0.645  1.00  0.00     0.145 A 
HETATM    7  N3  UNL     1       2.030  -1.732  -1.137  1.00  0.00    -0.284 N 
HETATM    8  N4  UNL     1       1.143  -2.218  -1.989  1.00  0.00    -0.308 N 
ATOM      9  H3  UNL     1       2.914  -2.177  -0.891  1.00  0.00     0.188 HD
HETATM   10  C4  UNL     1       0.091  -1.386  -2.084  1.00  0.00     0.141 A 
ATOM     11  H4  UNL     1       1.242  -3.096  -2.499  1.00  0.00     0.186 HD
HETATM   12  C5  UNL     1       0.366  -0.336  -1.236  1.00  0.00     0.111 A 
BRANCH  12  13
HETATM   13  N5  UNL     1      -0.444   0.786  -0.996  1.00  0.00    -0.186 N 
ATOM     14  H5  UNL     1      -0.089   1.680  -1.335  1.00  0.00     0.184 HD
BRANCH  13  15
HETATM   15  C6  UNL     1      -1.561   0.815  -0.409  1.00  0.00     0.687 A 
HETATM   16  N6  UNL     1      -2.177   2.014  -0.285  1.00  0.00    -0.187 N 
HETATM   17  C7  UNL     1      -3.381   2.069   0.344  1.00  0.00     0.202 A 
ATOM     18  H6  UNL     1      -1.746   2.860  -0.657  1.00  0.00     0.185 HD
HETATM   19  N7  UNL     1      -3.966   0.955   0.843  1.00  0.00    -0.304 N 
HETATM   20  C8  UNL     1      -3.347  -0.234   0.716  1.00  0.00     0.339 A 
ATOM     21  H7  UNL     1      -4.870   1.016   1.312  1.00  0.00     0.171 HD
HETATM   22  O1  UNL     1      -3.837  -1.307   1.157  1.00  0.00    -0.246 OA
HETATM   23  N8  UNL     1      -2.137  -0.297   0.085  1.00  0.00    -0.141 N 
ATOM     24  H8  UNL     1      -1.665  -1.196  -0.013  1.00  0.00     0.189 HD
ENDBRANCH  13  15
ENDBRANCH  12  13
ENDBRANCH   4   6
ENDBRANCH   3   4
TORSDOF 4
