REMARK  5 active torsions:
REMARK  status: ('A' for Active; 'I' for Inactive)
REMARK    1  A    between atoms: N1_1  and  C1_4 
REMARK    2  A    between atoms: C3_10  and  N4_11 
REMARK    3  A    between atoms: N4_11  and  O1_12 
REMARK    4  A    between atoms: N4_11  and  C4_14 
REMARK    5  A    between atoms: C5_16  and  N5_17 
ROOT
HETATM    1  C1  UNL     1      -1.150  -1.796   0.190  1.00  0.00     0.130 A 
HETATM    2  N2  UNL     1      -2.432  -2.181   0.086  1.00  0.00    -0.337 N 
ATOM      3  H2  UNL     1      -2.667  -3.168   0.193  1.00  0.00     0.168 HD
HETATM    4  C2  UNL     1      -3.415  -1.292  -0.156  1.00  0.00     0.183 A 
HETATM    5  N3  UNL     1      -3.110   0.005  -0.297  1.00  0.00    -0.335 N 
ATOM      6  H3  UNL     1      -3.865   0.666  -0.481  1.00  0.00     0.168 HD
HETATM    7  C3  UNL     1      -1.826   0.484  -0.205  1.00  0.00     0.167 A 
HETATM    8  C5  UNL     1      -0.853  -0.439   0.041  1.00  0.00     0.121 A 
ENDROOT
BRANCH   8   9
HETATM    9  N5  UNL     1       0.499  -0.055   0.156  1.00  0.00    -0.372 N 
HETATM   10  C6  UNL     1       1.303  -0.059  -1.046  1.00  0.00     0.150 C 
HETATM   11  C7  UNL     1       2.758   0.124  -0.847  1.00  0.00     0.252 C 
HETATM   12  N6  UNL     1       3.202   0.515   0.442  1.00  0.00    -0.072 N 
HETATM   13  C8  UNL     1       2.483  -0.281   1.448  1.00  0.00     0.252 C 
ATOM     14  H62 UNL     1       4.215   0.449   0.543  1.00  0.00     0.277 HD
ATOM     15  H61 UNL     1       3.110   1.519   0.599  1.00  0.00     0.277 HD
HETATM   16  C9  UNL     1       1.065   0.318   1.447  1.00  0.00     0.150 C 
ENDBRANCH   8   9
BRANCH   1  17
HETATM   17  N1  UNL     1      -0.183  -2.600   0.417  1.00  0.00    -0.383 N 
ATOM     18  H12 UNL     1      -0.400  -3.591   0.526  1.00  0.00     0.157 HD
ATOM     19  H11 UNL     1       0.791  -2.308   0.496  1.00  0.00     0.157 HD
ENDBRANCH   1  17
BRANCH   7  20
HETATM   20  N4  UNL     1      -1.556   1.857  -0.354  1.00  0.00    -0.179 N 
BRANCH  20  21
HETATM   21  O1  UNL     1      -1.252   2.579   0.743  1.00  0.00    -0.279 OA
ATOM     22  H1  UNL     1      -1.070   3.506   0.642  1.00  0.00     0.245 HD
ENDBRANCH  20  21
BRANCH  20  23
HETATM   23  C4  UNL     1      -1.601   2.540  -1.601  1.00  0.00     0.383 C 
HETATM   24  O2  UNL     1      -1.901   1.901  -2.661  1.00  0.00    -0.281 OA
ENDBRANCH  20  23
ENDBRANCH   7  20
TORSDOF 5
