REMARK  5 active torsions:
REMARK  status: ('A' for Active; 'I' for Inactive)
REMARK    1  A    between atoms: N1_1  and  C1_4 
REMARK    2  A    between atoms: C2_7  and  S1_8 
REMARK    3  A    between atoms: S1_8  and  C3_9 
REMARK    4  A    between atoms: C3_9  and  C4_10 
REMARK    5  A    between atoms: C4_10  and  C5_11 
ROOT
HETATM    1  C1  UNL     1       4.382   0.222   0.517  1.00  0.00     0.681 A 
HETATM    2  N2  UNL     1       3.106   0.671   0.699  1.00  0.00    -0.170 N 
ATOM      3  H2  UNL     1       2.942   1.632   1.000  1.00  0.00     0.186 HD
HETATM    4  C2  UNL     1       2.073  -0.147   0.483  1.00  0.00     0.163 A 
HETATM    5  N3  UNL     1       2.290  -1.407   0.089  1.00  0.00    -0.288 N 
ATOM      6  H3  UNL     1       1.490  -2.020  -0.071  1.00  0.00     0.172 HD
HETATM    7  C11 UNL     1       3.538  -1.894  -0.104  1.00  0.00     0.340 A 
HETATM    8  O1  UNL     1       3.700  -3.075  -0.472  1.00  0.00    -0.246 OA
HETATM    9  N4  UNL     1       4.564  -1.066   0.115  1.00  0.00    -0.141 N 
ATOM     10  H4  UNL     1       5.514  -1.410  -0.024  1.00  0.00     0.189 HD
ENDROOT
BRANCH   4  11
HETATM   11  S1  UNL     1       0.417   0.430   0.717  1.00  0.00    -0.093 SA
BRANCH  11  12
HETATM   12  C3  UNL     1      -0.151   1.115  -0.861  1.00  0.00     0.087 C 
BRANCH  12  13
HETATM   13  C4  UNL     1      -1.561   1.639  -0.775  1.00  0.00     0.049 C 
BRANCH  13  14
HETATM   14  C5  UNL     1      -2.544   0.617  -0.401  1.00  0.00    -0.057 A 
HETATM   15  C6  UNL     1      -3.191  -0.139  -1.342  1.00  0.00     0.007 A 
HETATM   16  C7  UNL     1      -4.115  -1.098  -0.965  1.00  0.00     0.001 A 
HETATM   17  C8  UNL     1      -4.374  -1.279   0.375  1.00  0.00     0.000 A 
HETATM   18  C9  UNL     1      -3.739  -0.533   1.346  1.00  0.00     0.001 A 
HETATM   19  C10 UNL     1      -2.822   0.416   0.935  1.00  0.00     0.007 A 
ENDBRANCH  13  14
ENDBRANCH  12  13
ENDBRANCH  11  12
ENDBRANCH   4  11
BRANCH   1  20
HETATM   20  N1  UNL     1       5.384   1.005   0.722  1.00  0.00    -0.234 N 
ATOM     21  H12 UNL     1       5.248   1.970   1.023  1.00  0.00     0.174 HD
ATOM     22  H11 UNL     1       6.338   0.669   0.586  1.00  0.00     0.174 HD
ENDBRANCH   1  20
TORSDOF 5
