REMARK  6 active torsions:
REMARK  status: ('A' for Active; 'I' for Inactive)
REMARK    1  A    between atoms: C2_3  and  S1_4 
REMARK    2  A    between atoms: S1_4  and  C3_5 
REMARK    3  A    between atoms: C5_7  and  N2_8 
REMARK    4  A    between atoms: N2_8  and  C6_10 
REMARK    5  A    between atoms: C6_10  and  C7_11 
REMARK    6  A    between atoms: C7_11  and  O1_12 
ROOT
HETATM    1  N1  UNL     1      -4.965   2.739  -2.526  1.00  0.00    -0.197 NA
HETATM    2  C1  UNL     1      -4.148   2.003  -2.178  1.00  0.00     0.069 C 
HETATM    3  C2  UNL     1      -3.116   1.073  -1.759  1.00  0.00     0.203 C 
ENDROOT
BRANCH   3   4
HETATM    4  S1  UNL     1      -2.411   1.662  -0.178  1.00  0.00    -0.113 SA
BRANCH   4   5
HETATM    5  C3  UNL     1      -1.157   0.502   0.300  1.00  0.00     0.034 A 
HETATM    6  C4  UNL     1       0.164   0.623  -0.076  1.00  0.00     0.069 A 
HETATM    7  C5  UNL     1       1.150  -0.270   0.288  1.00  0.00     0.102 A 
HETATM    8  N3  UNL     1       0.768  -1.307   1.055  1.00  0.00    -0.341 N 
HETATM    9  C8  UNL     1      -0.500  -1.485   1.457  1.00  0.00     0.063 A 
ATOM     10  H3  UNL     1       1.472  -1.987   1.343  1.00  0.00     0.167 HD
HETATM   11  C9  UNL     1      -1.087  -2.468   2.234  1.00  0.00     0.049 A 
HETATM   12  C11 UNL     1      -1.485  -0.590   1.091  1.00  0.00     0.076 A 
HETATM   13  C10 UNL     1      -2.429  -2.166   2.338  1.00  0.00     0.090 A 
HETATM   14  N4  UNL     1      -2.632  -1.035   1.642  1.00  0.00    -0.363 N 
ATOM     15  H4  UNL     1      -3.536  -0.573   1.543  1.00  0.00     0.165 HD
BRANCH   7  16
HETATM   16  N2  UNL     1       2.387  -0.128  -0.083  1.00  0.00    -0.374 N 
ATOM     17  H2  UNL     1       3.066  -0.825   0.222  1.00  0.00     0.161 HD
BRANCH  16  18
HETATM   18  C6  UNL     1       2.845   0.954  -0.897  1.00  0.00     0.147 C 
BRANCH  18  19
HETATM   19  C7  UNL     1       4.356   1.068  -0.684  1.00  0.00     0.183 C 
BRANCH  19  20
HETATM   20  O1  UNL     1       4.933  -0.151  -1.076  1.00  0.00    -0.399 OA
ATOM     21  H1  UNL     1       5.871  -0.080  -0.944  1.00  0.00     0.209 HD
ENDBRANCH  19  20
ENDBRANCH  18  19
ENDBRANCH  16  18
ENDBRANCH   7  16
ENDBRANCH   4   5
ENDBRANCH   3   4
TORSDOF 6
