REMARK  6 active torsions:
REMARK  status: ('A' for Active; 'I' for Inactive)
REMARK    1  A    between atoms: N1_1  and  C1_4 
REMARK    2  A    between atoms: C3_11  and  C4_12 
REMARK    3  A    between atoms: C7_15  and  O1_16 
REMARK    4  A    between atoms: O1_16  and  C8_17 
REMARK    5  A    between atoms: C8_17  and  C9_18 
REMARK    6  A    between atoms: C9_18  and  N4_19 
ROOT
HETATM    1  C4  UNL     1      -1.668  -0.085  -0.016  1.00  0.00    -0.005 A 
HETATM    2  C5  UNL     1      -0.719   0.931  -0.068  1.00  0.00     0.016 A 
HETATM    3  C6  UNL     1       0.635   0.674  -0.070  1.00  0.00     0.037 A 
HETATM    4  C7  UNL     1       1.116  -0.609  -0.021  1.00  0.00     0.068 A 
HETATM    5  C10 UNL     1       0.195  -1.622   0.030  1.00  0.00     0.037 A 
HETATM    6  C11 UNL     1      -1.184  -1.353   0.032  1.00  0.00     0.016 A 
ENDROOT
BRANCH   1   7
HETATM    7  C3  UNL     1      -3.090   0.285  -0.018  1.00  0.00     0.088 A 
HETATM    8  C1  UNL     1      -4.260  -0.552   0.028  1.00  0.00     0.129 A 
HETATM    9  N2  UNL     1      -5.434   0.322   0.003  1.00  0.00    -0.318 N 
HETATM   10  C2  UNL     1      -4.904   1.628  -0.057  1.00  0.00     0.178 A 
ATOM     11  H2  UNL     1      -6.416   0.048   0.024  1.00  0.00     0.170 HD
HETATM   12  S1  UNL     1      -5.790   3.032  -0.108  1.00  0.00    -0.040 SA
HETATM   13  N3  UNL     1      -3.520   1.519  -0.066  1.00  0.00    -0.329 N 
ATOM     14  H3  UNL     1      -2.897   2.326  -0.106  1.00  0.00     0.168 HD
BRANCH   8  15
HETATM   15  N1  UNL     1      -4.414  -1.783   0.082  1.00  0.00    -0.384 N 
ATOM     16  H12 UNL     1      -5.243  -2.376   0.115  1.00  0.00     0.157 HD
ATOM     17  H11 UNL     1      -3.596  -2.392   0.099  1.00  0.00     0.157 HD
ENDBRANCH   8  15
ENDBRANCH   1   7
BRANCH   4  18
HETATM   18  O1  UNL     1       2.488  -0.833  -0.025  1.00  0.00    -0.350 OA
BRANCH  18  19
HETATM   19  C8  UNL     1       3.419   0.210  -0.077  1.00  0.00     0.203 C 
BRANCH  19  20
HETATM   20  C9  UNL     1       4.820  -0.411  -0.065  1.00  0.00     0.256 C 
BRANCH  20  21
HETATM   21  N4  UNL     1       5.847   0.612  -0.117  1.00  0.00    -0.077 N 
ATOM     22  H43 UNL     1       5.718   1.232  -0.916  1.00  0.00     0.274 HD
ATOM     23  H42 UNL     1       5.733   1.296   0.631  1.00  0.00     0.274 HD
ATOM     24  H41 UNL     1       6.779   0.199  -0.109  1.00  0.00     0.274 HD
ENDBRANCH  20  21
ENDBRANCH  19  20
ENDBRANCH  18  19
ENDBRANCH   4  18
TORSDOF 6
