REMARK  13 active torsions:
REMARK  status: ('A' for Active; 'I' for Inactive)
REMARK    1  A    between atoms: C2_2  and  C3_3 
REMARK    2  A    between atoms: C3_3  and  O1_4 
REMARK    3  A    between atoms: O1_4  and  C4_5 
REMARK    4  A    between atoms: C6_7  and  N1_8 
REMARK       I    between atoms: N1_8  and  C7_10 
REMARK    5  A    between atoms: C7_10  and  C8_12 
REMARK    6  A    between atoms: C8_12  and  N2_14 
REMARK    7  A    between atoms: C8_12  and  C15_24 
REMARK    8  A    between atoms: N2_14  and  S1_16 
REMARK    9  A    between atoms: S1_16  and  C10_19 
REMARK   10  A    between atoms: C10_19  and  C12_21 
REMARK   11  A    between atoms: C18_29  and  C19_30 
REMARK       I    between atoms: C19_30  and  N4_32 
REMARK   12  A    between atoms: N4_32  and  S2_34 
REMARK   13  A    between atoms: S2_34  and  C20_37 
ROOT
HETATM    1  C4  UNL     1       1.410   2.935  -0.235  1.00  0.00     0.147 A 
HETATM    2  C5  UNL     1       0.163   2.380   0.066  1.00  0.00     0.104 A 
HETATM    3  C6  UNL     1      -0.029   1.026   0.243  1.00  0.00     0.113 A 
HETATM    4  N3  UNL     1       1.070   0.247   0.108  1.00  0.00    -0.324 N 
ATOM      5  H3  UNL     1       0.980  -0.762   0.229  1.00  0.00     0.169 HD
HETATM    6  C18 UNL     1       2.275   0.765  -0.181  1.00  0.00     0.179 A 
HETATM    7  N5  UNL     1       2.459   2.066  -0.351  1.00  0.00    -0.318 N 
ATOM      8  H5  UNL     1       3.390   2.422  -0.570  1.00  0.00     0.169 HD
ENDROOT
BRANCH   3   9
HETATM    9  N1  UNL     1      -1.159   0.509   0.533  1.00  0.00    -0.311 N 
HETATM   10  C7  UNL     1      -2.396   1.071   0.739  1.00  0.00     0.252 C 
HETATM   11  O2  UNL     1      -2.467   2.077   1.534  1.00  0.00    -0.270 OA
ATOM     12  H1  UNL     1      -1.141  -0.506   0.629  1.00  0.00     0.170 HD
BRANCH  10  13
HETATM   13  C8  UNL     1      -3.707   0.663   0.157  1.00  0.00     0.120 C 
HETATM   14  C9  UNL     1      -3.541  -0.594  -0.596  1.00  0.00     0.050 C 
BRANCH  13  15
HETATM   15  N2  UNL     1      -4.675   0.767   1.171  1.00  0.00    -0.300 N 
ATOM     16  H2  UNL     1      -5.457   1.409   1.041  1.00  0.00     0.173 HD
BRANCH  15  17
HETATM   17  S1  UNL     1      -4.590  -0.115   2.569  1.00  0.00     0.231 S 
HETATM   18  O3  UNL     1      -3.386   0.097   3.426  1.00  0.00    -0.206 OA
HETATM   19  O4  UNL     1      -5.787   0.224   3.447  1.00  0.00    -0.206 OA
BRANCH  17  20
HETATM   20  C10 UNL     1      -4.680  -1.852   2.222  1.00  0.00     0.128 C 
HETATM   21  C11 UNL     1      -6.035  -2.163   1.669  1.00  0.00     0.028 C 
BRANCH  20  22
HETATM   22  C12 UNL     1      -4.473  -2.678   3.490  1.00  0.00    -0.003 C 
HETATM   23  C13 UNL     1      -5.487  -2.411   4.550  1.00  0.00     0.011 C 
HETATM   24  C14 UNL     1      -3.086  -2.522   4.015  1.00  0.00     0.011 C 
ENDBRANCH  20  22
ENDBRANCH  17  20
ENDBRANCH  15  17
ENDBRANCH  13  15
BRANCH  13  25
HETATM   25  C15 UNL     1      -4.101   1.769  -0.845  1.00  0.00     0.015 C 
HETATM   26  C16 UNL     1      -3.154   1.963  -1.958  1.00  0.00     0.012 C 
HETATM   27  C17 UNL     1      -5.462   1.442  -1.436  1.00  0.00     0.012 C 
ENDBRANCH  13  25
ENDBRANCH  10  13
ENDBRANCH   3   9
BRANCH   1  28
HETATM   28  O1  UNL     1       1.683   4.233  -0.422  1.00  0.00    -0.336 OA
BRANCH  28  29
HETATM   29  C3  UNL     1       0.990   5.399  -0.392  1.00  0.00     0.177 C 
BRANCH  29  30
HETATM   30  C2  UNL     1       0.394   5.723   0.957  1.00  0.00     0.022 C 
HETATM   31  C1  UNL     1      -0.345   7.075   0.858  1.00  0.00     0.007 C 
ENDBRANCH  29  30
ENDBRANCH  28  29
ENDBRANCH   1  28
BRANCH   6  32
HETATM   32  C19 UNL     1       3.434  -0.157  -0.301  1.00  0.00     0.299 C 
HETATM   33  O5  UNL     1       4.540   0.321  -0.535  1.00  0.00    -0.263 OA
HETATM   34  N4  UNL     1       3.211  -1.525  -0.144  1.00  0.00    -0.247 N 
ATOM     35  H4  UNL     1       2.260  -1.841   0.045  1.00  0.00     0.182 HD
BRANCH  34  36
HETATM   36  S2  UNL     1       4.452  -2.701  -0.252  1.00  0.00     0.238 S 
HETATM   37  O6  UNL     1       3.822  -3.954  -0.779  1.00  0.00    -0.205 OA
HETATM   38  O7  UNL     1       4.901  -3.042   1.167  1.00  0.00    -0.205 OA
BRANCH  36  39
HETATM   39  C20 UNL     1       5.788  -2.131  -1.207  1.00  0.00     0.146 A 
HETATM   40  C21 UNL     1       5.679  -2.208  -2.714  1.00  0.00    -0.020 A 
HETATM   41  C22 UNL     1       6.181  -0.989  -3.489  1.00  0.00     0.017 C 
HETATM   42  C23 UNL     1       4.433  -2.818  -3.306  1.00  0.00     0.017 C 
HETATM   43  C24 UNL     1       6.663  -3.031  -1.992  1.00  0.00    -0.020 A 
HETATM   44  C25 UNL     1       8.116  -2.548  -2.135  1.00  0.00     0.017 C 
HETATM   45  C26 UNL     1       6.582  -4.518  -1.861  1.00  0.00     0.017 C 
ENDBRANCH  36  39
ENDBRANCH  34  36
ENDBRANCH   6  32
TORSDOF 13
