REMARK  16 active torsions:
REMARK  status: ('A' for Active; 'I' for Inactive)
REMARK    1  A    between atoms: C2_2  and  C3_4 
REMARK    2  A    between atoms: C3_4  and  C4_5 
REMARK       I    between atoms: N1_8  and  C7_9 
REMARK    3  A    between atoms: C7_9  and  C8_11 
REMARK    4  A    between atoms: C8_11  and  C9_12 
REMARK    5  A    between atoms: C9_12  and  C10_13 
REMARK    6  A    between atoms: C10_13  and  N2_14 
REMARK    7  A    between atoms: C10_13  and  C16_26 
REMARK    8  A    between atoms: N2_14  and  C11_16 
REMARK    9  A    between atoms: C11_16  and  C12_18 
REMARK   10  A    between atoms: C12_18  and  N3_19 
REMARK   11  A    between atoms: C12_18  and  C13_23 
REMARK   12  A    between atoms: C16_26  and  C19_29 
REMARK   13  A    between atoms: C19_29  and  O3_30 
REMARK   14  A    between atoms: C19_29  and  N4_32 
REMARK   15  A    between atoms: C24_38  and  C25_39 
REMARK       I    between atoms: C25_39  and  N5_41 
REMARK   16  A    between atoms: N5_41  and  C26_43 
ROOT
HETATM    1  C26 UNL     1      -8.099  -1.367  -1.301  1.00  0.00     0.247 C 
HETATM    2  C27 UNL     1      -9.363  -1.372  -0.566  1.00  0.00     0.078 C 
HETATM    3  N6  UNL     1     -10.365  -1.385   0.012  1.00  0.00    -0.196 NA
ENDROOT
BRANCH   1   4
HETATM    4  N5  UNL     1      -7.000  -1.681  -0.427  1.00  0.00    -0.347 N 
HETATM    5  C25 UNL     1      -5.686  -1.732  -0.913  1.00  0.00     0.242 C 
HETATM    6  O4  UNL     1      -5.515  -1.486  -2.158  1.00  0.00    -0.271 OA
ATOM      7  H5  UNL     1      -7.179  -1.869   0.559  1.00  0.00     0.163 HD
BRANCH   5   8
HETATM    8  C24 UNL     1      -4.467  -2.047  -0.106  1.00  0.00     0.196 C 
HETATM    9  N4  UNL     1      -3.270  -1.741  -0.804  1.00  0.00    -0.341 N 
HETATM   10  C20 UNL     1      -3.084  -2.665  -1.952  1.00  0.00     0.200 C 
HETATM   11  S2  UNL     1      -4.115  -4.105  -1.524  1.00  0.00    -0.137 SA
HETATM   12  C21 UNL     1      -4.452  -3.529   0.200  1.00  0.00     0.032 C 
HETATM   13  C22 UNL     1      -5.718  -4.048   0.741  1.00  0.00     0.029 C 
HETATM   14  C23 UNL     1      -3.301  -3.993   1.018  1.00  0.00     0.029 C 
BRANCH   9  15
HETATM   15  C19 UNL     1      -2.342  -0.741  -0.545  1.00  0.00     0.125 C 
BRANCH  15  16
HETATM   16  C16 UNL     1      -2.257   0.301   0.481  1.00  0.00     0.041 C 
HETATM   17  C17 UNL     1      -3.224   1.386   0.051  1.00  0.00     0.026 C 
HETATM   18  C18 UNL     1      -2.634  -0.117   1.872  1.00  0.00     0.026 C 
BRANCH  16  19
HETATM   19  C10 UNL     1      -0.808   0.860   0.631  1.00  0.00     0.121 C 
BRANCH  19  20
HETATM   20  C9  UNL     1       0.066  -0.222   1.077  1.00  0.00     0.005 C 
BRANCH  20  21
HETATM   21  C8  UNL     1       1.415  -0.046   1.616  1.00  0.00     0.072 C 
BRANCH  21  22
HETATM   22  C7  UNL     1       2.508   0.536   0.885  1.00  0.00     0.243 C 
HETATM   23  N1  UNL     1       3.730  -0.144   0.571  1.00  0.00    -0.349 N 
HETATM   24  C6  UNL     1       4.038  -1.509   0.901  1.00  0.00     0.126 C 
HETATM   25  C28 UNL     1       4.799   0.546  -0.137  1.00  0.00     0.126 C 
HETATM   26  C5  UNL     1       5.268  -1.622   1.759  1.00  0.00     0.025 C 
HETATM   27  C4  UNL     1       6.190  -0.476   1.727  1.00  0.00    -0.005 C 
HETATM   28  C29 UNL     1       6.075   0.489   0.610  1.00  0.00     0.025 C 
HETATM   29  O2  UNL     1       2.440   1.716   0.481  1.00  0.00    -0.268 OA
BRANCH  27  30
HETATM   30  C3  UNL     1       7.618  -1.014   1.697  1.00  0.00     0.082 C 
BRANCH  30  31
HETATM   31  C2  UNL     1       7.903  -1.851   0.525  1.00  0.00     0.123 C 
HETATM   32  C1  UNL     1       9.261  -2.498   0.380  1.00  0.00     0.091 C 
HETATM   33  O1  UNL     1       7.140  -2.101  -0.392  1.00  0.00    -0.298 OA
ENDBRANCH  30  31
ENDBRANCH  27  30
ENDBRANCH  21  22
ENDBRANCH  20  21
ENDBRANCH  19  20
BRANCH  19  34
HETATM   34  N2  UNL     1      -0.389   1.627  -0.476  1.00  0.00    -0.374 N 
ATOM     35  H2  UNL     1       0.089   1.123  -1.223  1.00  0.00     0.161 HD
BRANCH  34  36
HETATM   36  C11 UNL     1      -0.561   3.039  -0.668  1.00  0.00     0.105 C 
HETATM   37  S1  UNL     1      -1.160   4.020   0.518  1.00  0.00    -0.063 SA
BRANCH  36  38
HETATM   38  C12 UNL     1      -0.146   3.694  -1.924  1.00  0.00     0.247 C 
BRANCH  38  39
HETATM   39  N3  UNL     1       1.192   3.274  -2.266  1.00  0.00    -0.069 N 
ATOM     40  H33 UNL     1       1.854   3.440  -1.508  1.00  0.00     0.275 HD
ATOM     41  H32 UNL     1       1.277   2.259  -2.314  1.00  0.00     0.275 HD
ATOM     42  H31 UNL     1       1.479   3.727  -3.134  1.00  0.00     0.275 HD
ENDBRANCH  38  39
BRANCH  38  43
HETATM   43  C13 UNL     1      -0.221   5.196  -1.748  1.00  0.00     0.015 C 
HETATM   44  C14 UNL     1       0.658   5.734  -0.672  1.00  0.00     0.012 C 
HETATM   45  C15 UNL     1       0.086   5.887  -3.043  1.00  0.00     0.012 C 
ENDBRANCH  38  43
ENDBRANCH  36  38
ENDBRANCH  34  36
ENDBRANCH  19  34
ENDBRANCH  16  19
ENDBRANCH  15  16
BRANCH  15  46
HETATM   46  O3  UNL     1      -1.355  -0.734  -1.395  1.00  0.00    -0.349 OA
ATOM     47  H3  UNL     1      -1.410  -1.410  -2.060  1.00  0.00     0.219 HD
ENDBRANCH  15  46
ENDBRANCH   9  15
ENDBRANCH   5   8
ENDBRANCH   1   4
TORSDOF 16
