REMARK  14 active torsions:
REMARK  status: ('A' for Active; 'I' for Inactive)
REMARK    1  A    between atoms: C2_2  and  C3_3 
REMARK    2  A    between atoms: C3_3  and  C4_4 
REMARK    3  A    between atoms: C4_4  and  C5_5 
REMARK    4  A    between atoms: C5_5  and  C6_6 
REMARK    5  A    between atoms: C6_6  and  C7_7 
REMARK    6  A    between atoms: C8_8  and  O1_9 
REMARK    7  A    between atoms: C14_21  and  C15_22 
REMARK    8  A    between atoms: C15_22  and  C16_23 
REMARK    9  A    between atoms: C16_23  and  C17_24 
REMARK   10  A    between atoms: C17_24  and  N4_25 
REMARK   11  A    between atoms: C18_27  and  O2_28 
REMARK   12  A    between atoms: C20_34  and  C21_35 
REMARK   13  A    between atoms: C21_35  and  C22_36 
REMARK   14  A    between atoms: C26_42  and  C27_43 
ROOT
HETATM    1  C7  UNL     1      -3.155  -0.206  -0.160  1.00  0.00     0.064 C 
HETATM    2  C8  UNL     1      -2.608   0.905  -0.930  1.00  0.00     0.159 C 
HETATM    3  N1  UNL     1      -2.291   2.210  -0.558  1.00  0.00    -0.364 N 
ATOM      4  H1  UNL     1      -2.771   2.936  -1.090  1.00  0.00     0.162 HD
HETATM    5  C9  UNL     1      -1.394   2.697   0.457  1.00  0.00     0.097 C 
HETATM    6  C10 UNL     1      -1.189   4.215   0.281  1.00  0.00     0.034 C 
HETATM    7  C11 UNL     1      -0.027   2.100   0.412  1.00  0.00     0.147 C 
HETATM    8  N2  UNL     1       0.641   2.090   1.697  1.00  0.00    -0.380 N 
HETATM    9  C12 UNL     1       0.369   3.252   2.557  1.00  0.00     0.150 C 
HETATM   10  C13 UNL     1       1.503   1.073   2.158  1.00  0.00     0.174 C 
HETATM   11  N3  UNL     1       2.448   0.481   1.589  1.00  0.00    -0.373 N 
ATOM     12  H3  UNL     1       2.899  -0.220   2.177  1.00  0.00     0.161 HD
HETATM   13  C14 UNL     1       3.018   0.583   0.301  1.00  0.00     0.174 C 
HETATM   14  C19 UNL     1       4.074  -0.469   0.139  1.00  0.00     0.241 C 
HETATM   15  O3  UNL     1       5.235  -0.157   0.537  1.00  0.00    -0.271 OA
HETATM   16  N5  UNL     1       3.862  -1.749  -0.414  1.00  0.00    -0.345 N 
ATOM     17  H5  UNL     1       4.512  -2.042  -1.143  1.00  0.00     0.163 HD
HETATM   18  C20 UNL     1       2.829  -2.688  -0.063  1.00  0.00     0.184 C 
HETATM   19  C25 UNL     1       1.700  -2.616  -1.081  1.00  0.00     0.282 C 
HETATM   20  O4  UNL     1       2.056  -3.061  -2.202  1.00  0.00    -0.263 OA
HETATM   21  O5  UNL     1       0.536  -2.139  -0.761  1.00  0.00    -0.304 OA
HETATM   22  C26 UNL     1      -0.783  -2.347  -0.560  1.00  0.00     0.227 C 
HETATM   23  C30 UNL     1      -1.208  -1.647   0.670  1.00  0.00     0.254 C 
HETATM   24  O6  UNL     1      -0.481  -1.929   1.687  1.00  0.00    -0.270 OA
HETATM   25  N6  UNL     1      -2.261  -0.752   0.861  1.00  0.00    -0.320 N 
HETATM   26  C31 UNL     1      -2.532  -0.313   2.241  1.00  0.00     0.159 C 
ENDROOT
BRANCH  13  27
HETATM   27  C15 UNL     1       3.647   1.956   0.138  1.00  0.00     0.036 C 
BRANCH  27  28
HETATM   28  C16 UNL     1       4.270   2.147  -1.220  1.00  0.00     0.022 C 
BRANCH  28  29
HETATM   29  C17 UNL     1       4.871   3.551  -1.286  1.00  0.00     0.121 C 
BRANCH  29  30
HETATM   30  N4  UNL     1       5.485   3.784  -2.580  1.00  0.00    -0.381 N 
HETATM   31  C18 UNL     1       6.522   4.548  -2.691  1.00  0.00     0.218 C 
ATOM     32  H4  UNL     1       5.094   3.340  -3.411  1.00  0.00     0.160 HD
BRANCH  31  33
HETATM   33  O2  UNL     1       7.106   5.183  -1.607  1.00  0.00    -0.357 OA
ATOM     34  H2  UNL     1       7.868   5.744  -1.689  1.00  0.00     0.218 HD
ENDBRANCH  31  33
ENDBRANCH  29  30
ENDBRANCH  28  29
ENDBRANCH  27  28
ENDBRANCH  13  27
BRANCH  18  35
HETATM   35  C21 UNL     1       3.248  -4.131  -0.077  1.00  0.00     0.039 C 
BRANCH  35  36
HETATM   36  C22 UNL     1       4.340  -4.526   0.842  1.00  0.00    -0.020 C 
HETATM   37  C23 UNL     1       4.528  -6.051   0.634  1.00  0.00     0.009 C 
HETATM   38  C24 UNL     1       5.670  -3.935   0.358  1.00  0.00     0.009 C 
ENDBRANCH  35  36
ENDBRANCH  18  35
BRANCH  22  39
HETATM   39  C27 UNL     1      -1.317  -3.756  -0.614  1.00  0.00     0.016 C 
HETATM   40  C28 UNL     1      -0.761  -4.710   0.368  1.00  0.00     0.012 C 
HETATM   41  C29 UNL     1      -1.255  -4.247  -2.044  1.00  0.00     0.012 C 
ENDBRANCH  22  39
BRANCH   2  42
HETATM   42  O1  UNL     1      -2.357   0.677  -2.196  1.00  0.00    -0.345 OA
ATOM     43  H1  UNL     1      -2.001   1.401  -2.698  1.00  0.00     0.219 HD
ENDBRANCH   2  42
BRANCH   1  44
HETATM   44  C6  UNL     1      -4.550  -0.105   0.357  1.00  0.00     0.062 C 
BRANCH  44  45
HETATM   45  C5  UNL     1      -5.673   0.049  -0.573  1.00  0.00     0.006 C 
BRANCH  45  46
HETATM   46  C4  UNL     1      -5.814   1.285  -1.379  1.00  0.00     0.000 C 
BRANCH  46  47
HETATM   47  C3  UNL     1      -6.021   2.519  -0.485  1.00  0.00    -0.000 C 
BRANCH  47  48
HETATM   48  C2  UNL     1      -7.312   2.302   0.322  1.00  0.00    -0.005 C 
HETATM   49  C1  UNL     1      -7.489   3.540   1.191  1.00  0.00     0.005 C 
ENDBRANCH  47  48
ENDBRANCH  46  47
ENDBRANCH  45  46
ENDBRANCH  44  45
ENDBRANCH   1  44
TORSDOF 14
