REMARK  2 active torsions:
REMARK  status: ('A' for Active; 'I' for Inactive)
REMARK    1  A    between atoms: N1_19  and  O4_21 
REMARK    2  A    between atoms: C20_27  and  O5_28 
ROOT
HETATM    1  C1  UNL     1      -3.331  -1.122  -2.107  1.00  0.00     0.050 C 
HETATM    2  C2  UNL     1      -3.062  -0.371  -0.787  1.00  0.00     0.097 C 
HETATM    3  C3  UNL     1      -4.352  -0.408  -0.052  1.00  0.00     0.041 C 
HETATM    4  C4  UNL     1      -4.158  -1.391   1.042  1.00  0.00     0.004 C 
HETATM    5  C5  UNL     1      -2.717  -1.750   1.120  1.00  0.00     0.008 C 
HETATM    6  C6  UNL     1      -1.976  -1.010   0.015  1.00  0.00     0.028 C 
HETATM    7  C7  UNL     1      -0.964  -0.160   0.661  1.00  0.00     0.006 C 
HETATM    8  C8  UNL     1      -1.581   1.160   1.162  1.00  0.00     0.016 C 
HETATM    9  C9  UNL     1      -1.015   2.176   0.329  1.00  0.00     0.050 C 
HETATM   10  C10 UNL     1      -1.727   3.199  -0.413  1.00  0.00     0.175 C 
HETATM   11  O1  UNL     1      -1.134   3.228  -1.702  1.00  0.00    -0.388 OA
HETATM   12  C11 UNL     1       0.082   2.485  -1.582  1.00  0.00     0.210 C 
HETATM   13  C12 UNL     1      -0.398   1.373  -0.832  1.00  0.00     0.132 C 
HETATM   14  O2  UNL     1      -1.432   0.813  -1.631  1.00  0.00    -0.225 OA
HETATM   15  O3  UNL     1      -2.606   0.877  -1.154  1.00  0.00    -0.229 OA
HETATM   16  C13 UNL     1       0.240   0.272  -0.183  1.00  0.00     0.014 C 
HETATM   17  C14 UNL     1       0.565  -0.739  -1.280  1.00  0.00     0.069 C 
HETATM   18  C15 UNL     1       1.283  -1.788  -0.607  1.00  0.00     0.019 C 
HETATM   19  N1  UNL     1       1.209  -3.043  -0.764  1.00  0.00    -0.277 N 
ATOM     20  H1  UNL     1       1.811  -3.623  -0.179  1.00  0.00     0.193 HD
HETATM   21  C16 UNL     1       2.166  -1.071   0.337  1.00  0.00     0.005 C 
HETATM   22  C17 UNL     1       2.277  -1.879   1.571  1.00  0.00     0.022 C 
HETATM   23  C18 UNL     1       3.504  -0.990  -0.362  1.00  0.00     0.018 C 
HETATM   24  C19 UNL     1       4.417  -0.188   0.498  1.00  0.00     0.033 C 
HETATM   25  C20 UNL     1       3.892   1.196   0.515  1.00  0.00     0.119 C 
HETATM   26  C21 UNL     1       2.483   1.359   0.016  1.00  0.00     0.042 C 
HETATM   27  C22 UNL     1       1.519   0.304   0.533  1.00  0.00    -0.018 C 
HETATM   28  C23 UNL     1       1.505   0.503   2.020  1.00  0.00     0.017 C 
ENDROOT
BRANCH  19  29
HETATM   29  O4  UNL     1       0.387  -3.689  -1.655  1.00  0.00    -0.290 OA
ATOM     30  H4  UNL     1       0.332  -4.630  -1.773  1.00  0.00     0.244 HD
ENDBRANCH  19  29
BRANCH  25  31
HETATM   31  O5  UNL     1       4.700   1.956  -0.368  1.00  0.00    -0.396 OA
ATOM     32  H5  UNL     1       4.363   2.844  -0.357  1.00  0.00     0.210 HD
ENDBRANCH  25  31
TORSDOF 2
