REMARK  1 active torsions:
REMARK  status: ('A' for Active; 'I' for Inactive)
REMARK    1  A    between atoms: C15_19  and  O5_20 
ROOT
HETATM    1  C1  UNL     1       5.530   2.298  -0.430  1.00  0.00     0.012 C 
HETATM    2  C2  UNL     1       5.142   1.005  -1.120  1.00  0.00     0.006 C 
HETATM    3  C3  UNL     1       3.704   1.025  -1.412  1.00  0.00     0.178 C 
HETATM    4  O1  UNL     1       3.033  -0.165  -1.275  1.00  0.00    -0.332 OA
HETATM    5  C4  UNL     1       2.413  -0.154  -0.005  1.00  0.00     0.283 C 
HETATM    6  C5  UNL     1       3.535  -0.030   0.989  1.00  0.00     0.106 C 
HETATM    7  C6  UNL     1       4.763  -0.796   0.615  1.00  0.00    -0.011 C 
HETATM    8  C7  UNL     1       4.417  -2.228   0.179  1.00  0.00     0.010 C 
HETATM    9  C8  UNL     1       5.668  -0.146  -0.344  1.00  0.00     0.011 C 
HETATM   10  O2  UNL     1       1.530   0.921   0.105  1.00  0.00    -0.321 OA
HETATM   11  C9  UNL     1       0.256   0.396  -0.126  1.00  0.00     0.197 C 
HETATM   12  C10 UNL     1      -0.765   1.262   0.516  1.00  0.00     0.230 C 
HETATM   13  O3  UNL     1      -1.149   2.295  -0.363  1.00  0.00    -0.229 OA
HETATM   14  O4  UNL     1      -2.410   1.966  -0.327  1.00  0.00    -0.225 OA
HETATM   15  C11 UNL     1      -2.157   0.802   0.432  1.00  0.00     0.135 C 
HETATM   16  C12 UNL     1      -2.982   0.838   1.679  1.00  0.00     0.025 C 
HETATM   17  C13 UNL     1      -3.261   2.291   2.081  1.00  0.00     0.013 C 
HETATM   18  C14 UNL     1      -4.300   0.161   1.515  1.00  0.00     0.039 C 
HETATM   19  C15 UNL     1      -4.793   0.180   0.109  1.00  0.00     0.127 C 
HETATM   20  C16 UNL     1      -3.852  -0.417  -0.880  1.00  0.00    -0.015 C 
HETATM   21  C17 UNL     1      -3.955   0.420  -2.162  1.00  0.00     0.018 C 
HETATM   22  C18 UNL     1      -4.316  -1.805  -1.248  1.00  0.00     0.018 C 
HETATM   23  C19 UNL     1      -2.404  -0.404  -0.410  1.00  0.00     0.037 C 
HETATM   24  C20 UNL     1      -1.990  -1.684   0.238  1.00  0.00     0.011 C 
HETATM   25  C21 UNL     1      -0.544  -1.975  -0.058  1.00  0.00     0.041 C 
HETATM   26  C22 UNL     1       0.392  -0.968   0.511  1.00  0.00     0.092 C 
HETATM   27  C23 UNL     1       0.394  -0.879   1.994  1.00  0.00     0.049 C 
HETATM   28  O6  UNL     1       1.691  -1.316   0.103  1.00  0.00    -0.319 OA
ENDROOT
BRANCH  19  29
HETATM   29  O5  UNL     1      -6.015  -0.495   0.061  1.00  0.00    -0.395 OA
ATOM     30  H5  UNL     1      -6.329  -0.483  -0.835  1.00  0.00     0.210 HD
ENDBRANCH  19  29
TORSDOF 1
