REMARK  4 active torsions:
REMARK  status: ('A' for Active; 'I' for Inactive)
REMARK    1  A    between atoms: C7_7  and  N1_8 
REMARK       I    between atoms: N1_8  and  C8_10 
REMARK    2  A    between atoms: C8_10  and  C9_12 
REMARK    3  A    between atoms: C10_13  and  C11_14 
REMARK    4  A    between atoms: C14_17  and  N2_18 
ROOT
HETATM    1  N1  UNL     1      -0.230   0.379  -1.228  1.00  0.00    -0.353 N 
ATOM      2  H1  UNL     1      -0.161   0.514  -2.237  1.00  0.00     0.163 HD
HETATM    3  C8  UNL     1       0.878  -0.211  -0.535  1.00  0.00     0.241 C 
HETATM    4  O1  UNL     1       0.744  -0.350   0.673  1.00  0.00    -0.269 OA
ENDROOT
BRANCH   3   5
HETATM    5  C9  UNL     1       2.040  -0.591  -1.278  1.00  0.00     0.075 C 
HETATM    6  C10 UNL     1       3.163  -1.123  -0.985  1.00  0.00     0.024 C 
BRANCH   6   7
HETATM    7  C11 UNL     1       3.689  -1.559   0.300  1.00  0.00     0.007 A 
HETATM    8  C12 UNL     1       4.937  -2.133   0.529  1.00  0.00     0.022 A 
HETATM    9  C13 UNL     1       5.241  -2.467   1.777  1.00  0.00     0.045 A 
HETATM   10  C14 UNL     1       4.322  -2.231   2.758  1.00  0.00     0.144 A 
HETATM   11  S1  UNL     1       3.044  -1.538   1.888  1.00  0.00    -0.067 SA
BRANCH  10  12
HETATM   12  N2  UNL     1       4.427  -2.503   4.156  1.00  0.00    -0.108 N 
HETATM   13  O2  UNL     1       5.448  -3.019   4.624  1.00  0.00    -0.531 OA
HETATM   14  O3  UNL     1       3.393  -2.192   4.991  1.00  0.00    -0.531 OA
ENDBRANCH  10  12
ENDBRANCH   6   7
ENDBRANCH   3   5
BRANCH   1  15
HETATM   15  C7  UNL     1      -1.442   0.791  -0.553  1.00  0.00     0.088 C 
HETATM   16  C2  UNL     1      -2.663   0.073  -1.018  1.00  0.00     0.004 C 
HETATM   17  C1  UNL     1      -3.181   0.523  -2.347  1.00  0.00     0.012 C 
HETATM   18  C3  UNL     1      -3.755   0.384   0.014  1.00  0.00     0.006 C 
HETATM   19  C4  UNL     1      -4.025   1.855   0.024  1.00  0.00     0.001 C 
HETATM   20  C5  UNL     1      -2.799   2.700   0.204  1.00  0.00     0.002 C 
HETATM   21  C6  UNL     1      -1.638   2.293  -0.631  1.00  0.00     0.025 C 
ENDBRANCH   1  15
TORSDOF 4
