REMARK  7 active torsions:
REMARK  status: ('A' for Active; 'I' for Inactive)
REMARK       I    between atoms: C1_2  and  N1_3 
REMARK    1  A    between atoms: C1_2  and  C15_22 
REMARK    2  A    between atoms: N1_3  and  C2_5 
REMARK    3  A    between atoms: C5_8  and  C6_9 
REMARK    4  A    between atoms: C20_27  and  N4_28 
REMARK    5  A    between atoms: N4_28  and  C21_30 
REMARK    6  A    between atoms: C21_30  and  C22_31 
REMARK    7  A    between atoms: C22_31  and  C23_32 
ROOT
HETATM    1  O1  UNL     1      -0.431   0.231  -0.397  1.00  0.00    -0.267 OA
HETATM    2  C1  UNL     1      -0.433  -0.711  -1.196  1.00  0.00     0.258 C 
HETATM    3  N1  UNL     1       0.803  -1.346  -1.473  1.00  0.00    -0.323 N 
ATOM      4  H1  UNL     1       0.816  -2.117  -2.141  1.00  0.00     0.169 HD
ENDROOT
BRANCH   3   5
HETATM    5  C2  UNL     1       2.036  -0.953  -0.857  1.00  0.00     0.035 A 
HETATM    6  C3  UNL     1       3.231  -1.085  -1.578  1.00  0.00     0.030 A 
HETATM    7  C4  UNL     1       4.413  -0.754  -0.985  1.00  0.00     0.017 A 
HETATM    8  C5  UNL     1       4.484  -0.286   0.315  1.00  0.00     0.008 A 
HETATM    9  C13 UNL     1       3.298  -0.170   0.986  1.00  0.00     0.017 A 
HETATM   10  C14 UNL     1       2.051  -0.497   0.429  1.00  0.00     0.030 A 
BRANCH   8  11
HETATM   11  C6  UNL     1       5.774   0.052   0.906  1.00  0.00     0.116 A 
HETATM   12  N2  UNL     1       6.959  -0.062   0.287  1.00  0.00    -0.340 N 
HETATM   13  C7  UNL     1       7.966   0.324   1.100  1.00  0.00     0.060 A 
ATOM     14  H2  UNL     1       7.083  -0.395  -0.669  1.00  0.00     0.167 HD
HETATM   15  C8  UNL     1       9.334   0.399   0.957  1.00  0.00     0.032 A 
HETATM   16  C12 UNL     1       7.366   0.700   2.292  1.00  0.00     0.060 A 
HETATM   17  C9  UNL     1      10.109   0.848   2.001  1.00  0.00     0.002 A 
HETATM   18  C10 UNL     1       9.543   1.230   3.203  1.00  0.00     0.002 A 
HETATM   19  C11 UNL     1       8.175   1.145   3.318  1.00  0.00     0.032 A 
HETATM   20  N3  UNL     1       6.037   0.515   2.120  1.00  0.00    -0.340 N 
ATOM     21  H3  UNL     1       5.331   0.706   2.831  1.00  0.00     0.167 HD
ENDBRANCH   8  11
ENDBRANCH   3   5
BRANCH   2  22
HETATM   22  C15 UNL     1      -1.648  -1.173  -1.845  1.00  0.00     0.058 A 
HETATM   23  C16 UNL     1      -1.561  -2.317  -2.672  1.00  0.00     0.019 A 
HETATM   24  C17 UNL     1      -2.671  -2.824  -3.267  1.00  0.00     0.001 A 
HETATM   25  C18 UNL     1      -3.900  -2.238  -3.079  1.00  0.00     0.002 A 
HETATM   26  C19 UNL     1      -3.982  -1.127  -2.278  1.00  0.00     0.030 A 
HETATM   27  C20 UNL     1      -2.849  -0.564  -1.638  1.00  0.00     0.043 A 
BRANCH  27  28
HETATM   28  N4  UNL     1      -3.026   0.612  -0.889  1.00  0.00    -0.389 N 
ATOM     29  H4  UNL     1      -2.204   1.146  -0.608  1.00  0.00     0.159 HD
BRANCH  28  30
HETATM   30  C21 UNL     1      -4.347   1.094  -0.500  1.00  0.00     0.124 C 
BRANCH  30  31
HETATM   31  C22 UNL     1      -5.026   0.215   0.507  1.00  0.00     0.058 C 
BRANCH  31  32
HETATM   32  C23 UNL     1      -6.369   0.733   0.870  1.00  0.00    -0.057 A 
HETATM   33  C24 UNL     1      -6.481   1.631   1.932  1.00  0.00     0.007 A 
HETATM   34  C25 UNL     1      -7.694   2.148   2.330  1.00  0.00     0.001 A 
HETATM   35  C26 UNL     1      -8.823   1.762   1.656  1.00  0.00     0.000 A 
HETATM   36  C27 UNL     1      -8.752   0.875   0.601  1.00  0.00     0.001 A 
HETATM   37  C28 UNL     1      -7.522   0.366   0.216  1.00  0.00     0.007 A 
ENDBRANCH  31  32
ENDBRANCH  30  31
ENDBRANCH  28  30
ENDBRANCH  27  28
ENDBRANCH   2  22
TORSDOF 7
