REMARK  8 active torsions:
REMARK  status: ('A' for Active; 'I' for Inactive)
REMARK    1  A    between atoms: C1_4  and  C2_5 
REMARK    2  A    between atoms: C1_4  and  N2_20 
REMARK    3  A    between atoms: C3_6  and  C4_7 
REMARK    4  A    between atoms: C7_10  and  C8_11 
REMARK    5  A    between atoms: C9_12  and  C10_13 
REMARK    6  A    between atoms: N2_20  and  C16_22 
REMARK    7  A    between atoms: C19_25  and  C20_26 
REMARK       I    between atoms: C20_26  and  N3_28 
REMARK    8  A    between atoms: N3_28  and  C21_30 
ROOT
HETATM    1  N1  UNL     1       0.150  -1.265  -3.336  1.00  0.00    -0.385 N 
ATOM      2  H11 UNL     1       1.039  -1.481  -3.787  1.00  0.00     0.157 HD
ATOM      3  H12 UNL     1      -0.638  -0.899  -3.869  1.00  0.00     0.157 HD
HETATM    4  C1  UNL     1      -0.016  -1.445  -2.070  1.00  0.00     0.099 C 
ENDROOT
BRANCH   4   5
HETATM    5  C2  UNL     1      -1.285  -1.136  -1.426  1.00  0.00     0.051 C 
HETATM    6  C3  UNL     1      -2.276  -0.662  -2.143  1.00  0.00     0.041 C 
BRANCH   6   7
HETATM    7  C4  UNL     1      -3.575  -0.342  -1.506  1.00  0.00     0.076 A 
HETATM    8  C5  UNL     1      -4.683   0.154  -2.134  1.00  0.00     0.040 A 
HETATM    9  C6  UNL     1      -5.638   0.292  -1.151  1.00  0.00     0.040 A 
HETATM   10  C7  UNL     1      -5.114  -0.114   0.035  1.00  0.00     0.076 A 
HETATM   11  O1  UNL     1      -3.853  -0.486  -0.263  1.00  0.00    -0.311 OA
BRANCH  10  12
HETATM   12  C8  UNL     1      -5.668  -0.186   1.360  1.00  0.00     0.038 C 
HETATM   13  C9  UNL     1      -6.797  -0.125   1.937  1.00  0.00     0.014 C 
BRANCH  13  14
HETATM   14  C10 UNL     1      -8.180   0.039   1.622  1.00  0.00    -0.036 A 
HETATM   15  C11 UNL     1      -9.026   0.485   2.656  1.00  0.00     0.011 A 
HETATM   16  C12 UNL     1     -10.378   0.618   2.533  1.00  0.00     0.001 A 
HETATM   17  C13 UNL     1     -10.953   0.299   1.331  1.00  0.00     0.000 A 
HETATM   18  C14 UNL     1     -10.163  -0.143   0.294  1.00  0.00     0.001 A 
HETATM   19  C15 UNL     1      -8.810  -0.265   0.451  1.00  0.00     0.011 A 
ENDBRANCH  13  14
ENDBRANCH  10  12
ENDBRANCH   6   7
ENDBRANCH   4   5
BRANCH   4  20
HETATM   20  N2  UNL     1       1.088  -1.958  -1.323  1.00  0.00    -0.343 N 
ATOM     21  H2  UNL     1       0.971  -2.855  -0.852  1.00  0.00     0.167 HD
BRANCH  20  22
HETATM   22  C16 UNL     1       2.338  -1.297  -1.195  1.00  0.00     0.033 A 
HETATM   23  C17 UNL     1       3.326  -1.852  -0.400  1.00  0.00     0.030 A 
HETATM   24  C18 UNL     1       4.566  -1.273  -0.227  1.00  0.00     0.019 A 
HETATM   25  C19 UNL     1       4.875  -0.086  -0.858  1.00  0.00     0.032 A 
HETATM   26  C27 UNL     1       3.891   0.468  -1.651  1.00  0.00     0.019 A 
HETATM   27  C28 UNL     1       2.651  -0.112  -1.824  1.00  0.00     0.030 A 
BRANCH  25  28
HETATM   28  C20 UNL     1       6.176   0.588  -0.708  1.00  0.00     0.256 C 
HETATM   29  O2  UNL     1       6.463   1.427  -1.582  1.00  0.00    -0.267 OA
HETATM   30  N3  UNL     1       7.058   0.319   0.349  1.00  0.00    -0.323 N 
ATOM     31  H3  UNL     1       6.727  -0.379   1.015  1.00  0.00     0.169 HD
BRANCH  30  32
HETATM   32  C21 UNL     1       8.308   0.850   0.634  1.00  0.00     0.035 A 
HETATM   33  C22 UNL     1       8.866   0.672   1.902  1.00  0.00     0.029 A 
HETATM   34  C23 UNL     1      10.109   1.162   2.235  1.00  0.00     0.002 A 
HETATM   35  C24 UNL     1      10.837   1.858   1.283  1.00  0.00     0.000 A 
HETATM   36  C25 UNL     1      10.317   2.049   0.031  1.00  0.00     0.002 A 
HETATM   37  C26 UNL     1       9.053   1.543  -0.288  1.00  0.00     0.029 A 
ENDBRANCH  30  32
ENDBRANCH  25  28
ENDBRANCH  20  22
ENDBRANCH   4  20
TORSDOF 8
