REMARK  4 active torsions:
REMARK  status: ('A' for Active; 'I' for Inactive)
REMARK    1  A    between atoms: C3_3  and  C4_4 
REMARK    2  A    between atoms: C4_4  and  S1_5 
REMARK    3  A    between atoms: S1_5  and  C5_6 
REMARK    4  A    between atoms: C8_10  and  C9_11 
ROOT
HETATM    1  C5  UNL     1       0.249  -0.340   0.407  1.00  0.00     0.001 C 
HETATM    2  C6  UNL     1      -0.612   0.520   0.967  1.00  0.00     0.050 C 
HETATM    3  C7  UNL     1      -0.034   1.457   1.944  1.00  0.00     0.097 C 
HETATM    4  N1  UNL     1       0.401   2.207   2.719  1.00  0.00    -0.192 NA
HETATM    5  C8  UNL     1      -2.033   0.682   0.824  1.00  0.00     0.116 C 
HETATM    6  C13 UNL     1      -2.728   0.226  -0.394  1.00  0.00     0.059 C 
HETATM    7  C14 UNL     1      -2.811   1.214  -1.445  1.00  0.00     0.098 C 
HETATM    8  N2  UNL     1      -2.888   1.998  -2.317  1.00  0.00    -0.192 NA
HETATM    9  C15 UNL     1      -2.374  -1.132  -0.859  1.00  0.00     0.029 C 
HETATM   10  N3  UNL     1      -3.336  -1.652  -1.564  1.00  0.00    -0.401 N 
ATOM     11  H31 UNL     1      -3.092  -2.589  -1.885  1.00  0.00     0.156 HD
ATOM     12  H32 UNL     1      -4.136  -1.028  -1.663  1.00  0.00     0.156 HD
HETATM   13  C16 UNL     1      -1.237  -2.019  -0.719  1.00  0.00     0.007 C 
HETATM   14  C17 UNL     1      -1.481  -3.285   0.073  1.00  0.00     0.022 C 
HETATM   15  C18 UNL     1      -0.766  -2.402  -2.134  1.00  0.00     0.017 C 
HETATM   16  C19 UNL     1       0.132  -1.155  -2.009  1.00  0.00     0.012 C 
HETATM   17  C20 UNL     1       0.114  -1.408  -0.554  1.00  0.00     0.041 C 
ENDROOT
BRANCH   1  18
HETATM   18  S1  UNL     1       1.882  -0.072   1.048  1.00  0.00    -0.129 SA
BRANCH  18  19
HETATM   19  C4  UNL     1       3.223  -0.925   0.296  1.00  0.00     0.106 C 
BRANCH  19  20
HETATM   20  C3  UNL     1       3.606  -0.299  -0.995  1.00  0.00    -0.021 C 
HETATM   21  C2  UNL     1       4.883   0.168  -1.108  1.00  0.00    -0.034 C 
HETATM   22  C1  UNL     1       5.845   0.061  -0.006  1.00  0.00     0.036 C 
ENDBRANCH  19  20
ENDBRANCH  18  19
ENDBRANCH   1  18
BRANCH   5  23
HETATM   23  C9  UNL     1      -2.335   2.162   0.982  1.00  0.00    -0.003 A 
HETATM   24  C10 UNL     1      -1.703   3.215   0.370  1.00  0.00     0.016 A 
HETATM   25  C11 UNL     1      -2.158   4.453   0.668  1.00  0.00     0.008 A 
HETATM   26  C12 UNL     1      -3.202   4.542   1.549  1.00  0.00     0.050 A 
HETATM   27  S2  UNL     1      -3.520   2.916   1.935  1.00  0.00    -0.105 SA
ENDBRANCH   5  23
TORSDOF 4
