REMARK  4 active torsions:
REMARK  status: ('A' for Active; 'I' for Inactive)
REMARK    1  A    between atoms: C6_6  and  C7_7 
REMARK    2  A    between atoms: C7_7  and  C8_8 
REMARK    3  A    between atoms: C8_8  and  O1_10 
REMARK    4  A    between atoms: C17_19  and  O2_20 
ROOT
HETATM    1  C1  UNL     1      -2.433  -2.629   0.456  1.00  0.00     0.015 C 
HETATM    2  C2  UNL     1      -1.535  -1.671   0.628  1.00  0.00    -0.080 C 
HETATM    3  C3  UNL     1      -1.642  -0.969   1.915  1.00  0.00     0.034 C 
HETATM    4  C4  UNL     1      -0.884   0.258   2.114  1.00  0.00     0.010 C 
HETATM    5  C5  UNL     1      -0.292   0.940   0.897  1.00  0.00     0.001 C 
HETATM    6  C6  UNL     1       0.912   0.203   0.498  1.00  0.00     0.002 C 
HETATM    7  C10 UNL     1       0.733  -1.189  -0.013  1.00  0.00    -0.028 C 
HETATM    8  C11 UNL     1       1.090  -2.265   1.018  1.00  0.00     0.016 C 
HETATM    9  C12 UNL     1       1.624  -1.486  -1.222  1.00  0.00     0.011 C 
HETATM   10  C13 UNL     1       1.055  -2.795  -1.705  1.00  0.00     0.002 C 
HETATM   11  C14 UNL     1      -0.363  -2.885  -1.194  1.00  0.00     0.015 C 
HETATM   12  C15 UNL     1      -0.612  -1.524  -0.534  1.00  0.00    -0.008 C 
HETATM   13  C16 UNL     1      -1.100  -0.573  -1.572  1.00  0.00     0.047 C 
HETATM   14  C17 UNL     1      -2.017   0.397  -0.883  1.00  0.00     0.127 C 
HETATM   15  C18 UNL     1      -1.306   1.387  -0.049  1.00  0.00    -0.018 C 
HETATM   16  C19 UNL     1      -2.412   2.054   0.809  1.00  0.00     0.018 C 
HETATM   17  C20 UNL     1      -0.867   2.528  -0.976  1.00  0.00     0.018 C 
ENDROOT
BRANCH   6  18
HETATM   18  C7  UNL     1       1.961   0.976  -0.275  1.00  0.00     0.037 C 
BRANCH  18  19
HETATM   19  C8  UNL     1       2.502   2.156   0.512  1.00  0.00     0.114 C 
HETATM   20  C9  UNL     1       3.554   2.875  -0.344  1.00  0.00     0.039 C 
BRANCH  19  21
HETATM   21  O1  UNL     1       3.155   1.755   1.664  1.00  0.00    -0.396 OA
ATOM     22  H1  UNL     1       3.494   2.493   2.157  1.00  0.00     0.210 HD
ENDBRANCH  19  21
ENDBRANCH  18  19
ENDBRANCH   6  18
BRANCH  14  23
HETATM   23  O2  UNL     1      -2.677   1.109  -1.917  1.00  0.00    -0.395 OA
ATOM     24  H2  UNL     1      -3.257   1.722  -1.481  1.00  0.00     0.210 HD
ENDBRANCH  14  23
TORSDOF 4
