REMARK  5 active torsions:
REMARK  status: ('A' for Active; 'I' for Inactive)
REMARK    1  A    between atoms: C2_2  and  C3_4 
REMARK    2  A    between atoms: N1_9  and  C8_10 
REMARK    3  A    between atoms: C8_10  and  O2_11 
REMARK    4  A    between atoms: C8_10  and  N2_13 
REMARK    5  A    between atoms: N3_18  and  C13_19 
ROOT
HETATM    1  N2  UNL     1      -0.697   0.333  -0.404  1.00  0.00    -0.347 N 
HETATM    2  C9  UNL     1      -0.373   1.234   0.634  1.00  0.00     0.127 C 
HETATM    3  C10 UNL     1       1.069   1.482   0.937  1.00  0.00     0.027 C 
HETATM    4  C11 UNL     1       2.064   0.833   0.017  1.00  0.00     0.021 C 
HETATM    5  C12 UNL     1       3.417   0.812   0.610  1.00  0.00     0.278 C 
HETATM    6  N3  UNL     1       4.273  -0.244   0.248  1.00  0.00     0.092 N 
HETATM    7  C16 UNL     1       3.915  -1.013  -0.887  1.00  0.00     0.273 C 
HETATM    8  C17 UNL     1       2.499  -1.444  -0.967  1.00  0.00     0.037 C 
HETATM    9  C18 UNL     1       1.514  -0.511  -0.357  1.00  0.00     0.011 C 
HETATM   10  C19 UNL     1       0.368  -0.165  -1.303  1.00  0.00     0.131 C 
ENDROOT
BRANCH   1  11
HETATM   11  C8  UNL     1      -1.994  -0.120  -0.639  1.00  0.00     0.217 C 
BRANCH  11  12
HETATM   12  N1  UNL     1      -3.223   0.111  -0.080  1.00  0.00    -0.336 N 
HETATM   13  C3  UNL     1      -4.402  -0.630  -0.593  1.00  0.00     0.157 C 
HETATM   14  C4  UNL     1      -5.291  -1.078   0.501  1.00  0.00     0.033 C 
HETATM   15  C5  UNL     1      -4.750  -1.019   1.893  1.00  0.00     0.004 C 
HETATM   16  C6  UNL     1      -3.917   0.176   2.207  1.00  0.00     0.020 C 
HETATM   17  C7  UNL     1      -3.581   0.995   0.968  1.00  0.00     0.127 C 
BRANCH  13  18
HETATM   18  C2  UNL     1      -5.142   0.252  -1.527  1.00  0.00     0.145 C 
HETATM   19  C1  UNL     1      -6.392  -0.182  -2.207  1.00  0.00     0.093 C 
HETATM   20  O1  UNL     1      -4.711   1.370  -1.746  1.00  0.00    -0.296 OA
ENDBRANCH  13  18
ENDBRANCH  11  12
BRANCH  11  21
HETATM   21  O2  UNL     1      -2.036  -0.983  -1.646  1.00  0.00    -0.332 OA
ATOM     22  H2  UNL     1      -1.184  -1.143  -2.034  1.00  0.00     0.220 HD
ENDBRANCH  11  21
ENDBRANCH   1  11
BRANCH   6  23
HETATM   23  C13 UNL     1       5.625   0.283   0.008  1.00  0.00     0.215 C 
HETATM   24  C14 UNL     1       6.127   0.871   1.300  1.00  0.00     0.042 C 
HETATM   25  C15 UNL     1       6.483  -0.884  -0.440  1.00  0.00     0.042 C 
ENDBRANCH   6  23
TORSDOF 5
