REMARK  5 active torsions:
REMARK  status: ('A' for Active; 'I' for Inactive)
REMARK    1  A    between atoms: C3_5  and  C4_6 
REMARK    2  A    between atoms: C5_9  and  N3_10 
REMARK    3  A    between atoms: C6_14  and  C7_15 
REMARK       I    between atoms: C7_15  and  N6_17 
REMARK    4  A    between atoms: N6_17  and  N7_19 
REMARK    5  A    between atoms: C9_26  and  N11_27 
ROOT
HETATM    1  N3  UNL     1      -0.821  -0.384   0.399  1.00  0.00    -0.172 N 
HETATM    2  N4  UNL     1      -0.151  -0.184   1.519  1.00  0.00     0.003 NA
HETATM    3  N5  UNL     1       1.160  -0.190   1.282  1.00  0.00    -0.262 N 
ATOM      4  H5  UNL     1       1.894  -0.058   1.978  1.00  0.00     0.186 HD
HETATM    5  C6  UNL     1       1.347  -0.399  -0.029  1.00  0.00     0.205 A 
HETATM    6  N10 UNL     1       0.113  -0.515  -0.550  1.00  0.00    -0.260 N 
ATOM      7  H10 UNL     1      -0.085  -0.681  -1.537  1.00  0.00     0.190 HD
ENDROOT
BRANCH   1   8
HETATM    8  C5  UNL     1      -2.237  -0.459   0.273  1.00  0.00     0.148 A 
HETATM    9  C3  UNL     1      -3.039   0.635   0.085  1.00  0.00     0.133 A 
HETATM   10  N1  UNL     1      -4.374   0.412  -0.018  1.00  0.00    -0.340 N 
HETATM   11  C2  UNL     1      -4.963  -0.768   0.047  1.00  0.00     0.079 A 
ATOM     12  H1  UNL     1      -4.973   1.225  -0.158  1.00  0.00     0.167 HD
HETATM   13  C1  UNL     1      -6.436  -0.965  -0.072  1.00  0.00     0.089 C 
HETATM   14  N12 UNL     1      -4.199  -1.858   0.231  1.00  0.00    -0.331 N 
HETATM   15  C9  UNL     1      -2.877  -1.708   0.341  1.00  0.00     0.133 A 
ATOM     16  H12 UNL     1      -4.622  -2.785   0.286  1.00  0.00     0.168 HD
BRANCH   9  17
HETATM   17  C4  UNL     1      -2.524   1.985  -0.005  1.00  0.00     0.284 C 
HETATM   18  N2  UNL     1      -1.195   2.398   0.078  1.00  0.00    -0.056 NA
HETATM   19  O1  UNL     1      -3.394   2.916  -0.182  1.00  0.00    -0.269 OA
ENDBRANCH   9  17
BRANCH  15  20
HETATM   20  N11 UNL     1      -2.089  -2.727   0.520  1.00  0.00    -0.383 N 
ATOM     21 2H11 UNL     1      -1.079  -2.612   0.604  1.00  0.00     0.157 HD
ATOM     22 1H11 UNL     1      -2.554  -3.634   0.569  1.00  0.00     0.157 HD
ENDBRANCH  15  20
ENDBRANCH   1   8
BRANCH   5  23
HETATM   23  C7  UNL     1       2.627  -0.480  -0.729  1.00  0.00     0.306 C 
HETATM   24  O2  UNL     1       2.694  -0.681  -1.969  1.00  0.00    -0.262 OA
HETATM   25  N6  UNL     1       3.821  -0.331   0.002  1.00  0.00    -0.261 N 
ATOM     26  H6  UNL     1       3.788  -0.168   1.008  1.00  0.00     0.190 HD
BRANCH  25  27
HETATM   27  N7  UNL     1       5.044  -0.406  -0.651  1.00  0.00    -0.273 N 
HETATM   28  C8  UNL     1       5.930   0.498  -0.447  1.00  0.00     0.215 C 
HETATM   29  N8  UNL     1       5.655   1.564   0.441  1.00  0.00    -0.065 NA
HETATM   30  N9  UNL     1       7.170   0.394  -1.128  1.00  0.00    -0.065 NA
ATOM     31  H7  UNL     1       5.237  -1.177  -1.290  1.00  0.00     0.189 HD
ENDBRANCH  25  27
ENDBRANCH   5  23
TORSDOF 5
