REMARK  6 active torsions:
REMARK  status: ('A' for Active; 'I' for Inactive)
REMARK    1  A    between atoms: C1_4  and  N2_5 
REMARK    2  A    between atoms: C1_4  and  C9_34 
REMARK    3  A    between atoms: N3_7  and  N4_9 
REMARK       I    between atoms: C2_11  and  N5_12 
REMARK       I    between atoms: C2_11  and  N10_27 
REMARK    4  A    between atoms: N5_12  and  C3_14 
REMARK    5  A    between atoms: C5_16  and  C6_17 
REMARK       I    between atoms: C6_17  and  N6_19 
REMARK    6  A    between atoms: N6_19  and  N7_20 
ROOT
HETATM    1  N4  UNL     1       1.951   0.023  -0.891  1.00  0.00    -0.116 N 
ATOM      2  H4  UNL     1       2.912  -0.289  -0.752  1.00  0.00     0.207 HD
HETATM    3  C2  UNL     1       0.940  -0.765  -0.661  1.00  0.00     0.721 C 
HETATM    4  N5  UNL     1      -0.351  -0.269  -0.878  1.00  0.00    -0.172 N 
ATOM      5  H5  UNL     1      -0.532   0.142  -1.794  1.00  0.00     0.186 HD
HETATM    6  N10 UNL     1       1.202  -2.080  -0.221  1.00  0.00    -0.080 N 
HETATM    7  C7  UNL     1       2.294  -2.598   0.358  1.00  0.00     0.226 A 
HETATM    8  N11 UNL     1       2.158  -3.899   0.623  1.00  0.00    -0.345 N 
ATOM      9  H11 UNL     1       2.845  -4.514   1.059  1.00  0.00     0.167 HD
HETATM   10  C8  UNL     1       0.918  -4.232   0.193  1.00  0.00     0.199 A 
HETATM   11  N12 UNL     1       0.357  -3.136  -0.308  1.00  0.00    -0.274 N 
ATOM     12  H12 UNL     1      -0.582  -3.095  -0.704  1.00  0.00     0.189 HD
ENDROOT
BRANCH   1  13
HETATM   13  N3  UNL     1       1.669   1.275  -1.323  1.00  0.00    -0.227 N 
HETATM   14  N2  UNL     1       2.318   2.212  -1.601  1.00  0.00    -0.267 N 
ATOM     15  H2  UNL     1       1.712   2.981  -1.886  1.00  0.00     0.190 HD
ATOM     16  H3  UNL     1       0.668   1.440  -1.431  1.00  0.00     0.209 HD
BRANCH  14  17
HETATM   17  C1  UNL     1       3.633   2.604  -1.665  1.00  0.00     0.181 C 
HETATM   18  N1  UNL     1       3.918   3.881  -1.465  1.00  0.00    -0.380 N 
ATOM     19  H12 UNL     1       3.114   4.477  -1.267  1.00  0.00     0.158 HD
ATOM     20  H11 UNL     1       4.894   4.172  -1.513  1.00  0.00     0.158 HD
BRANCH  17  21
HETATM   21  C9  UNL     1       4.776   1.756  -1.946  1.00  0.00     0.299 C 
HETATM   22  N13 UNL     1       6.085   2.241  -1.993  1.00  0.00    -0.054 NA
HETATM   23  O2  UNL     1       4.623   0.498  -2.158  1.00  0.00    -0.268 OA
ENDBRANCH  17  21
ENDBRANCH  14  17
ENDBRANCH   1  13
BRANCH   4  24
HETATM   24  C3  UNL     1      -1.429  -0.275   0.032  1.00  0.00     0.138 A 
HETATM   25  C4  UNL     1      -2.686   0.263  -0.316  1.00  0.00     0.088 A 
HETATM   26  C5  UNL     1      -3.523   0.116   0.767  1.00  0.00     0.136 A 
HETATM   27  N8  UNL     1      -2.797  -0.488   1.737  1.00  0.00    -0.293 N 
HETATM   28  N9  UNL     1      -1.577  -0.702   1.279  1.00  0.00    -0.284 N 
ATOM     29  H8  UNL     1      -3.136  -0.736   2.666  1.00  0.00     0.187 HD
ATOM     30  H9  UNL     1      -0.835  -1.144   1.821  1.00  0.00     0.188 HD
BRANCH  26  31
HETATM   31  C6  UNL     1      -4.965   0.495   0.855  1.00  0.00     0.362 C 
HETATM   32  O1  UNL     1      -5.495   0.992  -0.128  1.00  0.00    -0.247 OA
HETATM   33  N6  UNL     1      -5.607   0.230   2.102  1.00  0.00    -0.287 NA
BRANCH  33  34
HETATM   34  N7  UNL     1      -6.171  -0.004   3.197  1.00  0.00    -0.276 N 
ATOM     35  H72 UNL     1      -5.717   0.135   2.294  1.00  0.00     0.191 HD
ATOM     36  H71 UNL     1      -6.630  -0.193   4.088  1.00  0.00     0.191 HD
ENDBRANCH  33  34
ENDBRANCH  26  31
ENDBRANCH   4  24
TORSDOF 6
