REMARK  3 active torsions:
REMARK  status: ('A' for Active; 'I' for Inactive)
REMARK    1  A    between atoms: O1_2  and  C2_3 
REMARK    2  A    between atoms: C2_3  and  C3_5 
REMARK    3  A    between atoms: C6_10  and  N1_11 
ROOT
HETATM    1  C3  UNL     1       0.338   0.786  -0.316  1.00  0.00     0.109 A 
HETATM    2  C4  UNL     1       0.583   2.044  -0.851  1.00  0.00     0.053 A 
HETATM    3 BR1  UNL     1       2.326   2.817  -0.967  1.00  0.00    -0.048 Br
HETATM    4  C5  UNL     1      -0.627   2.575  -1.254  1.00  0.00     0.164 A 
HETATM    5  O3  UNL     1      -1.558   1.706  -0.986  1.00  0.00    -0.303 OA
HETATM    6  C6  UNL     1      -1.022   0.624  -0.426  1.00  0.00     0.162 A 
ENDROOT
BRANCH   1   7
HETATM    7  C2  UNL     1       1.343  -0.114   0.231  1.00  0.00     0.298 C 
HETATM    8  O2  UNL     1       1.012  -1.232   0.686  1.00  0.00    -0.259 OA
BRANCH   7   9
HETATM    9  O1  UNL     1       2.683   0.229   0.266  1.00  0.00    -0.322 OA
HETATM   10  C1  UNL     1       3.700  -0.583   0.777  1.00  0.00     0.213 C 
ENDBRANCH   7   9
ENDBRANCH   1   7
BRANCH   6  11
HETATM   11  N1  UNL     1      -1.778  -0.503  -0.019  1.00  0.00    -0.369 N 
HETATM   12  C7  UNL     1      -2.270  -0.605   1.337  1.00  0.00     0.151 C 
HETATM   13  C8  UNL     1      -2.081  -1.568  -0.942  1.00  0.00     0.151 C 
ENDBRANCH   6  11
TORSDOF 3
