REMARK  6 active torsions:
REMARK  status: ('A' for Active; 'I' for Inactive)
REMARK    1  A    between atoms: C2_2  and  N1_4 
REMARK    2  A    between atoms: N1_4  and  C5_6 
REMARK    3  A    between atoms: C5_6  and  N2_8 
REMARK    4  A    between atoms: N2_8  and  N3_10 
REMARK    5  A    between atoms: C6_15  and  C7_16 
REMARK    6  A    between atoms: C7_16  and  C8_17 
ROOT
HETATM    1  N3  UNL     1       1.505  -0.243  -0.252  1.00  0.00    -0.113 N 
HETATM    2  N4  UNL     1       1.917   0.963  -0.599  1.00  0.00    -0.204 N 
ATOM      3  H4  UNL     1       1.291   1.746  -0.785  1.00  0.00     0.212 HD
HETATM    4  N5  UNL     1       3.232   1.037  -0.677  1.00  0.00    -0.270 N 
ATOM      5  H5  UNL     1       3.790   1.854  -0.925  1.00  0.00     0.190 HD
HETATM    6  C6  UNL     1       3.684  -0.189  -0.362  1.00  0.00     0.116 A 
HETATM    7  N6  UNL     1       2.616  -0.964  -0.104  1.00  0.00    -0.250 N 
ATOM      8  H6  UNL     1       2.651  -1.948   0.163  1.00  0.00     0.192 HD
ENDROOT
BRANCH   1   9
HETATM    9  N2  UNL     1       0.189  -0.670  -0.078  1.00  0.00    -0.238 N 
ATOM     10  H2  UNL     1       0.030  -1.640   0.194  1.00  0.00     0.193 HD
BRANCH   9  11
HETATM   11  C5  UNL     1      -0.941   0.169  -0.258  1.00  0.00     0.191 C 
HETATM   12  S1  UNL     1      -0.646   1.704  -0.687  1.00  0.00    -0.039 SA
BRANCH  11  13
HETATM   13  N1  UNL     1      -2.251  -0.272  -0.080  1.00  0.00    -0.357 N 
HETATM   14  C4  UNL     1      -2.392  -1.691   0.316  1.00  0.00     0.152 C 
BRANCH  13  15
HETATM   15  C2  UNL     1      -3.476   0.430  -0.218  1.00  0.00     0.078 C 
HETATM   16  C1  UNL     1      -4.215   0.424   1.136  1.00  0.00     0.032 C 
HETATM   17  C3  UNL     1      -3.440   1.844  -0.660  1.00  0.00     0.032 C 
ENDBRANCH  13  15
ENDBRANCH  11  13
ENDBRANCH   9  11
ENDBRANCH   1   9
BRANCH   6  18
HETATM   18  C7  UNL     1       5.112  -0.548  -0.327  1.00  0.00     0.094 C 
BRANCH  18  19
HETATM   19  C8  UNL     1       5.723  -0.315   1.045  1.00  0.00     0.122 C 
HETATM   20 CL1  UNL     1       5.579   1.402   1.499  1.00  0.00    -0.130 Cl
ENDBRANCH  18  19
ENDBRANCH   6  18
TORSDOF 6
