REMARK  11 active torsions:
REMARK  status: ('A' for Active; 'I' for Inactive)
REMARK    1  A    between atoms: C2_2  and  C4_4 
REMARK    2  A    between atoms: C4_4  and  C5_5 
REMARK    3  A    between atoms: C5_5  and  C6_6 
REMARK    4  A    between atoms: C6_6  and  C7_7 
REMARK    5  A    between atoms: C8_8  and  O1_9 
REMARK    6  A    between atoms: C9_11  and  O2_12 
REMARK    7  A    between atoms: C19_23  and  C21_25 
REMARK    8  A    between atoms: C21_25  and  C22_26 
REMARK    9  A    between atoms: C22_26  and  C23_27 
REMARK   10  A    between atoms: C23_27  and  C24_28 
REMARK   11  A    between atoms: C24_28  and  O3_31 
ROOT
HETATM    1  C7  UNL     1       1.941  -1.463  -0.798  1.00  0.00     0.022 C 
HETATM    2  C8  UNL     1       2.392  -2.670  -0.025  1.00  0.00     0.151 C 
HETATM    3  C9  UNL     1       1.421  -3.230   0.949  1.00  0.00     0.148 C 
HETATM    4  C10 UNL     1       0.880  -2.029   1.747  1.00  0.00     0.044 C 
HETATM    5  C11 UNL     1       0.020  -1.263   0.805  1.00  0.00    -0.033 C 
HETATM    6  C12 UNL     1      -0.775  -2.327   0.012  1.00  0.00     0.016 C 
HETATM    7  C13 UNL     1       0.903  -0.598  -0.224  1.00  0.00     0.001 C 
HETATM    8  C14 UNL     1       1.352   0.756   0.286  1.00  0.00     0.007 C 
HETATM    9  C15 UNL     1       0.058   1.580   0.476  1.00  0.00     0.014 C 
HETATM   10  C16 UNL     1      -0.611   1.060   1.659  1.00  0.00    -0.016 C 
HETATM   11  C17 UNL     1       0.349   1.163   2.830  1.00  0.00     0.020 C 
HETATM   12  C18 UNL     1      -1.911   1.609   2.104  1.00  0.00    -0.069 C 
HETATM   13  C19 UNL     1      -2.853   2.275   1.285  1.00  0.00    -0.081 C 
HETATM   14  C20 UNL     1      -2.300   3.593   0.629  1.00  0.00     0.043 C 
HETATM   15  C27 UNL     1      -2.390   0.545   3.029  1.00  0.00     0.036 C 
HETATM   16  C28 UNL     1      -1.674  -0.756   2.614  1.00  0.00     0.011 C 
HETATM   17  C29 UNL     1      -0.999  -0.368   1.362  1.00  0.00     0.007 C 
ENDROOT
BRANCH  13  18
HETATM   18  C21 UNL     1      -3.709   1.718   0.222  1.00  0.00     0.034 C 
BRANCH  18  19
HETATM   19  C22 UNL     1      -4.718   0.670   0.560  1.00  0.00     0.007 C 
BRANCH  19  20
HETATM   20  C23 UNL     1      -5.595   0.185  -0.520  1.00  0.00     0.037 C 
BRANCH  20  21
HETATM   21  C24 UNL     1      -5.113  -0.485  -1.710  1.00  0.00     0.051 C 
HETATM   22  C25 UNL     1      -6.381  -0.833  -2.551  1.00  0.00     0.045 C 
HETATM   23  C26 UNL     1      -4.200   0.146  -2.667  1.00  0.00     0.045 C 
BRANCH  21  24
HETATM   24  O3  UNL     1      -4.589  -1.766  -1.392  1.00  0.00    -0.391 OA
ATOM     25  H3  UNL     1      -4.273  -2.206  -2.173  1.00  0.00     0.210 HD
ENDBRANCH  21  24
ENDBRANCH  20  21
ENDBRANCH  19  20
ENDBRANCH  18  19
ENDBRANCH  13  18
BRANCH   1  26
HETATM   26  C6  UNL     1       3.110  -0.829  -1.449  1.00  0.00     0.007 C 
BRANCH  26  27
HETATM   27  C5  UNL     1       4.246  -0.366  -0.643  1.00  0.00     0.001 C 
BRANCH  27  28
HETATM   28  C4  UNL     1       5.350   0.269  -1.502  1.00  0.00     0.004 C 
BRANCH  28  29
HETATM   29  C2  UNL     1       6.446   0.694  -0.553  1.00  0.00    -0.023 C 
HETATM   30  C1  UNL     1       5.958   1.691   0.466  1.00  0.00     0.009 C 
HETATM   31  C3  UNL     1       7.590   1.365  -1.304  1.00  0.00     0.009 C 
ENDBRANCH  28  29
ENDBRANCH  27  28
ENDBRANCH  26  27
ENDBRANCH   1  26
BRANCH   3  32
HETATM   32  O2  UNL     1       2.164  -4.035   1.856  1.00  0.00    -0.393 OA
ATOM     33  H2  UNL     1       1.543  -4.393   2.479  1.00  0.00     0.210 HD
ENDBRANCH   3  32
BRANCH   2  34
HETATM   34  O1  UNL     1       2.731  -3.684  -0.919  1.00  0.00    -0.393 OA
ATOM     35  H1  UNL     1       3.016  -4.447  -0.430  1.00  0.00     0.210 HD
ENDBRANCH   2  34
TORSDOF 11
