REMARK  14 active torsions:
REMARK  status: ('A' for Active; 'I' for Inactive)
REMARK    1  A    between atoms: C2_2  and  C3_3 
REMARK    2  A    between atoms: C3_3  and  C4_4 
REMARK    3  A    between atoms: C3_3  and  C20_22 
REMARK    4  A    between atoms: C4_4  and  C5_5 
REMARK    5  A    between atoms: C5_5  and  O1_7 
REMARK    6  A    between atoms: C5_5  and  C7_9 
REMARK    7  A    between atoms: C7_9  and  C9_11 
REMARK    8  A    between atoms: C9_11  and  C10_12 
REMARK    9  A    between atoms: C10_12  and  C12_14 
REMARK   10  A    between atoms: C13_15  and  C15_17 
REMARK   11  A    between atoms: C15_17  and  C18_20 
REMARK   12  A    between atoms: C23_25  and  O2_27 
REMARK   13  A    between atoms: C25_29  and  C26_30 
REMARK   14  A    between atoms: C26_30  and  O3_33 
ROOT
HETATM    1  C3  UNL     1       1.819  -2.059  -0.790  1.00  0.00     0.044 C 
ENDROOT
BRANCH   1   2
HETATM    2  C2  UNL     1       1.923  -1.635  -2.188  1.00  0.00    -0.029 C 
HETATM    3  C1  UNL     1       2.027  -2.605  -3.130  1.00  0.00     0.007 C 
ENDBRANCH   1   2
BRANCH   1   4
HETATM    4  C4  UNL     1       0.571  -1.683  -0.069  1.00  0.00     0.050 C 
BRANCH   4   5
HETATM    5  C5  UNL     1      -0.722  -2.194  -0.598  1.00  0.00     0.068 C 
HETATM    6  C6  UNL     1      -1.121  -1.805  -1.963  1.00  0.00     0.047 C 
BRANCH   5   7
HETATM    7  O1  UNL     1      -0.782  -3.589  -0.444  1.00  0.00    -0.389 OA
ATOM      8  H1  UNL     1      -1.608  -3.915  -0.782  1.00  0.00     0.210 HD
ENDBRANCH   5   7
BRANCH   5   9
HETATM    9  C7  UNL     1      -1.781  -1.572   0.397  1.00  0.00     0.082 C 
HETATM   10  C8  UNL     1      -1.713  -2.232   1.736  1.00  0.00     0.025 C 
BRANCH   9  11
HETATM   11  C9  UNL     1      -2.437  -0.663  -0.023  1.00  0.00    -0.167 C 
BRANCH  11  12
HETATM   12  C10 UNL     1      -3.240   0.451  -0.536  1.00  0.00     0.071 C 
HETATM   13  C11 UNL     1      -2.353   1.708  -0.815  1.00  0.00     0.027 C 
BRANCH  12  14
HETATM   14  C12 UNL     1      -4.221   0.964   0.502  1.00  0.00    -0.008 C 
HETATM   15  C13 UNL     1      -5.538   0.906   0.258  1.00  0.00    -0.075 C 
HETATM   16  C14 UNL     1      -6.051   0.350  -0.991  1.00  0.00     0.044 C 
BRANCH  15  17
HETATM   17  C15 UNL     1      -6.461   1.455   1.262  1.00  0.00    -0.008 C 
HETATM   18  C16 UNL     1      -7.597   0.450   1.469  1.00  0.00     0.024 C 
HETATM   19  C17 UNL     1      -5.715   1.465   2.633  1.00  0.00     0.024 C 
BRANCH  17  20
HETATM   20  C18 UNL     1      -6.920   2.809   1.006  1.00  0.00    -0.024 C 
HETATM   21  C19 UNL     1      -6.743   3.541  -0.030  1.00  0.00     0.008 C 
ENDBRANCH  17  20
ENDBRANCH  15  17
ENDBRANCH  12  14
ENDBRANCH  11  12
ENDBRANCH   9  11
ENDBRANCH   5   9
ENDBRANCH   4   5
ENDBRANCH   1   4
BRANCH   1  22
HETATM   22  C20 UNL     1       3.025  -1.498   0.050  1.00  0.00     0.067 C 
HETATM   23  C21 UNL     1       2.813  -2.092   1.430  1.00  0.00     0.047 C 
HETATM   24  C22 UNL     1       2.815  -0.020   0.050  1.00  0.00     0.076 C 
HETATM   25  C23 UNL     1       4.081   0.793   0.309  1.00  0.00     0.065 C 
HETATM   26  C24 UNL     1       3.827   2.117  -0.311  1.00  0.00     0.046 C 
HETATM   27  C25 UNL     1       5.248   0.020  -0.077  1.00  0.00     0.077 C 
HETATM   28  C29 UNL     1       4.892  -0.950  -1.169  1.00  0.00     0.179 C 
HETATM   29  O4  UNL     1       4.161  -1.975  -0.511  1.00  0.00    -0.379 OA
BRANCH  25  30
HETATM   30  O2  UNL     1       4.113   0.999   1.715  1.00  0.00    -0.390 OA
ATOM     31  H2  UNL     1       4.901   1.505   1.876  1.00  0.00     0.210 HD
ENDBRANCH  25  30
BRANCH  27  32
HETATM   32  C26 UNL     1       6.526   0.724  -0.436  1.00  0.00     0.059 C 
HETATM   33  C27 UNL     1       6.459   1.629  -1.614  1.00  0.00     0.046 C 
HETATM   34  C28 UNL     1       7.076   1.500   0.751  1.00  0.00     0.046 C 
BRANCH  32  35
HETATM   35  O3  UNL     1       7.461  -0.260  -0.698  1.00  0.00    -0.390 OA
ATOM     36  H3  UNL     1       8.269   0.185  -0.925  1.00  0.00     0.210 HD
ENDBRANCH  32  35
ENDBRANCH  27  32
ENDBRANCH   1  22
TORSDOF 14
