REMARK  12 active torsions:
REMARK  status: ('A' for Active; 'I' for Inactive)
REMARK    1  A    between atoms: N1_2  and  C4_5 
REMARK    2  A    between atoms: C4_5  and  O1_6 
REMARK    3  A    between atoms: O1_6  and  C5_7 
REMARK    4  A    between atoms: C5_7  and  C6_8 
REMARK    5  A    between atoms: C6_8  and  O2_9 
REMARK    6  A    between atoms: C6_8  and  N2_11 
REMARK    7  A    between atoms: N2_11  and  C7_13 
REMARK    8  A    between atoms: C7_13  and  C8_14 
REMARK    9  A    between atoms: C7_13  and  C10_23 
REMARK   10  A    between atoms: C8_14  and  N3_15 
REMARK       I    between atoms: C9_17  and  N5_19 
REMARK   11  A    between atoms: N5_19  and  O3_21 
REMARK   12  A    between atoms: C10_23  and  C11_24 
ROOT
HETATM    1  C7  UNL     1      -1.223   0.388  -1.075  1.00  0.00     0.002 C 
ENDROOT
BRANCH   1   2
HETATM    2  N2  UNL     1       0.180   0.451  -1.199  1.00  0.00    -0.367 N 
ATOM      3  H2  UNL     1       0.633   0.056  -2.023  1.00  0.00     0.161 HD
BRANCH   2   4
HETATM    4  C6  UNL     1       0.954   1.050  -0.203  1.00  0.00     0.241 C 
BRANCH   4   5
HETATM    5  C5  UNL     1       2.435   0.657  -0.364  1.00  0.00     0.223 C 
BRANCH   5   6
HETATM    6  O1  UNL     1       2.617  -0.680  -0.277  1.00  0.00    -0.360 OA
BRANCH   6   7
HETATM    7  C4  UNL     1       3.888  -1.097  -0.438  1.00  0.00     0.403 C 
BRANCH   7   8
HETATM    8  N1  UNL     1       4.889  -0.685   0.489  1.00  0.00    -0.058 N 
HETATM    9  C1  UNL     1       4.451  -0.462   1.832  1.00  0.00     0.274 C 
HETATM   10  C2  UNL     1       5.543   0.542   0.005  1.00  0.00     0.274 C 
HETATM   11  C3  UNL     1       5.974  -1.698   0.557  1.00  0.00     0.274 C 
ENDBRANCH   7   8
ENDBRANCH   6   7
ENDBRANCH   5   6
ENDBRANCH   4   5
BRANCH   4  12
HETATM   12  O2  UNL     1       0.659   0.792   1.115  1.00  0.00    -0.375 OA
ATOM     13  H2  UNL     1      -0.254   1.034   1.214  1.00  0.00     0.212 HD
ENDBRANCH   4  12
ENDBRANCH   2   4
ENDBRANCH   1   2
BRANCH   1  14
HETATM   14  C8  UNL     1      -1.934   1.721  -1.001  1.00  0.00     0.174 C 
BRANCH  14  15
HETATM   15  N3  UNL     1      -1.564   2.540   0.103  1.00  0.00    -0.358 N 
HETATM   16  C9  UNL     1      -1.730   3.813   0.168  1.00  0.00     0.208 C 
HETATM   17  N4  UNL     1      -1.301   4.473   1.348  1.00  0.00    -0.062 NA
HETATM   18  N5  UNL     1      -2.312   4.601  -0.858  1.00  0.00    -0.241 N 
ATOM     19  H5  UNL     1      -3.063   4.197  -1.417  1.00  0.00     0.197 HD
ATOM     20  H3  UNL     1      -1.133   2.081   0.905  1.00  0.00     0.162 HD
BRANCH  18  21
HETATM   21  O3  UNL     1      -1.913   5.865  -1.126  1.00  0.00    -0.287 OA
ATOM     22  H3  UNL     1      -2.303   6.393  -1.813  1.00  0.00     0.244 HD
ENDBRANCH  18  21
ENDBRANCH  14  15
ENDBRANCH   1  14
BRANCH   1  23
HETATM   23  C10 UNL     1      -1.714  -0.630  -0.099  1.00  0.00     0.058 C 
BRANCH  23  24
HETATM   24  C11 UNL     1      -3.235  -0.696   0.008  1.00  0.00    -0.009 C 
HETATM   25  C12 UNL     1      -3.886  -1.040  -1.286  1.00  0.00     0.005 C 
HETATM   26  C13 UNL     1      -5.062  -1.968  -0.981  1.00  0.00     0.000 C 
HETATM   27  C14 UNL     1      -4.426  -3.322  -0.633  1.00  0.00     0.000 C 
HETATM   28  C15 UNL     1      -3.498  -3.142   0.549  1.00  0.00     0.000 C 
HETATM   29  C16 UNL     1      -3.552  -1.723   1.079  1.00  0.00     0.005 C 
ENDBRANCH  23  24
ENDBRANCH   1  23
TORSDOF 12
