REMARK  12 active torsions:
REMARK  status: ('A' for Active; 'I' for Inactive)
REMARK    1  A    between atoms: C2_2  and  C4_4 
REMARK    2  A    between atoms: C4_4  and  C5_5 
REMARK    3  A    between atoms: C5_5  and  C6_6 
REMARK    4  A    between atoms: C5_5  and  N1_9 
REMARK    5  A    between atoms: C6_6  and  O1_7 
REMARK       I    between atoms: N1_9  and  C7_11 
REMARK    6  A    between atoms: C7_11  and  C8_13 
REMARK    7  A    between atoms: C8_13  and  C9_14 
REMARK    8  A    between atoms: C8_13  and  N3_21 
REMARK    9  A    between atoms: C9_14  and  S1_15 
REMARK   10  A    between atoms: S1_15  and  C10_16 
REMARK   11  A    between atoms: C10_16  and  C11_17 
REMARK       I    between atoms: N3_21  and  C12_23 
REMARK   12  A    between atoms: C12_23  and  C13_25 
ROOT
HETATM    1  C8  UNL     1      -1.459  -0.124  -0.618  1.00  0.00     0.186 C 
ENDROOT
BRANCH   1   2
HETATM    2  C7  UNL     1      -0.556   0.049   0.502  1.00  0.00     0.245 C 
HETATM    3  N1  UNL     1       0.887  -0.059   0.380  1.00  0.00    -0.331 N 
ATOM      4  H1  UNL     1       1.282  -0.275  -0.536  1.00  0.00     0.168 HD
HETATM    5  O2  UNL     1      -0.978   0.296   1.649  1.00  0.00    -0.271 OA
BRANCH   3   6
HETATM    6  C5  UNL     1       1.780   0.122   1.478  1.00  0.00     0.013 C 
BRANCH   6   7
HETATM    7  C4  UNL     1       2.930   1.029   1.258  1.00  0.00     0.058 C 
BRANCH   7   8
HETATM    8  C2  UNL     1       4.101   0.509   0.521  1.00  0.00    -0.017 C 
HETATM    9  C1  UNL     1       5.145   1.640   0.436  1.00  0.00     0.010 C 
HETATM   10  C3  UNL     1       3.879   0.065  -0.890  1.00  0.00     0.010 C 
ENDBRANCH   7   8
ENDBRANCH   6   7
BRANCH   6  11
HETATM   11  C6  UNL     1       2.116  -1.146   2.243  1.00  0.00     0.216 C 
BRANCH  11  12
HETATM   12  O1  UNL     1       2.715  -2.129   1.521  1.00  0.00    -0.395 OA
ATOM     13  H1  UNL     1       2.925  -2.922   2.000  1.00  0.00     0.209 HD
ENDBRANCH  11  12
ENDBRANCH   6  11
ENDBRANCH   3   6
ENDBRANCH   1   2
BRANCH   1  14
HETATM   14  C9  UNL     1      -2.105   1.156  -1.132  1.00  0.00     0.109 C 
BRANCH  14  15
HETATM   15  S1  UNL     1      -1.048   2.444  -1.697  1.00  0.00    -0.162 SA
BRANCH  15  16
HETATM   16  C10 UNL     1      -0.208   3.363  -0.439  1.00  0.00     0.117 C 
BRANCH  16  17
HETATM   17  C11 UNL     1      -1.245   4.140   0.331  1.00  0.00     0.063 C 
HETATM   18  N2  UNL     1      -1.864   5.105  -0.225  1.00  0.00    -0.410 N 
ATOM     19  H22 UNL     1      -1.646   5.339  -1.193  1.00  0.00     0.155 HD
ATOM     20  H21 UNL     1      -2.566   5.631   0.296  1.00  0.00     0.155 HD
ENDBRANCH  16  17
ENDBRANCH  15  16
ENDBRANCH  14  15
ENDBRANCH   1  14
BRANCH   1  21
HETATM   21  N3  UNL     1      -2.581  -1.025  -0.291  1.00  0.00    -0.344 N 
HETATM   22  C12 UNL     1      -2.812  -2.213  -1.017  1.00  0.00     0.255 C 
HETATM   23  O3  UNL     1      -2.030  -2.483  -1.947  1.00  0.00    -0.270 OA
ATOM     24  H3  UNL     1      -3.205  -0.783   0.479  1.00  0.00     0.163 HD
BRANCH  22  25
HETATM   25  C13 UNL     1      -3.926  -3.111  -0.701  1.00  0.00     0.159 A 
HETATM   26  C14 UNL     1      -3.886  -4.535  -1.260  1.00  0.00     0.059 C 
HETATM   27  C15 UNL     1      -5.351  -2.541  -0.752  1.00  0.00     0.217 A 
HETATM   28  O4  UNL     1      -4.720  -2.917   0.405  1.00  0.00    -0.365 OA
ENDBRANCH  22  25
ENDBRANCH   1  21
TORSDOF 12
