REMARK  6 active torsions:
REMARK  status: ('A' for Active; 'I' for Inactive)
REMARK    1  A    between atoms: C2_2  and  C3_3 
REMARK    2  A    between atoms: C3_3  and  C4_4 
REMARK    3  A    between atoms: C4_4  and  C5_5 
REMARK    4  A    between atoms: C5_5  and  N1_6 
REMARK    5  A    between atoms: N2_12  and  N3_14 
REMARK    6  A    between atoms: N3_14  and  N4_16 
ROOT
HETATM    1  N1  UNL     1      -0.775  -0.233  -0.423  1.00  0.00    -0.366 N 
HETATM    2  C6  UNL     1      -0.779  -1.672  -0.531  1.00  0.00     0.150 C 
HETATM    3  C7  UNL     1      -2.198  -2.039  -0.965  1.00  0.00     0.188 C 
HETATM    4  O1  UNL     1      -3.181  -1.606  -0.136  1.00  0.00    -0.382 OA
HETATM    5  C8  UNL     1      -2.901  -0.591   0.735  1.00  0.00     0.245 C 
HETATM    6  C9  UNL     1      -1.948   0.360   0.115  1.00  0.00     0.119 C 
HETATM    7  N2  UNL     1      -2.163   1.629   0.067  1.00  0.00    -0.273 N 
ATOM      8  H2  UNL     1      -1.462   2.224  -0.375  1.00  0.00     0.190 HD
ENDROOT
BRANCH   1   9
HETATM    9  C5  UNL     1       0.361   0.552  -0.837  1.00  0.00     0.124 C 
BRANCH   9  10
HETATM   10  C4  UNL     1       1.463   0.230   0.153  1.00  0.00     0.023 C 
BRANCH  10  11
HETATM   11  C3  UNL     1       2.730   0.968  -0.123  1.00  0.00     0.028 C 
BRANCH  11  12
HETATM   12  C2  UNL     1       3.716   0.557   0.933  1.00  0.00    -0.037 C 
HETATM   13  C1  UNL     1       4.834  -0.003   0.568  1.00  0.00     0.007 C 
ENDBRANCH  11  12
ENDBRANCH  10  11
ENDBRANCH   9  10
ENDBRANCH   1   9
BRANCH   7  14
HETATM   14  N3  UNL     1      -3.307   2.227   0.590  1.00  0.00    -0.248 N 
ATOM     15  H3  UNL     1      -3.741   1.851   1.433  1.00  0.00     0.207 HD
BRANCH  14  16
HETATM   16  N4  UNL     1      -3.814   3.254   0.007  1.00  0.00    -0.331 N 
ATOM     17  H42 UNL     1      -3.368   3.618  -0.835  1.00  0.00     0.178 HD
ATOM     18  H41 UNL     1      -4.652   3.692   0.390  1.00  0.00     0.178 HD
ENDBRANCH  14  16
ENDBRANCH   7  14
TORSDOF 6
