REMARK  4 active torsions:
REMARK  status: ('A' for Active; 'I' for Inactive)
REMARK    1  A    between atoms: N1_4  and  C4_5 
REMARK    2  A    between atoms: C4_5  and  C5_6 
REMARK    3  A    between atoms: C5_6  and  C6_7 
REMARK    4  A    between atoms: C6_7  and  C7_8 
ROOT
HETATM    1  C5  UNL     1      -0.230  -1.170   1.079  1.00  0.00     0.022 C 
ENDROOT
BRANCH   1   2
HETATM    2  C4  UNL     1       1.234  -1.525   1.005  1.00  0.00     0.128 C 
BRANCH   2   3
HETATM    3  N1  UNL     1       2.075  -0.502   0.486  1.00  0.00    -0.366 N 
HETATM    4  C3  UNL     1       2.330  -0.422  -0.832  1.00  0.00     0.090 A 
HETATM    5  C2  UNL     1       3.146   0.565  -1.366  1.00  0.00     0.017 A 
HETATM    6  C1  UNL     1       3.712   1.487  -0.533  1.00  0.00     0.003 A 
HETATM    7  C11 UNL     1       3.456   1.416   0.832  1.00  0.00     0.017 A 
HETATM    8  C10 UNL     1       2.631   0.402   1.288  1.00  0.00     0.090 A 
ENDBRANCH   2   3
ENDBRANCH   1   2
BRANCH   1   9
HETATM    9  C6  UNL     1      -0.821  -0.837  -0.273  1.00  0.00     0.037 C 
BRANCH   9  10
HETATM   10  C7  UNL     1      -2.275  -0.510  -0.043  1.00  0.00     0.212 C 
HETATM   11  C8  UNL     1      -2.453   0.665   0.891  1.00  0.00     0.203 C 
HETATM   12  O1  UNL     1      -3.813   0.960   0.634  1.00  0.00    -0.362 OA
HETATM   13  C9  UNL     1      -3.856   0.975  -0.742  1.00  0.00     0.399 C 
HETATM   14  N2  UNL     1      -2.932  -0.011  -1.231  1.00  0.00    -0.048 N 
ATOM     15  H22 UNL     1      -2.293   0.336  -1.946  1.00  0.00     0.280 HD
ATOM     16  H21 UNL     1      -3.362  -0.736  -1.805  1.00  0.00     0.280 HD
ENDBRANCH   9  10
ENDBRANCH   1   9
TORSDOF 4
