REMARK  7 active torsions:
REMARK  status: ('A' for Active; 'I' for Inactive)
REMARK    1  A    between atoms: C2_2  and  N1_3 
REMARK    2  A    between atoms: C5_8  and  N3_9 
REMARK    3  A    between atoms: N3_9  and  C6_11 
REMARK    4  A    between atoms: C6_11  and  C7_12 
REMARK    5  A    between atoms: C7_12  and  N4_13 
REMARK    6  A    between atoms: C12_25  and  N8_26 
REMARK    7  A    between atoms: N8_26  and  C13_28 
ROOT
HETATM    1  N1  UNL     1       1.829  -2.215   1.625  1.00  0.00    -0.276 N 
HETATM    2  N2  UNL     1       0.664  -2.587   2.118  1.00  0.00    -0.307 N 
ATOM      3  H2  UNL     1       0.499  -3.461   2.617  1.00  0.00     0.186 HD
HETATM    4  C3  UNL     1      -0.273  -1.661   1.875  1.00  0.00     0.126 A 
HETATM    5  C4  UNL     1       0.337  -0.647   1.190  1.00  0.00     0.071 A 
HETATM    6  C5  UNL     1      -0.099   0.577   0.663  1.00  0.00     0.132 A 
HETATM    7  N7  UNL     1       0.799   1.329   0.040  1.00  0.00    -0.176 N 
ATOM      8  H7  UNL     1       0.486   2.220  -0.346  1.00  0.00     0.186 HD
HETATM    9  C12 UNL     1       2.111   0.994  -0.121  1.00  0.00     0.686 A 
HETATM   10  N10 UNL     1       2.505  -0.180   0.391  1.00  0.00    -0.174 N 
ATOM     11  H10 UNL     1       3.480  -0.462   0.289  1.00  0.00     0.186 HD
HETATM   12  C18 UNL     1       1.652  -1.000   1.037  1.00  0.00     0.153 A 
ENDROOT
BRANCH   6  13
HETATM   13  N3  UNL     1      -1.324   0.848   0.839  1.00  0.00    -0.373 N 
ATOM     14  H3  UNL     1      -1.895   0.169   1.342  1.00  0.00     0.161 HD
BRANCH  13  15
HETATM   15  C6  UNL     1      -1.952   2.035   0.382  1.00  0.00     0.141 C 
BRANCH  15  16
HETATM   16  C7  UNL     1      -3.023   1.753  -0.680  1.00  0.00     0.142 C 
BRANCH  16  17
HETATM   17  N4  UNL     1      -4.028   0.930  -0.131  1.00  0.00    -0.383 N 
HETATM   18  C8  UNL     1      -3.752  -0.401   0.188  1.00  0.00     0.078 C 
HETATM   19  C9  UNL     1      -4.893  -1.368   0.011  1.00  0.00     0.165 C 
HETATM   20  N5  UNL     1      -5.923  -0.920  -0.879  1.00  0.00    -0.374 N 
HETATM   21  C10 UNL     1      -6.313   0.445  -0.796  1.00  0.00     0.089 C 
ATOM     22  H5  UNL     1      -6.360  -1.556  -1.546  1.00  0.00     0.161 HD
HETATM   23  N6  UNL     1      -7.452   0.844  -1.249  1.00  0.00    -0.388 N 
HETATM   24  C11 UNL     1      -5.365   1.382  -0.173  1.00  0.00     0.197 C 
ATOM     25  H62 UNL     1      -8.109   0.194  -1.681  1.00  0.00     0.157 HD
ATOM     26  H61 UNL     1      -7.732   1.823  -1.189  1.00  0.00     0.157 HD
ENDBRANCH  16  17
ENDBRANCH  15  16
ENDBRANCH  13  15
ENDBRANCH   6  13
BRANCH   9  27
HETATM   27  N8  UNL     1       2.866   1.813  -0.741  1.00  0.00    -0.190 N 
ATOM     28  H8  UNL     1       2.424   2.670  -1.075  1.00  0.00     0.184 HD
BRANCH  27  29
HETATM   29  C13 UNL     1       4.221   1.674  -1.015  1.00  0.00     0.064 A 
HETATM   30  C14 UNL     1       5.151   1.788  -0.013  1.00  0.00     0.033 A 
HETATM   31  C15 UNL     1       6.506   1.646  -0.314  1.00  0.00     0.019 A 
HETATM   32  C16 UNL     1       6.910   1.393  -1.607  1.00  0.00     0.088 A 
HETATM   33  N9  UNL     1       5.962   1.289  -2.554  1.00  0.00    -0.373 N 
HETATM   34  C17 UNL     1       4.656   1.422  -2.291  1.00  0.00     0.117 A 
ATOM     35  H9  UNL     1       6.250   1.101  -3.514  1.00  0.00     0.164 HD
ENDBRANCH  27  29
ENDBRANCH   9  27
BRANCH   1  36
HETATM   36  C2  UNL     1       3.104  -2.915   1.663  1.00  0.00     0.146 C 
HETATM   37  C1  UNL     1       3.168  -3.787   0.411  1.00  0.00     0.028 C 
ENDBRANCH   1  36
TORSDOF 7
