REMARK  5 active torsions:
REMARK  status: ('A' for Active; 'I' for Inactive)
REMARK    1  A    between atoms: O1_2  and  C2_3 
REMARK    2  A    between atoms: C4_5  and  C5_6 
REMARK    3  A    between atoms: C8_10  and  C9_11 
REMARK    4  A    between atoms: C20_24  and  O2_25 
REMARK    5  A    between atoms: C22_27  and  O3_28 
ROOT
HETATM    1  C5  UNL     1       0.869  -0.813   0.821  1.00  0.00     0.022 C 
HETATM    2  C6  UNL     1       0.006  -0.054   0.202  1.00  0.00    -0.011 C 
HETATM    3  C7  UNL     1      -1.471  -0.316   0.352  1.00  0.00     0.042 A 
HETATM    4  S1  UNL     1      -2.674  -1.460   0.745  1.00  0.00    -0.089 SA
HETATM    5  C8  UNL     1      -4.059  -0.482   0.531  1.00  0.00     0.017 A 
HETATM    6  C13 UNL     1      -3.531   0.724   0.155  1.00  0.00     0.088 A 
HETATM    7  N1  UNL     1      -4.461   1.800  -0.109  1.00  0.00    -0.099 NA
HETATM    8  C14 UNL     1      -2.188   0.793   0.067  1.00  0.00     0.074 A 
HETATM    9  N2  UNL     1      -1.189   1.784  -0.272  1.00  0.00    -0.369 N 
HETATM   10  C15 UNL     1      -1.266   3.219  -0.213  1.00  0.00     0.151 C 
HETATM   11  C16 UNL     1       0.016   1.049  -0.726  1.00  0.00     0.054 C 
HETATM   12  C17 UNL     1      -0.281   0.504  -2.131  1.00  0.00     0.044 C 
HETATM   13  C18 UNL     1       1.139   1.983  -0.818  1.00  0.00     0.044 C 
ENDROOT
BRANCH   1  14
HETATM   14  C4  UNL     1       2.293  -0.755   0.834  1.00  0.00    -0.030 A 
HETATM   15  C3  UNL     1       3.019   0.284   1.309  1.00  0.00     0.051 A 
HETATM   16  C2  UNL     1       4.396   0.283   1.263  1.00  0.00     0.105 A 
HETATM   17  C22 UNL     1       5.029  -0.817   0.715  1.00  0.00     0.135 A 
HETATM   18  C20 UNL     1       4.342  -1.904   0.218  1.00  0.00     0.105 A 
HETATM   19  C19 UNL     1       2.976  -1.846   0.290  1.00  0.00     0.051 A 
BRANCH  16  20
HETATM   20  O1  UNL     1       5.152   1.366   1.757  1.00  0.00    -0.353 OA
HETATM   21  C1  UNL     1       4.425   2.449   2.299  1.00  0.00     0.210 C 
ENDBRANCH  16  20
BRANCH  17  22
HETATM   22  O3  UNL     1       6.434  -0.769   0.693  1.00  0.00    -0.351 OA
HETATM   23  C23 UNL     1       7.038  -0.203  -0.451  1.00  0.00     0.210 C 
ENDBRANCH  17  22
BRANCH  18  24
HETATM   24  O2  UNL     1       5.072  -2.949  -0.305  1.00  0.00    -0.353 OA
HETATM   25  C21 UNL     1       4.545  -4.119  -0.848  1.00  0.00     0.210 C 
ENDBRANCH  18  24
ENDBRANCH   1  14
BRANCH   5  26
HETATM   26  C9  UNL     1      -5.459  -0.933   0.732  1.00  0.00    -0.016 C 
HETATM   27  C10 UNL     1      -6.166  -0.131   1.799  1.00  0.00     0.020 C 
HETATM   28  C11 UNL     1      -5.506  -2.412   1.076  1.00  0.00     0.020 C 
HETATM   29  C12 UNL     1      -6.190  -0.738  -0.580  1.00  0.00     0.020 C 
ENDBRANCH   5  26
TORSDOF 5
