REMARK  16 active torsions:
REMARK  status: ('A' for Active; 'I' for Inactive)
REMARK    1  A    between atoms: C3_3  and  C4_4 
REMARK    2  A    between atoms: C3_3  and  C31_39 
REMARK    3  A    between atoms: C4_4  and  O2_6 
REMARK    4  A    between atoms: O2_6  and  C5_7 
REMARK    5  A    between atoms: C6_8  and  O3_9 
REMARK    6  A    between atoms: C8_12  and  C10_14 
REMARK    7  A    between atoms: C11_15  and  C12_16 
REMARK    8  A    between atoms: C14_18  and  C15_19 
REMARK    9  A    between atoms: C15_19  and  C16_20 
REMARK   10  A    between atoms: C16_20  and  C17_21 
REMARK   11  A    between atoms: C17_21  and  O5_23 
REMARK   12  A    between atoms: O5_23  and  C18_24 
REMARK   13  A    between atoms: C18_24  and  C19_25 
REMARK   14  A    between atoms: C27_33  and  O6_35 
REMARK   15  A    between atoms: O6_35  and  C29_36 
REMARK   16  A    between atoms: C31_39  and  O8_42 
ROOT
HETATM    1  C5  UNL     1      -4.556   1.614  -1.439  1.00  0.00     0.196 C 
HETATM    2  C6  UNL     1      -4.735   0.942  -2.799  1.00  0.00     0.151 C 
HETATM    3  C7  UNL     1      -3.345   0.312  -3.013  1.00  0.00     0.050 C 
HETATM    4  C8  UNL     1      -2.504   1.541  -2.719  1.00  0.00     0.010 C 
HETATM    5  C9  UNL     1      -2.758   2.511  -3.879  1.00  0.00     0.023 C 
HETATM    6  C27 UNL     1      -3.152   2.101  -1.444  1.00  0.00     0.106 C 
HETATM    7  C28 UNL     1      -2.459   1.539  -0.221  1.00  0.00     0.050 C 
ENDROOT
BRANCH   4   8
HETATM    8  C10 UNL     1      -1.085   1.297  -2.629  1.00  0.00    -0.014 C 
HETATM    9  C11 UNL     1      -0.573   0.174  -2.195  1.00  0.00     0.003 C 
BRANCH   9  10
HETATM   10  C12 UNL     1       0.889  -0.052  -2.113  1.00  0.00    -0.066 C 
HETATM   11  C13 UNL     1       1.728   1.077  -2.552  1.00  0.00     0.048 C 
HETATM   12  C14 UNL     1       1.375  -1.174  -1.680  1.00  0.00    -0.020 C 
BRANCH  12  13
HETATM   13  C15 UNL     1       2.784  -1.522  -1.553  1.00  0.00     0.037 C 
BRANCH  13  14
HETATM   14  C16 UNL     1       3.200  -1.763  -0.106  1.00  0.00     0.115 C 
BRANCH  14  15
HETATM   15  C17 UNL     1       4.662  -2.121  -0.045  1.00  0.00     0.259 C 
HETATM   16  O4  UNL     1       4.969  -3.320   0.083  1.00  0.00    -0.265 OA
BRANCH  15  17
HETATM   17  O5  UNL     1       5.639  -1.196  -0.125  1.00  0.00    -0.320 OA
BRANCH  17  18
HETATM   18  C18 UNL     1       6.984  -1.202  -0.085  1.00  0.00     0.192 C 
BRANCH  18  19
HETATM   19  C19 UNL     1       7.772  -1.442   1.144  1.00  0.00    -0.004 C 
HETATM   20  C20 UNL     1       9.264  -1.336   0.639  1.00  0.00     0.021 C 
HETATM   21  C21 UNL     1       7.704  -0.254   2.080  1.00  0.00    -0.013 C 
HETATM   22  C22 UNL     1       6.963  -0.292   3.160  1.00  0.00    -0.087 C 
HETATM   23  C23 UNL     1       6.899   0.907   4.097  1.00  0.00     0.043 C 
HETATM   24  C24 UNL     1       6.180  -1.513   3.462  1.00  0.00     0.033 C 
HETATM   25  C25 UNL     1       6.810  -2.793   3.056  1.00  0.00     0.005 C 
HETATM   26  C26 UNL     1       7.712  -2.725   1.853  1.00  0.00     0.015 C 
ENDBRANCH  18  19
ENDBRANCH  17  18
ENDBRANCH  15  17
ENDBRANCH  14  15
ENDBRANCH  13  14
ENDBRANCH  12  13
ENDBRANCH   9  10
ENDBRANCH   4   8
BRANCH   6  27
HETATM   27  O6  UNL     1      -3.033   3.485  -1.546  1.00  0.00    -0.307 OA
BRANCH  27  28
HETATM   28  C29 UNL     1      -3.510   4.439  -0.690  1.00  0.00     0.255 C 
HETATM   29  C30 UNL     1      -3.260   5.869  -1.011  1.00  0.00     0.126 C 
HETATM   30  O7  UNL     1      -4.136   4.049   0.322  1.00  0.00    -0.266 OA
ENDBRANCH  27  28
ENDBRANCH   6  27
BRANCH   2  31
HETATM   31  O3  UNL     1      -5.737  -0.001  -2.795  1.00  0.00    -0.393 OA
ATOM     32  H3  UNL     1      -5.848  -0.419  -3.641  1.00  0.00     0.210 HD
ENDBRANCH   2  31
BRANCH   1  33
HETATM   33  O2  UNL     1      -4.799   0.573  -0.475  1.00  0.00    -0.306 OA
BRANCH  33  34
HETATM   34  C4  UNL     1      -5.877   0.714   0.363  1.00  0.00     0.292 C 
HETATM   35  O1  UNL     1      -6.590   1.737   0.253  1.00  0.00    -0.259 OA
BRANCH  34  36
HETATM   36  C3  UNL     1      -6.262  -0.280   1.402  1.00  0.00     0.046 C 
HETATM   37  C2  UNL     1      -7.318   0.008   2.108  1.00  0.00    -0.015 C 
HETATM   38  C1  UNL     1      -7.974  -0.723   3.188  1.00  0.00     0.037 C 
BRANCH  36  39
HETATM   39  C31 UNL     1      -5.403  -1.452   1.503  1.00  0.00     0.083 C 
HETATM   40  C32 UNL     1      -5.329  -2.194   0.151  1.00  0.00     0.051 C 
HETATM   41  C33 UNL     1      -5.712  -2.462   2.551  1.00  0.00     0.051 C 
BRANCH  39  42
HETATM   42  O8  UNL     1      -4.097  -0.975   1.798  1.00  0.00    -0.386 OA
ATOM     43  H8  UNL     1      -3.537  -1.739   1.864  1.00  0.00     0.211 HD
ENDBRANCH  39  42
ENDBRANCH  36  39
ENDBRANCH  34  36
ENDBRANCH  33  34
ENDBRANCH   1  33
TORSDOF 16
