REMARK  11 active torsions:
REMARK  status: ('A' for Active; 'I' for Inactive)
REMARK    1  A    between atoms: C2_2  and  O1_3 
REMARK    2  A    between atoms: O1_3  and  C3_4 
REMARK    3  A    between atoms: C4_5  and  C5_6 
REMARK    4  A    between atoms: C5_6  and  C6_7 
REMARK    5  A    between atoms: C10_11  and  O2_13 
REMARK    6  A    between atoms: C15_19  and  C16_20 
REMARK    7  A    between atoms: C16_20  and  O4_21 
REMARK    8  A    between atoms: O4_21  and  C17_22 
REMARK    9  A    between atoms: C21_28  and  C22_29 
REMARK   10  A    between atoms: C21_28  and  C28_35 
REMARK   11  A    between atoms: C23_30  and  C24_31 
ROOT
HETATM    1  C3  UNL     1      -0.512   0.163  -1.171  1.00  0.00     0.161 C 
HETATM    2  C4  UNL     1      -1.585  -0.439  -0.264  1.00  0.00     0.055 C 
HETATM    3  C10 UNL     1      -1.591  -1.896  -0.270  1.00  0.00     0.065 C 
HETATM    4  C11 UNL     1      -2.826  -2.690  -0.208  1.00  0.00     0.046 C 
HETATM    5  C12 UNL     1      -0.754  -2.312   0.989  1.00  0.00     0.083 C 
HETATM    6  C13 UNL     1       0.656  -2.195   0.568  1.00  0.00     0.026 A 
HETATM    7  C14 UNL     1       1.308  -1.205  -0.088  1.00  0.00     0.086 A 
HETATM    8  O3  UNL     1       2.577  -1.381  -0.335  1.00  0.00    -0.315 OA
HETATM    9  C15 UNL     1       3.249  -2.449   0.011  1.00  0.00     0.081 A 
HETATM   10  C19 UNL     1       2.641  -3.464   0.668  1.00  0.00     0.090 A 
HETATM   11  C20 UNL     1       1.304  -3.372   0.974  1.00  0.00     0.183 A 
HETATM   12  O6  UNL     1       0.680  -4.263   1.574  1.00  0.00    -0.288 OA
HETATM   13  C21 UNL     1       0.868   0.114  -0.616  1.00  0.00     0.114 C 
ENDROOT
BRANCH  13  14
HETATM   14  C22 UNL     1       1.125   1.090   0.458  1.00  0.00     0.000 C 
HETATM   15  C23 UNL     1       1.112   2.530   0.380  1.00  0.00    -0.002 C 
BRANCH  15  16
HETATM   16  C24 UNL     1      -0.007   3.341  -0.026  1.00  0.00     0.002 C 
HETATM   17  C25 UNL     1      -0.628   4.152   0.811  1.00  0.00    -0.088 C 
HETATM   18  C26 UNL     1      -0.179   4.247   2.219  1.00  0.00     0.043 C 
HETATM   19  C27 UNL     1      -1.767   4.984   0.356  1.00  0.00     0.043 C 
ENDBRANCH  15  16
ENDBRANCH  13  14
BRANCH  13  20
HETATM   20  C28 UNL     1       1.787   0.340  -1.801  1.00  0.00     0.144 C 
HETATM   21  C29 UNL     1       1.879  -0.587  -2.939  1.00  0.00     0.092 C 
HETATM   22  O7  UNL     1       2.480   1.315  -1.828  1.00  0.00    -0.297 OA
ENDBRANCH  13  20
BRANCH   1  23
HETATM   23  O1  UNL     1      -0.617  -0.255  -2.490  1.00  0.00    -0.356 OA
BRANCH  23  24
HETATM   24  C2  UNL     1      -1.589  -0.058  -3.422  1.00  0.00     0.125 C 
HETATM   25  C1  UNL     1      -2.094  -0.932  -4.271  1.00  0.00     0.037 C 
ENDBRANCH  23  24
ENDBRANCH   1  23
BRANCH   2  26
HETATM   26  C5  UNL     1      -2.833   0.346  -0.400  1.00  0.00     0.037 C 
BRANCH  26  27
HETATM   27  C6  UNL     1      -4.001  -0.018   0.402  1.00  0.00    -0.024 C 
HETATM   28  C7  UNL     1      -4.462   0.729   1.398  1.00  0.00    -0.091 C 
HETATM   29  C8  UNL     1      -3.781   1.995   1.735  1.00  0.00     0.042 C 
HETATM   30  C9  UNL     1      -5.649   0.287   2.157  1.00  0.00     0.042 C 
ENDBRANCH  26  27
ENDBRANCH   2  26
BRANCH   3  31
HETATM   31  O2  UNL     1      -0.829  -2.418  -1.353  1.00  0.00    -0.389 OA
ATOM     32  H2  UNL     1      -0.833  -3.368  -1.357  1.00  0.00     0.210 HD
ENDBRANCH   3  31
BRANCH   9  33
HETATM   33  C16 UNL     1       4.692  -2.512  -0.337  1.00  0.00     0.243 C 
BRANCH  33  34
HETATM   34  O4  UNL     1       5.500  -1.974   0.691  1.00  0.00    -0.315 OA
BRANCH  34  35
HETATM   35  C17 UNL     1       6.866  -1.935   0.571  1.00  0.00     0.255 C 
HETATM   36  C18 UNL     1       7.750  -1.371   1.645  1.00  0.00     0.126 C 
HETATM   37  O5  UNL     1       7.373  -2.402  -0.501  1.00  0.00    -0.266 OA
ENDBRANCH  34  35
ENDBRANCH  33  34
ENDBRANCH   9  33
TORSDOF 11
