REMARK  7 active torsions:
REMARK  status: ('A' for Active; 'I' for Inactive)
REMARK    1  A    between atoms: C5_7  and  S2_8 
REMARK    2  A    between atoms: S2_8  and  N1_11 
REMARK    3  A    between atoms: N1_11  and  C6_13 
REMARK    4  A    between atoms: C12_22  and  O3_23 
REMARK    5  A    between atoms: O3_23  and  C13_24 
REMARK    6  A    between atoms: C16_28  and  C17_29 
REMARK    7  A    between atoms: C17_29  and  O4_30 
ROOT
HETATM    1  C1  UNL     1       4.331  -2.655   1.279  1.00  0.00     0.018 C 
HETATM    2  C2  UNL     1       3.161  -2.888   1.117  1.00  0.00    -0.067 C 
HETATM    3  C3  UNL     1       1.743  -3.187   0.913  1.00  0.00     0.094 A 
HETATM    4  S1  UNL     1       0.728  -4.221   1.791  1.00  0.00    -0.064 SA
HETATM    5  C4  UNL     1      -0.710  -4.009   0.922  1.00  0.00     0.102 A 
HETATM    6 CL1  UNL     1      -2.304  -4.749   1.187  1.00  0.00    -0.074 Cl
HETATM    7  C5  UNL     1      -0.367  -3.113  -0.065  1.00  0.00     0.144 A 
HETATM    8  C12 UNL     1       0.923  -2.681  -0.067  1.00  0.00     0.127 A 
ENDROOT
BRANCH   8   9
HETATM    9  O3  UNL     1       1.438  -1.764  -1.020  1.00  0.00    -0.305 OA
BRANCH   9  10
HETATM   10  C13 UNL     1       1.735  -0.458  -0.770  1.00  0.00     0.099 A 
HETATM   11  C14 UNL     1       1.626   0.154   0.467  1.00  0.00     0.063 A 
HETATM   12  C15 UNL     1       1.948   1.477   0.656  1.00  0.00     0.045 A 
HETATM   13 CL2  UNL     1       1.848   2.247   2.227  1.00  0.00    -0.084 Cl
HETATM   14  C16 UNL     1       2.391   2.240  -0.397  1.00  0.00    -0.011 A 
HETATM   15  C18 UNL     1       2.499   1.635  -1.626  1.00  0.00     0.037 A 
HETATM   16  C19 UNL     1       2.187   0.320  -1.840  1.00  0.00     0.068 A 
HETATM   17 CL3  UNL     1       2.341  -0.416  -3.436  1.00  0.00    -0.081 Cl
BRANCH  14  18
HETATM   18  C17 UNL     1       2.740   3.671  -0.198  1.00  0.00     0.204 C 
BRANCH  18  19
HETATM   19  O4  UNL     1       3.165   4.260  -1.382  1.00  0.00    -0.396 OA
ATOM     20  H4  UNL     1       3.388   5.175  -1.255  1.00  0.00     0.209 HD
ENDBRANCH  18  19
ENDBRANCH  14  18
ENDBRANCH   9  10
ENDBRANCH   8   9
BRANCH   7  21
HETATM   21  S2  UNL     1      -1.544  -2.658  -1.339  1.00  0.00     0.268 S 
HETATM   22  O1  UNL     1      -2.218  -3.947  -1.822  1.00  0.00    -0.200 OA
HETATM   23  O2  UNL     1      -0.784  -2.161  -2.550  1.00  0.00    -0.200 OA
BRANCH  21  24
HETATM   24  N1  UNL     1      -2.692  -1.575  -0.817  1.00  0.00    -0.276 N 
ATOM     25  H1  UNL     1      -3.660  -1.895  -0.854  1.00  0.00     0.179 HD
BRANCH  24  26
HETATM   26  C6  UNL     1      -2.492  -0.277  -0.333  1.00  0.00     0.090 A 
HETATM   27  C7  UNL     1      -2.468   0.889  -1.113  1.00  0.00     0.051 A 
HETATM   28  C8  UNL     1      -2.621   0.973  -2.602  1.00  0.00     0.072 C 
HETATM   29  N2  UNL     1      -2.281   1.912  -0.269  1.00  0.00    -0.301 N 
HETATM   30  N3  UNL     1      -2.182   1.515   0.985  1.00  0.00    -0.299 N 
ATOM     31  H2  UNL     1      -2.222   2.887  -0.563  1.00  0.00     0.187 HD
HETATM   32  C9  UNL     1      -1.996   2.356   2.175  1.00  0.00     0.177 C 
HETATM   33  C10 UNL     1      -2.309   0.173   0.955  1.00  0.00     0.053 A 
HETATM   34  C11 UNL     1      -2.257  -0.681   2.180  1.00  0.00     0.072 C 
ENDBRANCH  24  26
ENDBRANCH  21  24
ENDBRANCH   7  21
TORSDOF 7
