REMARK  13 active torsions:
REMARK  status: ('A' for Active; 'I' for Inactive)
REMARK    1  A    between atoms: C2_2  and  C3_3 
REMARK    2  A    between atoms: C5_5  and  O1_6 
REMARK    3  A    between atoms: C16_20  and  N1_21 
REMARK       I    between atoms: N1_21  and  C17_23 
REMARK    4  A    between atoms: C17_23  and  C18_25 
REMARK    5  A    between atoms: C18_25  and  C19_26 
REMARK    6  A    between atoms: C19_26  and  C20_27 
REMARK    7  A    between atoms: C20_27  and  C21_28 
REMARK    8  A    between atoms: C21_28  and  C22_29 
REMARK    9  A    between atoms: C22_29  and  C23_30 
REMARK   10  A    between atoms: C23_30  and  C24_31 
REMARK   11  A    between atoms: C24_31  and  C25_32 
REMARK   12  A    between atoms: C25_32  and  N2_33 
REMARK   13  A    between atoms: C30_38  and  C31_39 
ROOT
HETATM    1  C3  UNL     1      -3.468   0.458   2.968  1.00  0.00    -0.020 C 
HETATM    2  C4  UNL     1      -4.318   1.202   2.073  1.00  0.00    -0.038 C 
HETATM    3  C5  UNL     1      -5.790   0.933   2.032  1.00  0.00     0.180 C 
HETATM    4  C6  UNL     1      -6.439   0.752   0.753  1.00  0.00     0.191 A 
HETATM    5  O2  UNL     1      -6.473  -0.181  -0.164  1.00  0.00    -0.365 OA
HETATM    6  C7  UNL     1      -5.938   0.920  -0.529  1.00  0.00     0.108 A 
HETATM    7  C8  UNL     1      -5.997   2.398  -0.612  1.00  0.00     0.106 C 
HETATM    8  C9  UNL     1      -5.941   2.759  -2.045  1.00  0.00     0.157 C 
HETATM    9  O3  UNL     1      -5.719   3.966  -2.336  1.00  0.00    -0.293 OA
HETATM   10  C10 UNL     1      -6.109   1.909  -3.230  1.00  0.00     0.047 C 
HETATM   11  C11 UNL     1      -5.666   0.649  -3.338  1.00  0.00    -0.014 C 
HETATM   12  C12 UNL     1      -4.915  -0.237  -2.373  1.00  0.00    -0.021 C 
HETATM   13  C13 UNL     1      -5.632  -1.511  -2.150  1.00  0.00     0.019 C 
HETATM   14  C14 UNL     1      -3.616  -0.560  -3.142  1.00  0.00     0.019 C 
HETATM   15  C15 UNL     1      -4.683   0.652  -1.214  1.00  0.00     0.059 C 
HETATM   16  C16 UNL     1      -3.593   0.545  -0.252  1.00  0.00     0.109 C 
HETATM   17  C32 UNL     1      -3.917   1.677   0.721  1.00  0.00     0.032 A 
HETATM   18  C33 UNL     1      -2.983   2.812   0.568  1.00  0.00    -0.013 A 
HETATM   19  C34 UNL     1      -3.870   3.700   0.176  1.00  0.00    -0.022 A 
HETATM   20  C35 UNL     1      -4.896   2.730   0.282  1.00  0.00     0.041 A 
ENDROOT
BRANCH  16  21
HETATM   21  N1  UNL     1      -2.282   0.862  -0.851  1.00  0.00    -0.355 N 
HETATM   22  C17 UNL     1      -1.113   0.087  -0.676  1.00  0.00     0.217 C 
HETATM   23  O4  UNL     1      -1.175  -0.937   0.023  1.00  0.00    -0.274 OA
ATOM     24  H1  UNL     1      -2.215   1.698  -1.431  1.00  0.00     0.162 HD
BRANCH  22  25
HETATM   25  C18 UNL     1       0.170   0.450  -1.285  1.00  0.00     0.103 C 
BRANCH  25  26
HETATM   26  C19 UNL     1       1.357  -0.333  -0.930  1.00  0.00     0.009 C 
BRANCH  26  27
HETATM   27  C20 UNL     1       1.295  -1.756  -1.322  1.00  0.00     0.000 C 
BRANCH  27  28
HETATM   28  C21 UNL     1       2.558  -2.469  -0.837  1.00  0.00     0.000 C 
BRANCH  28  29
HETATM   29  C22 UNL     1       3.787  -1.900  -1.459  1.00  0.00     0.000 C 
BRANCH  29  30
HETATM   30  C23 UNL     1       5.037  -2.595  -0.980  1.00  0.00     0.002 C 
BRANCH  30  31
HETATM   31  C24 UNL     1       5.182  -2.421   0.508  1.00  0.00     0.030 C 
BRANCH  31  32
HETATM   32  C25 UNL     1       5.291  -0.949   0.817  1.00  0.00     0.273 C 
BRANCH  32  33
HETATM   33  N2  UNL     1       6.439  -0.393   0.142  1.00  0.00     0.103 N 
HETATM   34  C26 UNL     1       6.469   1.062   0.264  1.00  0.00     0.274 C 
HETATM   35  C27 UNL     1       7.776   1.429   0.915  1.00  0.00     0.037 C 
HETATM   36  C28 UNL     1       8.061   0.190   1.737  1.00  0.00     0.027 C 
HETATM   37  C29 UNL     1       9.503   0.100   2.133  1.00  0.00     0.012 C 
HETATM   38  C30 UNL     1       7.641  -0.896   0.776  1.00  0.00     0.326 C 
BRANCH  38  39
HETATM   39  C31 UNL     1       8.704  -1.122  -0.242  1.00  0.00     0.208 C 
HETATM   40  O5  UNL     1       9.825  -1.609   0.043  1.00  0.00    -0.646 OA
HETATM   41  O6  UNL     1       8.464  -0.788  -1.568  1.00  0.00    -0.646 OA
ENDBRANCH  38  39
ENDBRANCH  32  33
ENDBRANCH  31  32
ENDBRANCH  30  31
ENDBRANCH  29  30
ENDBRANCH  28  29
ENDBRANCH  27  28
ENDBRANCH  26  27
ENDBRANCH  25  26
ENDBRANCH  22  25
ENDBRANCH  16  21
BRANCH   1  42
HETATM   42  C2  UNL     1      -3.309  -0.997   3.027  1.00  0.00     0.023 C 
HETATM   43  C1  UNL     1      -2.288  -1.411   4.117  1.00  0.00     0.009 C 
ENDBRANCH   1  42
BRANCH   3  44
HETATM   44  O1  UNL     1      -6.160  -0.154   2.874  1.00  0.00    -0.388 OA
ATOM     45  H1  UNL     1      -7.094  -0.325   2.848  1.00  0.00     0.210 HD
ENDBRANCH   3  44
TORSDOF 13
