REMARK  8 active torsions:
REMARK  status: ('A' for Active; 'I' for Inactive)
REMARK    1  A    between atoms: C2_2  and  C3_3 
REMARK    2  A    between atoms: C3_3  and  C4_4 
REMARK    3  A    between atoms: C7_11  and  C8_12 
REMARK    4  A    between atoms: C8_12  and  N3_13 
REMARK    5  A    between atoms: C11_16  and  N4_17 
REMARK    6  A    between atoms: N4_17  and  S1_19 
REMARK    7  A    between atoms: S1_19  and  N5_22 
REMARK    8  A    between atoms: N5_22  and  C12_24 
ROOT
HETATM    1  N3  UNL     1      -2.745   1.365  -0.978  1.00  0.00    -0.367 N 
HETATM    2  C9  UNL     1      -2.506  -0.070  -1.239  1.00  0.00     0.130 C 
HETATM    3  C10 UNL     1      -1.473  -0.565  -0.295  1.00  0.00     0.051 C 
HETATM    4  C11 UNL     1      -1.069   0.707   0.493  1.00  0.00     0.134 C 
HETATM    5  C22 UNL     1      -1.668   1.833  -0.283  1.00  0.00     0.089 C 
ENDROOT
BRANCH   4   6
HETATM    6  N4  UNL     1       0.317   0.890   0.709  1.00  0.00    -0.293 N 
ATOM      7  H4  UNL     1       0.605   1.509   1.467  1.00  0.00     0.174 HD
BRANCH   6   8
HETATM    8  S1  UNL     1       1.506   0.159  -0.195  1.00  0.00     0.316 S 
HETATM    9  O1  UNL     1       1.523  -1.273  -0.411  1.00  0.00    -0.183 OA
HETATM   10  O2  UNL     1       1.490   0.769  -1.644  1.00  0.00    -0.183 OA
BRANCH   8  11
HETATM   11  N5  UNL     1       2.984   0.835   0.424  1.00  0.00    -0.293 N 
ATOM     12  H5  UNL     1       3.013   1.720   0.930  1.00  0.00     0.174 HD
BRANCH  11  13
HETATM   13  C12 UNL     1       4.139   0.065   0.173  1.00  0.00     0.043 C 
HETATM   14  C13 UNL     1       5.294   0.947   0.699  1.00  0.00     0.036 C 
HETATM   15  C14 UNL     1       6.625   0.319   0.495  1.00  0.00    -0.012 C 
HETATM   16  C15 UNL     1       6.651  -0.998   1.242  1.00  0.00     0.009 C 
HETATM   17  C19 UNL     1       6.878   0.148  -0.978  1.00  0.00     0.009 C 
HETATM   18  C16 UNL     1       5.581  -1.867   0.661  1.00  0.00    -0.012 C 
HETATM   19  C17 UNL     1       5.832  -2.045  -0.800  1.00  0.00     0.009 C 
HETATM   20  C21 UNL     1       4.241  -1.204   0.948  1.00  0.00     0.036 C 
HETATM   21  C18 UNL     1       5.756  -0.707  -1.527  1.00  0.00    -0.012 C 
HETATM   22  C20 UNL     1       4.417  -0.095  -1.313  1.00  0.00     0.036 C 
ENDBRANCH  11  13
ENDBRANCH   8  11
ENDBRANCH   6   8
ENDBRANCH   4   6
BRANCH   1  23
HETATM   23  C8  UNL     1      -4.105   1.581  -0.832  1.00  0.00     0.105 C 
BRANCH  23  24
HETATM   24  C7  UNL     1      -4.778   1.142   0.395  1.00  0.00     0.027 A 
HETATM   25  C4  UNL     1      -5.967   0.370   0.374  1.00  0.00     0.039 A 
HETATM   26  N1  UNL     1      -6.357   0.300   1.636  1.00  0.00    -0.304 N 
HETATM   27  N2  UNL     1      -5.549   0.946   2.444  1.00  0.00    -0.304 N 
ATOM     28  H1  UNL     1      -7.191  -0.199   1.946  1.00  0.00     0.186 HD
HETATM   29  C5  UNL     1      -4.540   1.499   1.694  1.00  0.00     0.035 A 
ATOM     30  H2  UNL     1      -5.653   1.024   3.456  1.00  0.00     0.186 HD
HETATM   31  C6  UNL     1      -3.647   2.504   2.330  1.00  0.00     0.070 C 
BRANCH  25  32
HETATM   32  C3  UNL     1      -6.574  -0.183  -0.854  1.00  0.00     0.059 C 
BRANCH  32  33
HETATM   33  C2  UNL     1      -6.479  -1.661  -1.014  1.00  0.00     0.002 C 
HETATM   34  C1  UNL     1      -7.362  -2.387  -0.012  1.00  0.00     0.005 C 
ENDBRANCH  32  33
ENDBRANCH  25  32
ENDBRANCH  23  24
ENDBRANCH   1  23
TORSDOF 8
