REMARK  5 active torsions:
REMARK  status: ('A' for Active; 'I' for Inactive)
REMARK    1  A    between atoms: C2_2  and  C3_3 
REMARK    2  A    between atoms: C2_2  and  N5_19 
REMARK    3  A    between atoms: N3_8  and  C4_9 
REMARK    4  A    between atoms: C8_13  and  N4_14 
REMARK    5  A    between atoms: N4_14  and  C9_15 
ROOT
HETATM    1  C3  UNL     1       0.125  -0.887   1.292  1.00  0.00     0.108 A 
HETATM    2  N1  UNL     1       0.202  -0.652   2.625  1.00  0.00    -0.283 N 
ATOM      3  H1  UNL     1       0.838  -1.122   3.269  1.00  0.00     0.188 HD
HETATM    4  N2  UNL     1      -0.669   0.275   2.961  1.00  0.00    -0.237 N 
ATOM      5  H2  UNL     1      -0.800   0.624   3.910  1.00  0.00     0.208 HD
HETATM    6  N3  UNL     1      -1.346   0.692   1.923  1.00  0.00    -0.240 N 
HETATM    7  C8  UNL     1      -0.858  -0.036   0.836  1.00  0.00     0.218 A 
ENDROOT
BRANCH   1   8
HETATM    8  C2  UNL     1       0.946  -1.855   0.546  1.00  0.00     0.136 C 
HETATM    9  C1  UNL     1       1.837  -2.668   1.473  1.00  0.00     0.039 C 
BRANCH   8  10
HETATM   10  N5  UNL     1       1.844  -1.197  -0.374  1.00  0.00    -0.383 N 
HETATM   11  C13 UNL     1       2.595  -2.073  -1.188  1.00  0.00     0.122 C 
HETATM   12  C14 UNL     1       3.616  -1.465  -2.075  1.00  0.00     0.020 C 
HETATM   13  C15 UNL     1       4.184  -0.162  -1.617  1.00  0.00     0.007 C 
HETATM   14  C16 UNL     1       3.889   0.163  -0.180  1.00  0.00     0.044 C 
HETATM   15  C17 UNL     1       2.420  -0.004   0.051  1.00  0.00     0.059 C 
ENDBRANCH   8  10
ENDBRANCH   1   8
BRANCH   7  16
HETATM   16  N4  UNL     1      -1.306   0.135  -0.278  1.00  0.00    -0.417 NA
BRANCH  16  17
HETATM   17  C9  UNL     1      -1.501   0.008  -1.603  1.00  0.00     0.085 C 
HETATM   18  C10 UNL     1      -1.477  -1.419  -2.191  1.00  0.00     0.053 C 
HETATM   19  C11 UNL     1      -0.537   0.823  -2.499  1.00  0.00     0.053 C 
HETATM   20  C12 UNL     1      -2.870   0.540  -2.114  1.00  0.00     0.053 C 
ENDBRANCH  16  17
ENDBRANCH   7  16
BRANCH   6  21
HETATM   21  C4  UNL     1      -2.370   1.688   1.920  1.00  0.00     0.047 C 
HETATM   22  C5  UNL     1      -3.726   1.031   1.654  1.00  0.00     0.040 C 
HETATM   23  C6  UNL     1      -2.471   2.290   3.309  1.00  0.00     0.040 C 
HETATM   24  C7  UNL     1      -2.148   2.813   0.966  1.00  0.00     0.040 C 
ENDBRANCH   6  21
TORSDOF 5
