REMARK  4 active torsions:
REMARK  status: ('A' for Active; 'I' for Inactive)
REMARK    1  A    between atoms: C2_2  and  C3_3 
REMARK    2  A    between atoms: C6_6  and  N1_7 
REMARK       I    between atoms: N1_7  and  C7_8 
REMARK    3  A    between atoms: C7_8  and  C8_10 
REMARK    4  A    between atoms: C10_14  and  N3_15 
ROOT
HETATM    1  C8  UNL     1      -0.899   0.068  -1.358  1.00  0.00     0.144 A 
HETATM    2  N2  UNL     1      -2.164  -0.256  -1.015  1.00  0.00    -0.345 N 
ATOM      3  H2  UNL     1      -2.507   0.175  -0.156  1.00  0.00     0.166 HD
HETATM    4  C9  UNL     1      -3.016  -1.044  -1.625  1.00  0.00     0.094 A 
HETATM    5  C10 UNL     1      -4.276  -1.202  -1.007  1.00  0.00     0.132 A 
HETATM    6  N4  UNL     1      -5.155  -2.018  -1.617  1.00  0.00    -0.350 N 
ATOM      7  H4  UNL     1      -6.063  -2.129  -1.166  1.00  0.00     0.166 HD
HETATM    8  C15 UNL     1      -4.966  -2.689  -2.736  1.00  0.00     0.091 A 
HETATM    9  C16 UNL     1      -3.734  -2.544  -3.354  1.00  0.00     0.038 A 
HETATM   10  C17 UNL     1      -2.774  -1.727  -2.796  1.00  0.00     0.038 A 
HETATM   11  S1  UNL     1      -1.221  -1.472  -3.431  1.00  0.00    -0.074 SA
HETATM   12  C18 UNL     1      -0.266  -0.395  -2.460  1.00  0.00     0.106 A 
HETATM   13  S2  UNL     1       1.255   0.015  -2.928  1.00  0.00    -0.070 SA
ENDROOT
BRANCH   1  14
HETATM   14  C7  UNL     1      -0.209   1.030  -0.450  1.00  0.00     0.340 C 
HETATM   15  N1  UNL     1       1.049   0.937   0.058  1.00  0.00    -0.404 NA
HETATM   16  O1  UNL     1      -0.991   2.018  -0.171  1.00  0.00    -0.250 OA
BRANCH  15  17
HETATM   17  C6  UNL     1       2.321   0.844   0.573  1.00  0.00     0.167 C 
HETATM   18  C5  UNL     1       2.769  -0.615   0.600  1.00  0.00     0.040 C 
HETATM   19  C4  UNL     1       4.244  -0.732   0.348  1.00  0.00     0.007 C 
HETATM   20  C3  UNL     1       4.929   0.317   1.206  1.00  0.00    -0.015 C 
HETATM   21  C20 UNL     1       4.687   1.649   0.530  1.00  0.00     0.007 C 
HETATM   22  C19 UNL     1       3.331   1.702  -0.158  1.00  0.00     0.040 C 
BRANCH  20  23
HETATM   23  C2  UNL     1       6.401  -0.064   1.219  1.00  0.00     0.000 C 
HETATM   24  C1  UNL     1       7.252   0.857   2.027  1.00  0.00     0.005 C 
ENDBRANCH  20  23
ENDBRANCH  15  17
ENDBRANCH   1  14
BRANCH   5  25
HETATM   25  N3  UNL     1      -4.567  -0.522   0.196  1.00  0.00    -0.361 N 
HETATM   26  C11 UNL     1      -4.701   0.899   0.219  1.00  0.00     0.150 C 
HETATM   27  C12 UNL     1      -6.082   1.237   0.753  1.00  0.00     0.187 C 
HETATM   28  O2  UNL     1      -6.567   0.247   1.582  1.00  0.00    -0.388 OA
HETATM   29  C13 UNL     1      -5.594  -0.388   2.336  1.00  0.00     0.187 C 
HETATM   30  C14 UNL     1      -4.714  -1.241   1.427  1.00  0.00     0.150 C 
ENDBRANCH   5  25
TORSDOF 4
