REMARK  1 active torsions:
REMARK  status: ('A' for Active; 'I' for Inactive)
REMARK    1  A    between atoms: C2_2  and  C3_3 
ROOT
HETATM    1  C3  UNL     1       0.047  -0.744  -0.039  1.00  0.00     0.324 C 
HETATM    2  N1  UNL     1      -0.150  -1.123   1.335  1.00  0.00    -0.142 NA
HETATM    3  S1  UNL     1      -0.790   0.369   2.084  1.00  0.00    -0.033 SA
HETATM    4  C4  UNL     1      -0.937   1.312   0.512  1.00  0.00     0.366 C 
HETATM    5  N2  UNL     1      -0.903   0.239  -0.422  1.00  0.00     0.114 N 
HETATM    6  C5  UNL     1      -2.223  -0.401  -0.412  1.00  0.00     0.313 C 
ENDROOT
BRANCH   1   7
HETATM    7  C2  UNL     1       1.462  -0.450  -0.401  1.00  0.00     0.049 C 
HETATM    8  C1  UNL     1       2.120   0.645   0.336  1.00  0.00     0.009 C 
ENDBRANCH   1   7
TORSDOF 1
