REMARK  11 active torsions:
REMARK  status: ('A' for Active; 'I' for Inactive)
REMARK    1  A    between atoms: N1_2  and  C2_4 
REMARK    2  A    between atoms: C3_9  and  N4_10 
REMARK    3  A    between atoms: N4_10  and  C4_12 
REMARK    4  A    between atoms: C4_12  and  C5_13 
REMARK    5  A    between atoms: C5_13  and  N5_14 
REMARK    6  A    between atoms: N5_14  and  C6_16 
REMARK    7  A    between atoms: C6_16  and  C7_17 
REMARK    8  A    between atoms: N6_18  and  N7_20 
REMARK    9  A    between atoms: N7_20  and  C8_22 
REMARK   10  A    between atoms: C8_22  and  C9_23 
REMARK   11  A    between atoms: C9_23  and  C10_24 
ROOT
HETATM    1  N5  UNL     1      -0.215  -1.379   0.594  1.00  0.00    -0.415 N 
ATOM      2  H5  UNL     1       0.555  -2.025   0.766  1.00  0.00     0.153 HD
ENDROOT
BRANCH   1   3
HETATM    3  C5  UNL     1      -1.312  -1.338   1.479  1.00  0.00     0.134 C 
BRANCH   3   4
HETATM    4  C4  UNL     1      -2.627  -1.835   0.975  1.00  0.00     0.157 C 
BRANCH   4   5
HETATM    5  N4  UNL     1      -3.187  -1.147  -0.129  1.00  0.00    -0.223 N 
ATOM      6  H4  UNL     1      -2.665  -1.170  -1.005  1.00  0.00     0.177 HD
BRANCH   5   7
HETATM    7  C3  UNL     1      -4.294  -0.497  -0.125  1.00  0.00     0.707 A 
HETATM    8  N3  UNL     1      -4.828   0.157  -1.171  1.00  0.00    -0.117 N 
HETATM    9  N2  UNL     1      -5.953   0.706  -0.791  1.00  0.00    -0.117 N 
ATOM     10  H3  UNL     1      -4.423   0.215  -2.105  1.00  0.00     0.206 HD
HETATM   11  C2  UNL     1      -6.141   0.405   0.497  1.00  0.00     0.707 A 
ATOM     12  H2  UNL     1      -6.576   1.265  -1.374  1.00  0.00     0.206 HD
HETATM   13  N9  UNL     1      -5.100  -0.356   0.933  1.00  0.00    -0.020 N 
ATOM     14  H9  UNL     1      -4.963  -0.738   1.869  1.00  0.00     0.203 HD
BRANCH  11  15
HETATM   15  N1  UNL     1      -7.111   0.743   1.249  1.00  0.00    -0.229 N 
HETATM   16  C1  UNL     1      -8.219   1.538   0.836  1.00  0.00     0.165 C 
ATOM     17  H1  UNL     1      -7.094   0.422   2.217  1.00  0.00     0.177 HD
ENDBRANCH  11  15
ENDBRANCH   5   7
ENDBRANCH   4   5
ENDBRANCH   3   4
ENDBRANCH   1   3
BRANCH   1  18
HETATM   18  C6  UNL     1      -0.184  -0.525  -0.530  1.00  0.00     0.160 C 
BRANCH  18  19
HETATM   19  C7  UNL     1      -0.040   0.919  -0.238  1.00  0.00     0.099 C 
HETATM   20  N6  UNL     1       1.026   1.565  -0.552  1.00  0.00    -0.319 N 
ATOM     21  H6  UNL     1       1.109   2.560  -0.343  1.00  0.00     0.185 HD
BRANCH  20  22
HETATM   22  N7  UNL     1       2.067   0.885  -1.182  1.00  0.00    -0.337 N 
ATOM     23  H7  UNL     1       1.930   0.458  -2.098  1.00  0.00     0.180 HD
BRANCH  22  24
HETATM   24  C8  UNL     1       3.352   0.797  -0.507  1.00  0.00     0.145 C 
BRANCH  24  25
HETATM   25  C9  UNL     1       4.292  -0.053  -1.366  1.00  0.00     0.078 C 
BRANCH  25  26
HETATM   26  C10 UNL     1       5.586  -0.117  -0.642  1.00  0.00     0.010 A 
HETATM   27  C11 UNL     1       6.560   0.835  -0.896  1.00  0.00     0.025 A 
HETATM   28  C12 UNL     1       7.746   0.764  -0.213  1.00  0.00     0.003 A 
HETATM   29  C13 UNL     1       7.953  -0.225   0.695  1.00  0.00     0.017 A 
HETATM   30  C14 UNL     1       6.973  -1.164   0.936  1.00  0.00     0.088 A 
HETATM   31  N8  UNL     1       5.819  -1.072   0.252  1.00  0.00    -0.369 N 
ATOM     32  H8  UNL     1       5.091  -1.765   0.427  1.00  0.00     0.165 HD
ENDBRANCH  25  26
ENDBRANCH  24  25
ENDBRANCH  22  24
ENDBRANCH  20  22
ENDBRANCH  18  19
ENDBRANCH   1  18
TORSDOF 11
