REMARK  8 active torsions:
REMARK  status: ('A' for Active; 'I' for Inactive)
REMARK    1  A    between atoms: C5_7  and  N2_8 
REMARK    2  A    between atoms: N2_8  and  C6_10 
REMARK    3  A    between atoms: C12_18  and  C13_19 
REMARK    4  A    between atoms: C13_19  and  N3_20 
REMARK    5  A    between atoms: N4_29  and  C21_30 
REMARK    6  A    between atoms: C21_30  and  O1_31 
REMARK    7  A    between atoms: O1_31  and  C22_32 
REMARK    8  A    between atoms: C22_32  and  C23_33 
ROOT
HETATM    1  C1  UNL     1       2.515  -2.146  -3.693  1.00  0.00     0.089 C 
HETATM    2  C2  UNL     1       1.400  -1.686  -2.788  1.00  0.00     0.086 A 
HETATM    3  N1  UNL     1       0.548  -2.580  -2.213  1.00  0.00    -0.344 N 
ATOM      4  H1  UNL     1       0.584  -3.594  -2.317  1.00  0.00     0.167 HD
HETATM    5  C3  UNL     1      -0.352  -1.889  -1.482  1.00  0.00     0.063 A 
HETATM    6  C4  UNL     1      -1.432  -2.263  -0.695  1.00  0.00     0.062 A 
HETATM    7  C5  UNL     1      -2.208  -1.358  -0.043  1.00  0.00     0.043 A 
HETATM    8  C12 UNL     1      -1.885  -0.002  -0.186  1.00  0.00    -0.012 A 
HETATM    9  C19 UNL     1      -0.813   0.366  -0.966  1.00  0.00     0.043 A 
HETATM   10  C20 UNL     1      -0.033  -0.564  -1.623  1.00  0.00     0.069 A 
HETATM   11  N4  UNL     1       1.060  -0.442  -2.438  1.00  0.00    -0.290 N 
ENDROOT
BRANCH  11  12
HETATM   12  C21 UNL     1       1.687   0.804  -2.790  1.00  0.00     0.235 C 
BRANCH  12  13
HETATM   13  O1  UNL     1       2.607   1.293  -1.897  1.00  0.00    -0.346 OA
BRANCH  13  14
HETATM   14  C22 UNL     1       3.642   0.443  -1.692  1.00  0.00     0.181 C 
BRANCH  14  15
HETATM   15  C23 UNL     1       4.678   0.974  -0.719  1.00  0.00     0.017 C 
HETATM   16  C24 UNL     1       5.762  -0.069  -0.589  1.00  0.00     0.034 C 
HETATM   17  C25 UNL     1       6.908   0.461   0.275  1.00  0.00     0.232 C 
HETATM   18  N5  UNL     1       6.462   1.598   1.036  1.00  0.00    -0.075 N 
HETATM   19  C26 UNL     1       5.190   1.360   1.673  1.00  0.00     0.237 C 
ATOM     20  H52 UNL     1       7.166   1.888   1.714  1.00  0.00     0.277 HD
ATOM     21  H51 UNL     1       6.435   2.440   0.461  1.00  0.00     0.277 HD
HETATM   22  C27 UNL     1       4.070   1.164   0.660  1.00  0.00     0.013 C 
HETATM   23  C28 UNL     1       3.257  -0.004   1.112  1.00  0.00     0.012 C 
ENDBRANCH  14  15
ENDBRANCH  13  14
ENDBRANCH  12  13
ENDBRANCH  11  12
BRANCH   8  24
HETATM   24  C13 UNL     1      -2.725   0.965   0.532  1.00  0.00     0.158 C 
BRANCH  24  25
HETATM   25  N3  UNL     1      -2.429   2.336   0.381  1.00  0.00    -0.406 N 
HETATM   26  C14 UNL     1      -2.586   2.915  -0.908  1.00  0.00     0.117 C 
HETATM   27  C15 UNL     1      -3.739   3.891  -0.993  1.00  0.00     0.022 C 
HETATM   28  C16 UNL     1      -4.903   3.440  -0.148  1.00  0.00     0.040 C 
HETATM   29  C17 UNL     1      -4.444   3.403   1.287  1.00  0.00     0.187 C 
HETATM   30  F1  UNL     1      -5.145   2.450   2.002  1.00  0.00    -0.248 F 
HETATM   31  C18 UNL     1      -2.948   3.191   1.400  1.00  0.00     0.154 C 
ENDBRANCH  24  25
ENDBRANCH   8  24
BRANCH   7  32
HETATM   32  N2  UNL     1      -3.307  -1.724   0.766  1.00  0.00    -0.353 N 
ATOM     33  H2  UNL     1      -3.840  -0.992   1.235  1.00  0.00     0.166 HD
BRANCH  32  34
HETATM   34  C6  UNL     1      -3.694  -3.080   0.947  1.00  0.00     0.076 A 
HETATM   35  C7  UNL     1      -3.169  -3.831   1.976  1.00  0.00     0.062 A 
HETATM   36 CL1  UNL     1      -2.000  -3.125   3.095  1.00  0.00    -0.082 Cl
HETATM   37  C8  UNL     1      -3.571  -5.149   2.121  1.00  0.00     0.026 A 
HETATM   38  C9  UNL     1      -4.479  -5.741   1.273  1.00  0.00     0.003 A 
HETATM   39  C10 UNL     1      -5.008  -4.999   0.244  1.00  0.00     0.026 A 
HETATM   40  C11 UNL     1      -4.616  -3.692   0.093  1.00  0.00     0.062 A 
HETATM   41 CL2  UNL     1      -5.284  -2.717  -1.225  1.00  0.00    -0.082 Cl
ENDBRANCH  32  34
ENDBRANCH   7  32
TORSDOF 8
