REMARK  3 active torsions:
REMARK  status: ('A' for Active; 'I' for Inactive)
REMARK       I    between atoms: C1_2  and  N1_3 
REMARK    1  A    between atoms: C1_2  and  C6_9 
REMARK    2  A    between atoms: N1_3  and  C2_5 
REMARK    3  A    between atoms: N2_13  and  C9_14 
ROOT
HETATM    1  C6  UNL     1       0.656  -0.678   0.751  1.00  0.00     0.102 C 
HETATM    2  C7  UNL     1       0.310  -1.040  -0.695  1.00  0.00     0.100 C 
HETATM    3  C8  UNL     1      -0.079   0.312  -1.145  1.00  0.00     0.226 C 
HETATM    4  O2  UNL     1      -0.257   0.563  -2.365  1.00  0.00    -0.273 OA
HETATM    5  N2  UNL     1      -0.275   1.417  -0.241  1.00  0.00    -0.346 N 
HETATM    6  C12 UNL     1      -0.629   1.199   1.193  1.00  0.00     0.137 C 
HETATM    7  C13 UNL     1      -0.649  -0.259   1.278  1.00  0.00    -0.004 C 
HETATM    8  C14 UNL     1      -0.686  -1.048   2.530  1.00  0.00     0.039 C 
HETATM    9  C15 UNL     1      -0.537  -2.497   2.122  1.00  0.00    -0.029 C 
HETATM   10  C16 UNL     1      -0.365  -2.979   0.782  1.00  0.00    -0.025 C 
HETATM   11  C17 UNL     1      -0.676  -2.107  -0.454  1.00  0.00     0.026 C 
HETATM   12  C18 UNL     1      -2.072  -1.748  -0.236  1.00  0.00    -0.001 C 
HETATM   13  C19 UNL     1      -3.008  -1.521  -1.360  1.00  0.00     0.007 C 
HETATM   14  C20 UNL     1      -4.149  -0.706  -0.740  1.00  0.00     0.020 C 
HETATM   15  C21 UNL     1      -4.349  -0.923   0.708  1.00  0.00     0.082 C 
HETATM   16 CL1  UNL     1      -5.619   0.225   1.237  1.00  0.00    -0.125 Cl
HETATM   17  C22 UNL     1      -3.121  -0.677   1.598  1.00  0.00     0.026 C 
HETATM   18  C23 UNL     1      -1.961  -0.548   0.620  1.00  0.00     0.003 C 
ENDROOT
BRANCH   1  19
HETATM   19  C1  UNL     1       1.812   0.221   0.845  1.00  0.00     0.223 C 
HETATM   20  O1  UNL     1       1.945   1.050   1.756  1.00  0.00    -0.273 OA
HETATM   21  N1  UNL     1       2.852   0.175  -0.121  1.00  0.00    -0.356 N 
ATOM     22  H1  UNL     1       2.785  -0.493  -0.889  1.00  0.00     0.162 HD
BRANCH  21  23
HETATM   23  C2  UNL     1       4.024   1.063  -0.047  1.00  0.00     0.084 C 
HETATM   24  C3  UNL     1       5.337   0.384  -0.256  1.00  0.00     0.025 C 
HETATM   25  C4  UNL     1       5.429   1.007  -1.635  1.00  0.00     0.004 C 
HETATM   26  C5  UNL     1       4.181   1.805  -1.356  1.00  0.00     0.025 C 
ENDBRANCH  21  23
ENDBRANCH   1  19
BRANCH   5  27
HETATM   27  C9  UNL     1      -0.163   2.807  -0.625  1.00  0.00     0.087 A 
HETATM   28  C10 UNL     1      -0.923   3.250  -1.842  1.00  0.00     0.027 A 
HETATM   29  C11 UNL     1       0.565   3.253  -1.811  1.00  0.00     0.027 A 
ENDBRANCH   5  27
TORSDOF 3
