REMARK  7 active torsions:
REMARK  status: ('A' for Active; 'I' for Inactive)
REMARK    1  A    between atoms: C3_6  and  N3_7 
REMARK    2  A    between atoms: C4_12  and  C5_13 
REMARK    3  A    between atoms: C6_14  and  C7_15 
REMARK    4  A    between atoms: C7_15  and  O1_18 
REMARK    5  A    between atoms: C10_20  and  O2_21 
REMARK    6  A    between atoms: O2_21  and  C11_22 
REMARK    7  A    between atoms: C15_26  and  C16_27 
ROOT
HETATM    1  C1  UNL     1      -5.216  -2.101   0.415  1.00  0.00     0.071 C 
HETATM    2  C2  UNL     1      -3.746  -2.055   0.335  1.00  0.00     0.041 A 
HETATM    3  N1  UNL     1      -2.871  -3.039   0.253  1.00  0.00    -0.283 N 
ATOM      4  H1  UNL     1      -3.107  -4.031   0.231  1.00  0.00     0.188 HD
HETATM    5  N2  UNL     1      -1.623  -2.543   0.203  1.00  0.00    -0.083 N 
HETATM    6  C3  UNL     1      -0.447  -3.190   0.154  1.00  0.00     0.698 A 
HETATM    7  N4  UNL     1       0.706  -2.534   0.147  1.00  0.00    -0.179 N 
ATOM      8  H4  UNL     1       1.594  -3.035   0.114  1.00  0.00     0.185 HD
HETATM    9  C4  UNL     1       0.671  -1.162   0.186  1.00  0.00     0.138 A 
HETATM   10  C10 UNL     1      -0.510  -0.475   0.232  1.00  0.00     0.135 A 
HETATM   11  C14 UNL     1      -1.688  -1.178   0.250  1.00  0.00     0.128 A 
HETATM   12  C15 UNL     1      -3.009  -0.847   0.340  1.00  0.00     0.085 A 
ENDROOT
BRANCH   9  13
HETATM   13  C5  UNL     1       1.925  -0.472   0.202  1.00  0.00    -0.042 C 
HETATM   14  C6  UNL     1       3.012   0.081   0.226  1.00  0.00    -0.062 C 
BRANCH  14  15
HETATM   15  C7  UNL     1       4.323   0.742   0.231  1.00  0.00     0.114 C 
HETATM   16  C8  UNL     1       5.437  -0.224   0.549  1.00  0.00     0.060 C 
HETATM   17  C9  UNL     1       4.273   1.837   1.249  1.00  0.00     0.060 C 
BRANCH  15  18
HETATM   18  O1  UNL     1       4.611   1.297  -1.021  1.00  0.00    -0.378 OA
ATOM     19  H1  UNL     1       5.459   1.725  -1.018  1.00  0.00     0.211 HD
ENDBRANCH  15  18
ENDBRANCH  14  15
ENDBRANCH   9  13
BRANCH  10  20
HETATM   20  O2  UNL     1      -0.439   0.885   0.251  1.00  0.00    -0.341 OA
BRANCH  20  21
HETATM   21  C11 UNL     1      -0.116   1.695  -0.863  1.00  0.00     0.121 C 
HETATM   22  C12 UNL     1       0.615   2.930  -0.407  1.00  0.00     0.040 C 
HETATM   23  C13 UNL     1      -1.201   2.035  -1.824  1.00  0.00     0.040 C 
ENDBRANCH  20  21
ENDBRANCH  10  20
BRANCH   6  24
HETATM   24  N3  UNL     1      -0.471  -4.473   0.114  1.00  0.00    -0.233 N 
ATOM     25  H32 UNL     1      -1.358  -4.977   0.119  1.00  0.00     0.174 HD
ATOM     26  H31 UNL     1       0.422  -4.964   0.077  1.00  0.00     0.174 HD
ENDBRANCH   6  24
BRANCH  12  27
HETATM   27  C16 UNL     1      -3.615   0.443   0.488  1.00  0.00     0.269 C 
HETATM   28  N5  UNL     1      -4.947   0.683   0.003  1.00  0.00    -0.057 NA
HETATM   29  O3  UNL     1      -3.058   1.400   1.022  1.00  0.00    -0.271 OA
ENDBRANCH  12  27
TORSDOF 7
