REMARK  6 active torsions:
REMARK  status: ('A' for Active; 'I' for Inactive)
REMARK    1  A    between atoms: C2_2  and  N1_4 
REMARK    2  A    between atoms: C4_8  and  C5_9 
REMARK       I    between atoms: C5_9  and  N4_11 
REMARK    3  A    between atoms: N4_11  and  N5_13 
REMARK    4  A    between atoms: N5_13  and  C6_15 
REMARK    5  A    between atoms: C6_15  and  N6_17 
REMARK    6  A    between atoms: N6_17  and  C7_19 
ROOT
HETATM    1  C5  UNL     1      -1.239  -0.138   1.265  1.00  0.00     0.291 C 
HETATM    2  O1  UNL     1      -0.798   0.708   0.413  1.00  0.00    -0.264 OA
HETATM    3  N4  UNL     1      -0.364  -0.828   2.136  1.00  0.00    -0.262 N 
ATOM      4  H4  UNL     1      -0.722  -1.502   2.813  1.00  0.00     0.190 HD
ENDROOT
BRANCH   3   5
HETATM    5  N5  UNL     1       0.982  -0.566   2.046  1.00  0.00    -0.274 N 
ATOM      6  H5  UNL     1       1.449  -0.059   2.798  1.00  0.00     0.189 HD
BRANCH   5   7
HETATM    7  C6  UNL     1       1.728  -0.992   0.921  1.00  0.00     0.186 C 
HETATM    8  S1  UNL     1       0.930  -1.829  -0.245  1.00  0.00    -0.040 SA
BRANCH   7   9
HETATM    9  N6  UNL     1       3.118  -0.718   0.827  1.00  0.00    -0.361 N 
ATOM     10  H6  UNL     1       3.575  -0.215   1.588  1.00  0.00     0.162 HD
BRANCH   9  11
HETATM   11  C7  UNL     1       3.898  -1.125  -0.301  1.00  0.00     0.083 C 
HETATM   12  C8  UNL     1       5.379  -0.851   0.021  1.00  0.00     0.025 C 
HETATM   13  C9  UNL     1       6.086  -0.635  -1.294  1.00  0.00     0.002 C 
HETATM   14  C10 UNL     1       5.753   0.793  -1.741  1.00  0.00     0.000 C 
HETATM   15  C11 UNL     1       4.246   0.980  -1.645  1.00  0.00     0.002 C 
HETATM   16  C12 UNL     1       3.571  -0.381  -1.581  1.00  0.00     0.025 C 
ENDBRANCH   9  11
ENDBRANCH   7   9
ENDBRANCH   5   7
ENDBRANCH   3   5
BRANCH   1  17
HETATM   17  C4  UNL     1      -2.672  -0.383   1.324  1.00  0.00     0.158 A 
HETATM   18  N3  UNL     1      -3.361  -1.207   2.122  1.00  0.00    -0.276 N 
HETATM   19  N2  UNL     1      -4.671  -1.127   1.846  1.00  0.00    -0.018 NA
ATOM     20  H3  UNL     1      -2.950  -1.808   2.836  1.00  0.00     0.184 HD
HETATM   21  N1  UNL     1      -4.856  -0.242   0.856  1.00  0.00    -0.257 N 
HETATM   22  C13 UNL     1      -3.638   0.219   0.529  1.00  0.00     0.165 A 
HETATM   23  N7  UNL     1      -3.357   1.180  -0.475  1.00  0.00    -0.079 NA
BRANCH  21  24
HETATM   24  C2  UNL     1      -6.133   0.147   0.248  1.00  0.00     0.099 C 
HETATM   25  C1  UNL     1      -6.420   1.584   0.659  1.00  0.00     0.033 C 
HETATM   26  C3  UNL     1      -6.025   0.122  -1.267  1.00  0.00     0.033 C 
ENDBRANCH  21  24
ENDBRANCH   1  17
TORSDOF 6
