REMARK  18 active torsions:
REMARK  status: ('A' for Active; 'I' for Inactive)
REMARK    1  A    between atoms: C2_2  and  C3_3 
REMARK    2  A    between atoms: C3_3  and  C4_4 
REMARK    3  A    between atoms: C4_4  and  C5_5 
REMARK    4  A    between atoms: C5_5  and  C6_6 
REMARK    5  A    between atoms: C6_6  and  C7_7 
REMARK    6  A    between atoms: C7_7  and  C8_8 
REMARK    7  A    between atoms: C10_10  and  C11_11 
REMARK    8  A    between atoms: C11_11  and  C13_13 
REMARK    9  A    between atoms: C13_13  and  C14_14 
REMARK   10  A    between atoms: C14_14  and  C15_16 
REMARK   11  A    between atoms: C15_16  and  C16_17 
REMARK   12  A    between atoms: C16_17  and  C17_18 
REMARK   13  A    between atoms: C24_32  and  N2_33 
REMARK       I    between atoms: N2_33  and  C25_35 
REMARK   14  A    between atoms: C25_35  and  C26_37 
REMARK   15  A    between atoms: C26_37  and  C27_39 
REMARK   16  A    between atoms: C27_39  and  C30_42 
REMARK   17  A    between atoms: C32_44  and  O9_45 
REMARK   18  A    between atoms: C33_47  and  O10_48 
ROOT
HETATM    1  C17 UNL     1      -0.794  -0.829   0.071  1.00  0.00     0.144 C 
HETATM    2  O2  UNL     1      -0.350   0.257   0.869  1.00  0.00    -0.285 OA
HETATM    3  C18 UNL     1      -0.880   0.197   2.128  1.00  0.00     0.363 C 
HETATM    4  O3  UNL     1      -0.949   1.188   2.933  1.00  0.00    -0.238 OA
HETATM    5  N1  UNL     1      -1.312  -1.122   2.334  1.00  0.00    -0.307 N 
ATOM      6  H1  UNL     1      -1.733  -1.492   3.186  1.00  0.00     0.167 HD
HETATM    7  C19 UNL     1      -1.055  -1.854   1.130  1.00  0.00     0.266 C 
HETATM    8  O4  UNL     1      -2.027  -2.762   0.905  1.00  0.00    -0.331 OA
HETATM    9  C20 UNL     1      -3.276  -2.515   1.373  1.00  0.00     0.296 C 
HETATM   10  O5  UNL     1      -3.675  -3.699   2.049  1.00  0.00    -0.329 OA
HETATM   11  C21 UNL     1      -4.276  -4.492   1.103  1.00  0.00     0.259 C 
HETATM   12  C22 UNL     1      -5.710  -4.727   1.569  1.00  0.00     0.071 C 
HETATM   13  O6  UNL     1      -4.327  -3.800  -0.107  1.00  0.00    -0.349 OA
HETATM   14  C23 UNL     1      -4.346  -2.492   0.318  1.00  0.00     0.205 C 
HETATM   15  C24 UNL     1      -4.259  -1.434  -0.691  1.00  0.00     0.150 C 
HETATM   16  C32 UNL     1      -2.929  -1.157  -1.328  1.00  0.00     0.175 C 
HETATM   17  C33 UNL     1      -1.999  -0.293  -0.618  1.00  0.00     0.188 C 
ENDROOT
BRANCH   1  18
HETATM   18  C16 UNL     1       0.292  -1.185  -0.879  1.00  0.00     0.053 C 
BRANCH  18  19
HETATM   19  C15 UNL     1       1.601  -1.613  -0.373  1.00  0.00     0.081 C 
BRANCH  19  20
HETATM   20  C14 UNL     1       2.410  -0.625   0.366  1.00  0.00     0.127 C 
HETATM   21  O1  UNL     1       2.196   0.564   0.205  1.00  0.00    -0.298 OA
BRANCH  20  22
HETATM   22  C13 UNL     1       3.491  -1.045   1.316  1.00  0.00     0.086 C 
BRANCH  22  23
HETATM   23  C11 UNL     1       4.286   0.126   1.745  1.00  0.00     0.011 C 
HETATM   24  C12 UNL     1       5.134  -0.238   2.988  1.00  0.00     0.014 C 
BRANCH  23  25
HETATM   25  C10 UNL     1       5.076   0.849   0.795  1.00  0.00    -0.020 C 
HETATM   26  C8  UNL     1       5.418   0.706  -0.438  1.00  0.00    -0.087 C 
HETATM   27  C9  UNL     1       5.146  -0.373  -1.407  1.00  0.00     0.043 C 
BRANCH  26  28
HETATM   28  C7  UNL     1       6.309   1.812  -1.010  1.00  0.00     0.033 C 
BRANCH  28  29
HETATM   29  C6  UNL     1       7.628   1.297  -1.475  1.00  0.00     0.004 C 
BRANCH  29  30
HETATM   30  C5  UNL     1       8.455   0.636  -0.427  1.00  0.00     0.001 C 
BRANCH  30  31
HETATM   31  C4  UNL     1       8.851   1.468   0.733  1.00  0.00     0.004 C 
BRANCH  31  32
HETATM   32  C3  UNL     1       9.717   2.622   0.292  1.00  0.00     0.026 C 
BRANCH  32  33
HETATM   33  C2  UNL     1      10.944   2.062  -0.338  1.00  0.00    -0.037 C 
HETATM   34  C1  UNL     1      11.273   2.347  -1.579  1.00  0.00     0.007 C 
ENDBRANCH  32  33
ENDBRANCH  31  32
ENDBRANCH  30  31
ENDBRANCH  29  30
ENDBRANCH  28  29
ENDBRANCH  26  28
ENDBRANCH  23  25
ENDBRANCH  22  23
ENDBRANCH  20  22
ENDBRANCH  19  20
ENDBRANCH  18  19
ENDBRANCH   1  18
BRANCH  17  35
HETATM   35  O10 UNL     1      -1.501   0.766  -1.432  1.00  0.00    -0.390 OA
ATOM     36  H10 UNL     1      -2.270   1.108  -1.872  1.00  0.00     0.210 HD
ENDBRANCH  17  35
BRANCH  16  37
HETATM   37  O9  UNL     1      -2.433  -2.329  -1.898  1.00  0.00    -0.391 OA
ATOM     38  H9  UNL     1      -1.591  -2.154  -2.301  1.00  0.00     0.210 HD
ENDBRANCH  16  37
BRANCH  15  39
HETATM   39  N2  UNL     1      -4.851  -0.235  -0.145  1.00  0.00    -0.345 N 
HETATM   40  C25 UNL     1      -5.998   0.343  -0.744  1.00  0.00     0.288 C 
HETATM   41  O7  UNL     1      -6.488  -0.208  -1.753  1.00  0.00    -0.264 OA
ATOM     42  H2  UNL     1      -4.439   0.200   0.680  1.00  0.00     0.163 HD
BRANCH  40  43
HETATM   43  C26 UNL     1      -6.636   1.548  -0.241  1.00  0.00     0.224 C 
HETATM   44  O8  UNL     1      -6.093   2.080   0.789  1.00  0.00    -0.286 OA
BRANCH  43  45
HETATM   45  C27 UNL     1      -7.845   2.141  -0.866  1.00  0.00     0.022 C 
HETATM   46  C28 UNL     1      -8.993   1.148  -0.831  1.00  0.00     0.023 C 
HETATM   47  C29 UNL     1      -7.619   2.530  -2.300  1.00  0.00     0.023 C 
BRANCH  45  48
HETATM   48  C30 UNL     1      -8.260   3.329  -0.020  1.00  0.00     0.012 C 
HETATM   49  C31 UNL     1      -9.470   4.042  -0.517  1.00  0.00     0.006 C 
ENDBRANCH  45  48
ENDBRANCH  43  45
ENDBRANCH  40  43
ENDBRANCH  15  39
TORSDOF 18
