REMARK  22 active torsions:
REMARK  status: ('A' for Active; 'I' for Inactive)
REMARK    1  A    between atoms: C2_2  and  C3_3 
REMARK    2  A    between atoms: C3_3  and  C4_4 
REMARK    3  A    between atoms: C4_4  and  C5_5 
REMARK    4  A    between atoms: C6_6  and  C7_7 
REMARK    5  A    between atoms: C7_7  and  O1_8 
REMARK    6  A    between atoms: C7_7  and  C8_10 
REMARK    7  A    between atoms: C8_10  and  N1_11 
REMARK    8  A    between atoms: C8_10  and  C9_15 
REMARK    9  A    between atoms: C9_15  and  C11_17 
REMARK   10  A    between atoms: C11_17  and  C12_18 
REMARK   11  A    between atoms: C15_22  and  O2_23 
REMARK   12  A    between atoms: C15_22  and  O3_25 
REMARK   13  A    between atoms: N2_27  and  C17_28 
REMARK   14  A    between atoms: C17_28  and  O4_29 
REMARK   15  A    between atoms: C17_28  and  C18_31 
REMARK   16  A    between atoms: C18_31  and  N3_32 
REMARK   17  A    between atoms: C18_31  and  C28_49 
REMARK       I    between atoms: N3_32  and  C19_34 
REMARK   18  A    between atoms: C19_34  and  C20_36 
REMARK   19  A    between atoms: C20_36  and  C21_37 
REMARK   20  A    between atoms: C21_37  and  S2_38 
REMARK       I    between atoms: N4_40  and  C23_42 
REMARK   21  A    between atoms: C23_42  and  O7_44 
REMARK   22  A    between atoms: O7_44  and  C24_45 
ROOT
HETATM    1  C12 UNL     1       1.281   0.594  -0.757  1.00  0.00     0.154 C 
HETATM    2  S1  UNL     1       1.382   1.512  -2.312  1.00  0.00    -0.137 SA
HETATM    3  C13 UNL     1       0.230   0.444  -3.302  1.00  0.00     0.138 C 
HETATM    4  C14 UNL     1       0.519  -0.814  -2.400  1.00  0.00     0.082 C 
HETATM    5  C15 UNL     1       0.349  -2.036  -3.080  1.00  0.00     0.202 C 
HETATM    6  N2  UNL     1       0.117  -0.366  -1.133  1.00  0.00    -0.310 N 
ENDROOT
BRANCH   6   7
HETATM    7  C17 UNL     1      -0.923  -0.421  -0.214  1.00  0.00     0.171 C 
BRANCH   7   8
HETATM    8  O4  UNL     1      -0.664   0.437   0.829  1.00  0.00    -0.344 OA
ATOM      9  H4  UNL     1      -1.375   0.399   1.458  1.00  0.00     0.219 HD
ENDBRANCH   7   8
BRANCH   7  10
HETATM   10  C18 UNL     1      -2.211  -1.088  -0.009  1.00  0.00     0.088 C 
BRANCH  10  11
HETATM   11  N3  UNL     1      -3.239  -0.208   0.374  1.00  0.00    -0.318 N 
HETATM   12  C19 UNL     1      -4.114   0.003   1.488  1.00  0.00     0.269 C 
HETATM   13  O5  UNL     1      -3.939  -0.795   2.437  1.00  0.00    -0.266 OA
ATOM     14  H3  UNL     1      -3.412   0.483  -0.356  1.00  0.00     0.169 HD
BRANCH  12  15
HETATM   15  C20 UNL     1      -5.083   1.020   1.513  1.00  0.00     0.091 C 
HETATM   16  N4  UNL     1      -6.020   2.006   1.537  1.00  0.00    -0.300 N 
HETATM   17  C23 UNL     1      -7.102   2.182   0.601  1.00  0.00     0.365 C 
ATOM     18  H4  UNL     1      -5.950   2.688   2.292  1.00  0.00     0.171 HD
HETATM   19  O6  UNL     1      -7.213   1.364  -0.352  1.00  0.00    -0.238 OA
BRANCH  15  20
HETATM   20  C21 UNL     1      -6.003   0.246   2.792  1.00  0.00     0.136 C 
BRANCH  20  21
HETATM   21  S2  UNL     1      -6.722  -1.202   2.381  1.00  0.00    -0.167 SA
HETATM   22  C22 UNL     1      -6.062  -2.734   1.980  1.00  0.00     0.090 C 
ENDBRANCH  20  21
ENDBRANCH  15  20
BRANCH  17  23
HETATM   23  O7  UNL     1      -7.998   3.194   0.709  1.00  0.00    -0.294 OA
BRANCH  23  24
HETATM   24  C24 UNL     1      -9.084   3.432  -0.186  1.00  0.00     0.061 C 
HETATM   25  C25 UNL     1     -10.014   2.248  -0.271  1.00  0.00     0.046 C 
HETATM   26  C26 UNL     1      -9.917   4.533   0.514  1.00  0.00     0.046 C 
HETATM   27  C27 UNL     1      -8.653   3.920  -1.526  1.00  0.00     0.046 C 
ENDBRANCH  23  24
ENDBRANCH  17  23
ENDBRANCH  12  15
ENDBRANCH  10  11
BRANCH  10  28
HETATM   28  C28 UNL     1      -2.124  -2.402   0.737  1.00  0.00    -0.057 C 
HETATM   29  C29 UNL     1      -1.464  -2.436   2.046  1.00  0.00     0.045 C 
HETATM   30  C30 UNL     1      -1.897  -3.627  -0.077  1.00  0.00     0.045 C 
ENDBRANCH  10  28
ENDBRANCH   7  10
ENDBRANCH   6   7
BRANCH   1  31
HETATM   31  C11 UNL     1       2.417  -0.285  -0.407  1.00  0.00     0.043 C 
BRANCH  31  32
HETATM   32  C9  UNL     1       3.722   0.440  -0.357  1.00  0.00     0.017 C 
HETATM   33  C10 UNL     1       3.745   1.692   0.462  1.00  0.00     0.012 C 
BRANCH  32  34
HETATM   34  C8  UNL     1       4.846  -0.455   0.050  1.00  0.00     0.219 C 
BRANCH  34  35
HETATM   35  C7  UNL     1       6.192   0.143  -0.202  1.00  0.00     0.171 C 
BRANCH  35  36
HETATM   36  C6  UNL     1       7.304  -0.303   0.627  1.00  0.00     0.003 C 
HETATM   37  C5  UNL     1       8.497  -0.546   0.083  1.00  0.00    -0.028 C 
BRANCH  37  38
HETATM   38  C4  UNL     1       9.682  -1.001   0.875  1.00  0.00     0.027 C 
BRANCH  38  39
HETATM   39  C3  UNL     1      10.769   0.047   0.689  1.00  0.00     0.003 C 
BRANCH  39  40
HETATM   40  C2  UNL     1      10.219   1.387   1.175  1.00  0.00    -0.004 C 
HETATM   41  C1  UNL     1      11.285   2.462   1.011  1.00  0.00     0.005 C 
ENDBRANCH  39  40
ENDBRANCH  38  39
ENDBRANCH  37  38
ENDBRANCH  35  36
BRANCH  35  42
HETATM   42  O1  UNL     1       6.529  -0.069  -1.565  1.00  0.00    -0.390 OA
ATOM     43  H1  UNL     1       5.804   0.222  -2.106  1.00  0.00     0.210 HD
ENDBRANCH  35  42
ENDBRANCH  34  35
BRANCH  34  44
HETATM   44  N1  UNL     1       4.739  -1.845  -0.279  1.00  0.00    -0.072 N 
ATOM     45  H13 UNL     1       5.021  -2.003  -1.246  1.00  0.00     0.274 HD
ATOM     46  H12 UNL     1       5.460  -2.380   0.204  1.00  0.00     0.274 HD
ATOM     47  H11 UNL     1       3.820  -2.253  -0.107  1.00  0.00     0.274 HD
ENDBRANCH  34  44
ENDBRANCH  32  34
ENDBRANCH  31  32
ENDBRANCH   1  31
BRANCH   5  48
HETATM   48  O2  UNL     1       0.210  -2.004  -4.396  1.00  0.00    -0.339 OA
ATOM     49  H2  UNL     1       0.095  -2.828  -4.855  1.00  0.00     0.220 HD
ENDBRANCH   5  48
BRANCH   5  50
HETATM   50  O3  UNL     1       0.317  -3.285  -2.575  1.00  0.00    -0.334 OA
HETATM   51  C16 UNL     1       0.157  -4.476  -3.367  1.00  0.00     0.212 C 
ENDBRANCH   5  50
TORSDOF 22
