REMARK  4 active torsions:
REMARK  status: ('A' for Active; 'I' for Inactive)
REMARK    1  A    between atoms: O1_2  and  C2_3 
REMARK    2  A    between atoms: N1_6  and  C5_7 
REMARK    3  A    between atoms: C5_7  and  O2_11 
REMARK    4  A    between atoms: O2_11  and  C6_12 
ROOT
HETATM    1  C2  UNL     1       2.851   0.221  -0.332  1.00  0.00     0.123 C 
HETATM    2  C3  UNL     1       2.057  -0.861  -1.035  1.00  0.00     0.052 C 
HETATM    3  C4  UNL     1       0.675  -0.326  -1.335  1.00  0.00     0.129 C 
HETATM    4  N1  UNL     1       0.005  -0.137  -0.049  1.00  0.00    -0.347 N 
HETATM    5  C9  UNL     1       0.834   0.341   1.039  1.00  0.00     0.129 C 
HETATM    6  C10 UNL     1       1.922   1.203   0.392  1.00  0.00     0.052 C 
ENDROOT
BRANCH   4   7
HETATM    7  C5  UNL     1      -1.375  -0.401   0.142  1.00  0.00     0.215 C 
HETATM    8  N2  UNL     1      -1.846  -0.800   1.273  1.00  0.00    -0.365 N 
ATOM      9  H22 UNL     1      -1.174  -0.918   2.031  1.00  0.00     0.159 HD
ATOM     10  H21 UNL     1      -2.839  -0.990   1.410  1.00  0.00     0.159 HD
BRANCH   7  11
HETATM   11  O2  UNL     1      -2.289  -0.241  -0.889  1.00  0.00    -0.318 OA
BRANCH  11  12
HETATM   12  C6  UNL     1      -3.624   0.026  -0.569  1.00  0.00     0.123 C 
HETATM   13  C7  UNL     1      -3.744   1.309   0.221  1.00  0.00     0.040 C 
HETATM   14  C8  UNL     1      -4.332  -1.125   0.094  1.00  0.00     0.040 C 
ENDBRANCH  11  12
ENDBRANCH   7  11
ENDBRANCH   4   7
BRANCH   1  15
HETATM   15  O1  UNL     1       3.707  -0.385   0.579  1.00  0.00    -0.391 OA
HETATM   16  C1  UNL     1       5.013  -0.078   0.207  1.00  0.00     0.202 C 
ENDBRANCH   1  15
TORSDOF 4
