REMARK  1 active torsions:
REMARK  status: ('A' for Active; 'I' for Inactive)
REMARK       I    between atoms: N1_2  and  C2_4 
REMARK    1  A    between atoms: C2_4  and  C3_6 
ROOT
HETATM    1  C3  UNL     1       0.548  -0.532   0.416  1.00  0.00     0.083 C 
HETATM    2  C4  UNL     1      -0.281  -1.720   0.027  1.00  0.00     0.019 C 
HETATM    3  C5  UNL     1      -1.746  -1.268   0.072  1.00  0.00    -0.013 C 
HETATM    4  C6  UNL     1      -1.903  -0.333  -1.113  1.00  0.00     0.010 C 
HETATM    5  C7  UNL     1      -1.122   0.911  -0.810  1.00  0.00    -0.009 C 
HETATM    6  C8  UNL     1      -1.988   1.699   0.191  1.00  0.00     0.010 C 
HETATM    7  C9  UNL     1      -1.286   0.853   1.264  1.00  0.00    -0.009 C 
HETATM    8  C10 UNL     1      -1.989  -0.463   1.338  1.00  0.00     0.010 C 
HETATM    9  C11 UNL     1      -0.121   0.779   0.269  1.00  0.00     0.007 C 
ENDROOT
BRANCH   1  10
HETATM   10  C2  UNL     1       1.878  -0.581  -0.252  1.00  0.00     0.221 C 
HETATM   11  N1  UNL     1       2.861   0.425  -0.057  1.00  0.00    -0.365 N 
HETATM   12  C1  UNL     1       4.151   0.404  -0.687  1.00  0.00     0.149 C 
ATOM     13  H1  UNL     1       2.639   1.204   0.563  1.00  0.00     0.161 HD
HETATM   14  O1  UNL     1       2.181  -1.529  -1.023  1.00  0.00    -0.273 OA
ENDBRANCH   1  10
TORSDOF 1
