REMARK  2 active torsions:
REMARK  status: ('A' for Active; 'I' for Inactive)
REMARK    1  A    between atoms: C2_2  and  C3_3 
REMARK    2  A    between atoms: C9_9  and  C10_10 
ROOT
HETATM    1  C3  UNL     1      -1.012   0.172   0.023  1.00  0.00    -0.018 A 
HETATM    2  C4  UNL     1      -2.026  -0.307   1.071  1.00  0.00     0.020 C 
HETATM    3  C5  UNL     1      -1.050  -0.666  -1.242  1.00  0.00     0.025 A 
HETATM    4  C6  UNL     1       0.081  -0.673  -0.278  1.00  0.00    -0.017 A 
HETATM    5  C7  UNL     1       0.521  -1.884   0.449  1.00  0.00     0.012 A 
HETATM    6  C8  UNL     1       1.928  -1.621  -0.052  1.00  0.00     0.015 A 
HETATM    7  C9  UNL     1       1.421  -0.384  -0.798  1.00  0.00     0.084 A 
ENDROOT
BRANCH   1   8
HETATM    8  C2  UNL     1      -1.075   1.636  -0.185  1.00  0.00    -0.027 C 
HETATM    9  C1  UNL     1      -2.270   2.214  -0.190  1.00  0.00     0.008 C 
ENDBRANCH   1   8
BRANCH   7  10
HETATM   10  C10 UNL     1       2.081   0.864  -0.449  1.00  0.00     0.236 C 
HETATM   11  N1  UNL     1       2.365   1.214   0.884  1.00  0.00    -0.062 NA
HETATM   12  O1  UNL     1       2.419   1.673  -1.350  1.00  0.00    -0.276 OA
ENDBRANCH   7  10
TORSDOF 2
