REMARK  2 active torsions:
REMARK  status: ('A' for Active; 'I' for Inactive)
REMARK    1  A    between atoms: C4_5  and  N2_6 
REMARK    2  A    between atoms: N2_6  and  C5_8 
REMARK       I    between atoms: N3_10  and  C7_12 
ROOT
HETATM    1  C1  UNL     1       4.824   1.451  -1.205  1.00  0.00     0.221 C 
HETATM    2  N1  UNL     1       3.752   1.048  -0.987  1.00  0.00    -0.464 NA
HETATM    3  C2  UNL     1       2.458   0.578  -0.745  1.00  0.00     0.185 A 
HETATM    4  C3  UNL     1       2.369  -0.815  -0.191  1.00  0.00     0.069 A 
HETATM    5  C4  UNL     1       2.045   0.313   0.711  1.00  0.00     0.121 A 
ENDROOT
BRANCH   5   6
HETATM    6  N2  UNL     1       0.685   0.604   1.090  1.00  0.00    -0.372 N 
ATOM      7  H2  UNL     1       0.536   1.293   1.828  1.00  0.00     0.161 HD
BRANCH   6   8
HETATM    8  C5  UNL     1      -0.449   0.007   0.516  1.00  0.00     0.075 C 
HETATM    9  C6  UNL     1      -0.880  -1.389   0.746  1.00  0.00     0.089 C 
HETATM   10  N3  UNL     1      -1.181   0.711  -0.272  1.00  0.00    -0.318 N 
HETATM   11  C7  UNL     1      -2.344   0.193  -0.897  1.00  0.00     0.218 C 
ATOM     12  H3  UNL     1      -0.915   1.679  -0.455  1.00  0.00     0.170 HD
HETATM   13  C8  UNL     1      -3.699   0.738  -0.636  1.00  0.00     0.117 C 
HETATM   14  O1  UNL     1      -2.229  -0.765  -1.705  1.00  0.00    -0.274 OA
ENDBRANCH   6   8
ENDBRANCH   5   6
TORSDOF 2
