REMARK  11 active torsions:
REMARK  status: ('A' for Active; 'I' for Inactive)
REMARK    1  A    between atoms: C3_3  and  C4_4 
REMARK    2  A    between atoms: C4_4  and  C5_5 
REMARK    3  A    between atoms: C5_5  and  N1_6 
REMARK    4  A    between atoms: N1_6  and  C6_8 
REMARK    5  A    between atoms: N3_14  and  C9_15 
REMARK    6  A    between atoms: C9_15  and  C10_16 
REMARK    7  A    between atoms: C10_16  and  N4_17 
REMARK    8  A    between atoms: C15_23  and  N5_24 
REMARK    9  A    between atoms: C17_32  and  N8_33 
REMARK   10  A    between atoms: N8_33  and  C18_35 
REMARK   11  A    between atoms: C18_35  and  C19_36 
ROOT
HETATM    1  C1  UNL     1      -6.157   5.400   0.223  1.00  0.00     0.012 C 
HETATM    2  C2  UNL     1      -5.502   4.405   0.462  1.00  0.00    -0.117 C 
HETATM    3  C3  UNL     1      -4.736   3.197   0.743  1.00  0.00     0.104 C 
ENDROOT
BRANCH   3   4
HETATM    4  C4  UNL     1      -5.234   2.012  -0.043  1.00  0.00    -0.014 A 
HETATM    5  C21 UNL     1      -5.745   2.122  -1.410  1.00  0.00     0.013 A 
HETATM    6  C22 UNL     1      -6.679   1.776  -0.242  1.00  0.00     0.013 A 
BRANCH   4   7
HETATM    7  C5  UNL     1      -4.419   0.725   0.257  1.00  0.00     0.131 C 
BRANCH   7   8
HETATM    8  N1  UNL     1      -3.076   0.981  -0.095  1.00  0.00    -0.372 N 
ATOM      9  H1  UNL     1      -2.870   1.909  -0.464  1.00  0.00     0.161 HD
BRANCH   8  10
HETATM   10  C6  UNL     1      -2.105   0.182  -0.001  1.00  0.00     0.146 A 
HETATM   11  N2  UNL     1      -0.864   0.641  -0.404  1.00  0.00    -0.332 N 
HETATM   12  C7  UNL     1       0.237  -0.106  -0.353  1.00  0.00     0.148 A 
ATOM     13  H2  UNL     1      -0.789   1.595  -0.756  1.00  0.00     0.168 HD
HETATM   14  C8  UNL     1       1.479   0.378  -0.766  1.00  0.00     0.292 A 
HETATM   15  C16 UNL     1       0.205  -1.401   0.111  1.00  0.00     0.155 A 
HETATM   16  O1  UNL     1       1.527   1.551  -1.190  1.00  0.00    -0.265 OA
HETATM   17  N3  UNL     1       2.588  -0.376  -0.714  1.00  0.00    -0.144 N 
HETATM   18  C15 UNL     1       2.513  -1.631  -0.255  1.00  0.00     0.682 A 
HETATM   19  N6  UNL     1       1.323  -2.160   0.163  1.00  0.00    -0.174 N 
ATOM     20  H6  UNL     1       1.279  -3.118   0.511  1.00  0.00     0.186 HD
HETATM   21  N7  UNL     1      -0.989  -1.862   0.506  1.00  0.00    -0.323 N 
HETATM   22  C17 UNL     1      -2.129  -1.112   0.462  1.00  0.00     0.147 A 
ATOM     23  H7  UNL     1      -1.049  -2.818   0.856  1.00  0.00     0.169 HD
BRANCH  17  24
HETATM   24  C9  UNL     1       3.873   0.132  -1.142  1.00  0.00     0.181 C 
BRANCH  24  25
HETATM   25  C10 UNL     1       4.643   0.788  -0.052  1.00  0.00     0.293 C 
BRANCH  25  26
HETATM   26  N4  UNL     1       5.901   1.282  -0.557  1.00  0.00     0.094 N 
HETATM   27  C11 UNL     1       6.667   1.951   0.489  1.00  0.00     0.298 C 
HETATM   28  C12 UNL     1       7.799   1.062   0.981  1.00  0.00     0.198 C 
HETATM   29  O2  UNL     1       7.328  -0.234   1.091  1.00  0.00    -0.388 OA
HETATM   30  C13 UNL     1       7.222  -0.752  -0.208  1.00  0.00     0.198 C 
HETATM   31  C14 UNL     1       6.741   0.307  -1.176  1.00  0.00     0.298 C 
ENDBRANCH  25  26
ENDBRANCH  24  25
ENDBRANCH  17  24
BRANCH  18  32
HETATM   32  N5  UNL     1       3.595  -2.328  -0.219  1.00  0.00    -0.234 N 
ATOM     33  H52 UNL     1       4.482  -1.933  -0.531  1.00  0.00     0.174 HD
ATOM     34  H51 UNL     1       3.538  -3.284   0.131  1.00  0.00     0.174 HD
ENDBRANCH  18  32
BRANCH  22  35
HETATM   35  N8  UNL     1      -3.249  -1.606   0.855  1.00  0.00    -0.373 N 
ATOM     36  H8  UNL     1      -4.067  -0.999   0.800  1.00  0.00     0.161 HD
BRANCH  35  37
HETATM   37  C18 UNL     1      -3.456  -2.933   1.364  1.00  0.00     0.121 C 
BRANCH  37  38
HETATM   38  C19 UNL     1      -3.643  -3.937   0.232  1.00  0.00     0.015 C 
HETATM   39  C20 UNL     1      -4.854  -3.528  -0.582  1.00  0.00     0.006 C 
ENDBRANCH  37  38
ENDBRANCH  35  37
ENDBRANCH  22  35
ENDBRANCH   8  10
ENDBRANCH   7   8
ENDBRANCH   4   7
ENDBRANCH   3   4
TORSDOF 11
