REMARK  8 active torsions:
REMARK  status: ('A' for Active; 'I' for Inactive)
REMARK    1  A    between atoms: C2_2  and  O1_3 
REMARK    2  A    between atoms: C2_2  and  C3_5 
REMARK    3  A    between atoms: C5_8  and  N1_9 
REMARK    4  A    between atoms: N1_9  and  N2_11 
REMARK    5  A    between atoms: N2_11  and  N3_12 
REMARK    6  A    between atoms: C6_15  and  O3_16 
REMARK    7  A    between atoms: C7_18  and  O4_19 
REMARK    8  A    between atoms: C8_21  and  O5_22 
ROOT
HETATM    1  C3  UNL     1       0.784   0.514  -0.294  1.00  0.00     0.181 C 
HETATM    2  O2  UNL     1       0.283   0.972   0.901  1.00  0.00    -0.378 OA
HETATM    3  C4  UNL     1      -1.046   1.386   0.651  1.00  0.00     0.198 C 
HETATM    4  C5  UNL     1      -1.905   0.157   0.852  1.00  0.00     0.169 C 
HETATM    5  C6  UNL     1      -1.696  -0.878  -0.225  1.00  0.00     0.176 C 
HETATM    6  C7  UNL     1      -0.442  -1.668  -0.060  1.00  0.00     0.180 C 
HETATM    7  C8  UNL     1       0.811  -0.966  -0.416  1.00  0.00     0.180 C 
ENDROOT
BRANCH   4   8
HETATM    8  N1  UNL     1      -3.290   0.582   0.787  1.00  0.00    -0.243 N 
ATOM      9  H1  UNL     1      -3.974  -0.012   0.318  1.00  0.00     0.197 HD
BRANCH   8  10
HETATM   10  N2  UNL     1      -3.659   1.652   1.289  1.00  0.00    -0.248 NA
BRANCH  10  11
HETATM   11  N3  UNL     1      -3.830   2.673   1.981  1.00  0.00    -0.261 N 
ATOM     12  H32 UNL     1      -3.083   2.397   2.618  1.00  0.00     0.193 HD
ATOM     13  H31 UNL     1      -4.134   3.554   2.395  1.00  0.00     0.193 HD
ENDBRANCH  10  11
ENDBRANCH   8  10
ENDBRANCH   4   8
BRANCH   5  14
HETATM   14  O3  UNL     1      -1.844  -0.297  -1.464  1.00  0.00    -0.391 OA
ATOM     15  H3  UNL     1      -1.712  -0.949  -2.142  1.00  0.00     0.210 HD
ENDBRANCH   5  14
BRANCH   6  16
HETATM   16  O4  UNL     1      -0.557  -2.785  -0.923  1.00  0.00    -0.390 OA
ATOM     17  H4  UNL     1       0.242  -3.288  -0.818  1.00  0.00     0.210 HD
ENDBRANCH   6  16
BRANCH   1  18
HETATM   18  C2  UNL     1       2.230   1.012  -0.388  1.00  0.00     0.145 C 
HETATM   19  C1  UNL     1       3.030   0.517   0.785  1.00  0.00     0.042 C 
BRANCH  18  20
HETATM   20  O1  UNL     1       2.823   0.596  -1.570  1.00  0.00    -0.393 OA
ATOM     21  H1  UNL     1       2.318   0.909  -2.311  1.00  0.00     0.210 HD
ENDBRANCH  18  20
ENDBRANCH   1  18
BRANCH   7  22
HETATM   22  O5  UNL     1       1.259  -1.299  -1.701  1.00  0.00    -0.390 OA
ATOM     23  H5  UNL     1       1.276  -2.246  -1.779  1.00  0.00     0.210 HD
ENDBRANCH   7  22
TORSDOF 8
