REMARK  6 active torsions:
REMARK  status: ('A' for Active; 'I' for Inactive)
REMARK    1  A    between atoms: C4_4  and  C5_5 
REMARK    2  A    between atoms: C5_5  and  C6_6 
REMARK    3  A    between atoms: C9_13  and  N4_14 
REMARK       I    between atoms: N4_14  and  C10_16 
REMARK       I    between atoms: C10_16  and  N5_17 
REMARK       I    between atoms: C10_16  and  N6_21 
REMARK    4  A    between atoms: N8_28  and  C12_29 
REMARK    5  A    between atoms: C12_29  and  O1_30 
REMARK    6  A    between atoms: O1_30  and  C13_31 
ROOT
HETATM    1  C13 UNL     1       4.676   0.628  -0.379  1.00  0.00     0.444 C 
HETATM    2  O2  UNL     1       4.158   0.847   0.775  1.00  0.00    -0.221 OA
HETATM    3  N9  UNL     1       5.840  -0.096  -0.556  1.00  0.00    -0.370 NA
HETATM    4  C14 UNL     1       6.971  -0.800  -0.729  1.00  0.00     0.235 C 
ENDROOT
BRANCH   1   5
HETATM    5  O1  UNL     1       3.967   1.177  -1.409  1.00  0.00    -0.243 OA
BRANCH   5   6
HETATM    6  C12 UNL     1       2.821   1.889  -1.531  1.00  0.00     0.265 C 
BRANCH   6   7
HETATM    7  N8  UNL     1       1.584   1.237  -1.131  1.00  0.00    -0.245 N 
HETATM    8  C3  UNL     1       0.837   1.320  -0.006  1.00  0.00     0.065 A 
HETATM    9  C2  UNL     1       1.058   2.175   0.974  1.00  0.00     0.001 C 
HETATM   10  C4  UNL     1      -0.185   0.404  -0.122  1.00  0.00     0.010 A 
HETATM   11  C1  UNL     1       0.307   2.403   2.197  1.00  0.00     0.038 C 
HETATM   12  C11 UNL     1      -0.003  -0.217  -1.373  1.00  0.00     0.121 A 
HETATM   13  N7  UNL     1       1.058   0.305  -1.941  1.00  0.00    -0.303 N 
ATOM     14  H7  UNL     1       1.426   0.043  -2.856  1.00  0.00     0.186 HD
BRANCH  10  15
HETATM   15  C5  UNL     1      -1.183   0.097   0.687  1.00  0.00     0.034 C 
BRANCH  15  16
HETATM   16  C6  UNL     1      -2.127  -0.956   0.266  1.00  0.00     0.053 A 
HETATM   17  C7  UNL     1      -1.708  -2.304   0.243  1.00  0.00     0.146 A 
HETATM   18  N1  UNL     1      -0.429  -2.761   0.635  1.00  0.00    -0.080 NA
HETATM   19  N2  UNL     1      -2.770  -2.972  -0.199  1.00  0.00    -0.281 N 
HETATM   20  C8  UNL     1      -2.751  -4.428  -0.380  1.00  0.00     0.179 C 
HETATM   21  N3  UNL     1      -3.776  -2.177  -0.440  1.00  0.00    -0.282 N 
HETATM   22  C9  UNL     1      -3.409  -0.852  -0.152  1.00  0.00     0.132 A 
ATOM     23  H3  UNL     1      -4.689  -2.472  -0.785  1.00  0.00     0.189 HD
BRANCH  22  24
HETATM   24  N4  UNL     1      -4.224   0.097  -0.278  1.00  0.00    -0.325 N 
HETATM   25  C10 UNL     1      -4.164   1.464  -0.040  1.00  0.00     0.481 C 
HETATM   26  N5  UNL     1      -3.256   2.209  -0.855  1.00  0.00    -0.033 N 
HETATM   27  N6  UNL     1      -4.009   1.755   1.386  1.00  0.00    -0.033 N 
ATOM     28  H53 UNL     1      -2.321   1.806  -0.787  1.00  0.00     0.278 HD
ATOM     29  H52 UNL     1      -3.459   2.039  -1.840  1.00  0.00     0.278 HD
ATOM     30  H51 UNL     1      -3.212   3.213  -0.680  1.00  0.00     0.278 HD
ATOM     31  H63 UNL     1      -4.743   1.312   1.939  1.00  0.00     0.278 HD
ATOM     32  H62 UNL     1      -3.201   1.272   1.779  1.00  0.00     0.278 HD
ATOM     33  H61 UNL     1      -3.965   2.759   1.561  1.00  0.00     0.278 HD
ATOM     34  H4  UNL     1      -5.131  -0.204  -0.634  1.00  0.00     0.165 HD
ENDBRANCH  22  24
ENDBRANCH  15  16
ENDBRANCH  10  15
ENDBRANCH   6   7
ENDBRANCH   5   6
ENDBRANCH   1   5
TORSDOF 5
