REMARK  8 active torsions:
REMARK  status: ('A' for Active; 'I' for Inactive)
REMARK    1  A    between atoms: C2_2  and  O1_5 
REMARK    2  A    between atoms: O1_5  and  C5_6 
REMARK       I    between atoms: C5_6  and  N1_8 
REMARK    3  A    between atoms: N1_8  and  C6_10 
REMARK    4  A    between atoms: C6_10  and  C7_11 
REMARK    5  A    between atoms: C7_11  and  C8_12 
REMARK    6  A    between atoms: C8_12  and  C9_13 
REMARK    7  A    between atoms: C9_13  and  C10_14 
REMARK    8  A    between atoms: C12_16  and  C13_17 
ROOT
HETATM    1  C10 UNL     1      -2.059  -0.171   0.262  1.00  0.00    -0.038 C 
HETATM    2  C11 UNL     1      -2.247  -1.218  -0.777  1.00  0.00     0.025 C 
HETATM    3  C12 UNL     1      -3.424  -1.055  -1.674  1.00  0.00     0.088 C 
HETATM    4  C14 UNL     1      -4.551  -0.226  -1.122  1.00  0.00     0.020 C 
HETATM    5  C15 UNL     1      -4.156   1.037  -0.458  1.00  0.00    -0.002 C 
HETATM    6  C16 UNL     1      -2.637   1.091  -0.309  1.00  0.00     0.015 C 
HETATM    7  C17 UNL     1      -4.830   1.443   0.776  1.00  0.00     0.060 C 
HETATM    8  C18 UNL     1      -5.751   0.506   1.454  1.00  0.00     0.013 C 
HETATM    9  C19 UNL     1      -4.915  -0.356   2.382  1.00  0.00     0.013 C 
HETATM   10  C20 UNL     1      -3.509   0.259   2.326  1.00  0.00     0.056 C 
HETATM   11  C21 UNL     1      -2.587  -0.592   1.581  1.00  0.00     0.021 C 
HETATM   12  C22 UNL     1      -3.786   1.613   1.862  1.00  0.00     0.135 C 
HETATM   13  O5  UNL     1      -3.280   2.647   2.270  1.00  0.00    -0.297 OA
ENDROOT
BRANCH   1  14
HETATM   14  C9  UNL     1      -0.580   0.104   0.410  1.00  0.00     0.010 C 
BRANCH  14  15
HETATM   15  C8  UNL     1       0.106   0.600  -0.808  1.00  0.00     0.002 C 
BRANCH  15  16
HETATM   16  C7  UNL     1       1.578   0.809  -0.406  1.00  0.00     0.020 C 
BRANCH  16  17
HETATM   17  C6  UNL     1       2.386   1.312  -1.553  1.00  0.00     0.125 C 
BRANCH  17  18
HETATM   18  N1  UNL     1       3.755   1.501  -1.145  1.00  0.00    -0.337 N 
HETATM   19  C5  UNL     1       4.622   0.506  -0.663  1.00  0.00     0.361 C 
HETATM   20  O2  UNL     1       4.311  -0.703  -0.525  1.00  0.00    -0.238 OA
ATOM     21  H1  UNL     1       4.130   2.447  -1.213  1.00  0.00     0.164 HD
BRANCH  19  22
HETATM   22  O1  UNL     1       5.948   0.799  -0.287  1.00  0.00    -0.294 OA
BRANCH  22  23
HETATM   23  C2  UNL     1       6.825  -0.175   0.194  1.00  0.00     0.061 C 
HETATM   24  C1  UNL     1       7.083  -1.295  -0.767  1.00  0.00     0.046 C 
HETATM   25  C3  UNL     1       8.160   0.512   0.456  1.00  0.00     0.046 C 
HETATM   26  C4  UNL     1       6.384  -0.774   1.508  1.00  0.00     0.046 C 
ENDBRANCH  22  23
ENDBRANCH  19  22
ENDBRANCH  17  18
ENDBRANCH  16  17
ENDBRANCH  15  16
ENDBRANCH  14  15
ENDBRANCH   1  14
BRANCH   3  27
HETATM   27  C13 UNL     1      -3.888  -2.396  -2.118  1.00  0.00     0.177 C 
HETATM   28  O3  UNL     1      -3.293  -3.413  -1.723  1.00  0.00    -0.648 OA
HETATM   29  O4  UNL     1      -4.976  -2.565  -2.969  1.00  0.00    -0.648 OA
ENDBRANCH   3  27
TORSDOF 8
