REMARK  8 active torsions:
REMARK  status: ('A' for Active; 'I' for Inactive)
REMARK    1  A    between atoms: C6_6  and  O1_7 
REMARK    2  A    between atoms: C8_10  and  C9_11 
REMARK    3  A    between atoms: N1_23  and  O3_25 
REMARK    4  A    between atoms: O3_25  and  C20_26 
REMARK    5  A    between atoms: C20_26  and  C21_27 
REMARK    6  A    between atoms: C21_27  and  C22_28 
REMARK    7  A    between atoms: C22_28  and  C23_29 
REMARK    8  A    between atoms: C23_29  and  O4_30 
ROOT
HETATM    1  C1  UNL     1       1.560  -0.125   0.593  1.00  0.00     0.022 C 
HETATM    2  C2  UNL     1       0.842  -0.317  -0.693  1.00  0.00     0.001 C 
HETATM    3  C3  UNL     1       0.717  -1.791  -0.989  1.00  0.00     0.016 C 
HETATM    4  C4  UNL     1      -0.024  -2.434   0.117  1.00  0.00     0.009 C 
HETATM    5  C5  UNL     1      -1.239  -1.787   0.613  1.00  0.00     0.019 C 
HETATM    6  C6  UNL     1      -2.467  -2.501   0.026  1.00  0.00     0.123 C 
HETATM    7  C7  UNL     1      -3.538  -1.513   0.469  1.00  0.00     0.041 C 
HETATM    8  C8  UNL     1      -2.928  -0.217  -0.021  1.00  0.00     0.022 C 
HETATM    9  C15 UNL     1      -1.457  -0.345   0.316  1.00  0.00     0.005 C 
HETATM   10  C16 UNL     1      -0.554   0.258  -0.685  1.00  0.00     0.005 C 
HETATM   11  C17 UNL     1      -0.950   0.123  -2.116  1.00  0.00     0.012 C 
HETATM   12  C18 UNL     1       0.301   0.555  -2.843  1.00  0.00     0.056 C 
HETATM   13  C19 UNL     1       1.444   0.337  -1.866  1.00  0.00     0.018 C 
HETATM   14  N1  UNL     1       2.613   0.703  -2.173  1.00  0.00    -0.274 N 
ATOM     15  H1  UNL     1       2.714   1.143  -3.087  1.00  0.00     0.193 HD
ENDROOT
BRANCH  14  16
HETATM   16  O3  UNL     1       3.741   0.588  -1.452  1.00  0.00    -0.281 OA
BRANCH  16  17
HETATM   17  C20 UNL     1       4.624  -0.512  -1.554  1.00  0.00     0.201 C 
BRANCH  17  18
HETATM   18  C21 UNL     1       5.804  -0.309  -0.658  1.00  0.00     0.031 C 
BRANCH  18  19
HETATM   19  C22 UNL     1       5.396  -0.180   0.763  1.00  0.00     0.028 C 
BRANCH  19  20
HETATM   20  C23 UNL     1       6.618   0.030   1.661  1.00  0.00     0.164 C 
BRANCH  20  21
HETATM   21  O4  UNL     1       6.186   0.148   3.001  1.00  0.00    -0.401 OA
ATOM     22  H4  UNL     1       6.944   0.278   3.558  1.00  0.00     0.209 HD
ENDBRANCH  20  21
ENDBRANCH  19  20
ENDBRANCH  18  19
ENDBRANCH  17  18
ENDBRANCH  16  17
ENDBRANCH  14  16
BRANCH   8  23
HETATM   23  C9  UNL     1      -3.584   0.959   0.575  1.00  0.00    -0.072 C 
HETATM   24  C10 UNL     1      -4.623   0.795   1.414  1.00  0.00     0.053 C 
HETATM   25  C11 UNL     1      -5.242   1.983   1.982  1.00  0.00     0.149 C 
HETATM   26  O2  UNL     1      -5.555   1.975   3.218  1.00  0.00    -0.293 OA
HETATM   27  C12 UNL     1      -5.474   3.138   1.085  1.00  0.00     0.083 C 
HETATM   28  C13 UNL     1      -4.311   3.313   0.182  1.00  0.00     0.012 C 
HETATM   29  C14 UNL     1      -3.188   2.355   0.328  1.00  0.00     0.035 C 
ENDBRANCH   8  23
BRANCH   6  30
HETATM   30  O1  UNL     1      -2.658  -3.685   0.696  1.00  0.00    -0.395 OA
ATOM     31  H1  UNL     1      -3.417  -4.126   0.333  1.00  0.00     0.210 HD
ENDBRANCH   6  30
TORSDOF 8
