REMARK  8 active torsions:
REMARK  status: ('A' for Active; 'I' for Inactive)
REMARK    1  A    between atoms: N1_4  and  C4_5 
REMARK    2  A    between atoms: C4_5  and  C5_6 
REMARK    3  A    between atoms: C5_6  and  C6_7 
REMARK    4  A    between atoms: N2_17  and  C14_18 
REMARK    5  A    between atoms: C16_21  and  C17_22 
REMARK    6  A    between atoms: C17_22  and  O2_23 
REMARK    7  A    between atoms: C17_22  and  N3_25 
REMARK    8  A    between atoms: N3_25  and  O3_27 
ROOT
HETATM    1  C1  UNL     1      -1.049   0.039  -2.158  1.00  0.00     0.034 C 
HETATM    2  C2  UNL     1      -1.650   0.772  -0.967  1.00  0.00     0.107 C 
HETATM    3  C3  UNL     1      -0.484   0.958   0.022  1.00  0.00     0.149 C 
HETATM    4  N1  UNL     1       0.087  -0.340   0.330  1.00  0.00    -0.365 N 
HETATM    5  C12 UNL     1      -0.860  -1.309   0.751  1.00  0.00     0.167 C 
HETATM    6  S1  UNL     1      -0.400  -2.622   1.612  1.00  0.00    -0.054 SA
HETATM    7  C13 UNL     1      -2.293  -1.117   0.385  1.00  0.00     0.286 C 
HETATM    8  O1  UNL     1      -3.074  -1.999   0.779  1.00  0.00    -0.265 OA
HETATM    9  N2  UNL     1      -2.713  -0.000  -0.361  1.00  0.00    -0.305 N 
ENDROOT
BRANCH   9  10
HETATM   10  C14 UNL     1      -4.105   0.385  -0.544  1.00  0.00     0.046 A 
HETATM   11  C15 UNL     1      -4.416   1.338  -1.503  1.00  0.00     0.080 A 
HETATM   12  S2  UNL     1      -6.097   1.503  -1.386  1.00  0.00    -0.095 SA
HETATM   13  C16 UNL     1      -6.396   0.381  -0.142  1.00  0.00     0.059 A 
HETATM   14  C18 UNL     1      -5.148  -0.104   0.157  1.00  0.00     0.053 A 
BRANCH  13  15
HETATM   15  C17 UNL     1      -7.696   0.018   0.482  1.00  0.00     0.177 C 
BRANCH  15  16
HETATM   16  O2  UNL     1      -7.773  -0.965   1.442  1.00  0.00    -0.344 OA
ATOM     17  H2  UNL     1      -8.604  -1.197   1.841  1.00  0.00     0.219 HD
ENDBRANCH  15  16
BRANCH  15  18
HETATM   18  N3  UNL     1      -8.750   0.633   0.115  1.00  0.00    -0.246 N 
ATOM     19  H3  UNL     1      -9.648   0.392   0.535  1.00  0.00     0.196 HD
BRANCH  18  20
HETATM   20  O3  UNL     1      -8.688   1.611  -0.835  1.00  0.00    -0.288 OA
ATOM     21  H3  UNL     1      -9.474   2.069  -1.109  1.00  0.00     0.244 HD
ENDBRANCH  18  20
ENDBRANCH  15  18
ENDBRANCH  13  15
ENDBRANCH   9  10
BRANCH   4  22
HETATM   22  C4  UNL     1       1.453  -0.688   0.212  1.00  0.00     0.124 C 
BRANCH  22  23
HETATM   23  C5  UNL     1       2.399  -0.029   1.134  1.00  0.00     0.024 C 
BRANCH  23  24
HETATM   24  C6  UNL     1       3.807  -0.513   0.831  1.00  0.00    -0.013 C 
HETATM   25  C7  UNL     1       4.790   0.164   1.802  1.00  0.00     0.005 C 
HETATM   26  C8  UNL     1       6.120  -0.514   1.559  1.00  0.00     0.000 C 
HETATM   27  C9  UNL     1       6.618   0.003   0.231  1.00  0.00     0.000 C 
HETATM   28  C10 UNL     1       5.643  -0.156  -0.876  1.00  0.00     0.000 C 
HETATM   29  C11 UNL     1       4.202  -0.033  -0.539  1.00  0.00     0.005 C 
ENDBRANCH  23  24
ENDBRANCH  22  23
ENDBRANCH   4  22
TORSDOF 8
