REMARK  5 active torsions:
REMARK  status: ('A' for Active; 'I' for Inactive)
REMARK    1  A    between atoms: C2_2  and  C3_3 
REMARK    2  A    between atoms: C3_3  and  N1_4 
REMARK       I    between atoms: N4_13  and  C9_14 
REMARK    3  A    between atoms: C9_14  and  C10_16 
REMARK    4  A    between atoms: C11_17  and  C12_18 
REMARK    5  A    between atoms: C14_21  and  C15_22 
ROOT
HETATM    1  C15 UNL     1      -1.033  -1.264  -1.405  1.00  0.00    -0.082 C 
HETATM    2  C16 UNL     1      -1.370  -2.352  -1.828  1.00  0.00    -0.023 C 
HETATM    3 BR1  UNL     1      -1.883  -4.030  -2.496  1.00  0.00     0.010 Br
ENDROOT
BRANCH   1   4
HETATM    4  C14 UNL     1      -0.637   0.047  -0.916  1.00  0.00     0.046 C 
HETATM    5  C7  UNL     1      -0.911   0.083   0.597  1.00  0.00     0.026 C 
HETATM    6  C6  UNL     1      -0.134  -1.029   1.196  1.00  0.00     0.009 C 
HETATM    7  C8  UNL     1      -2.388  -0.060   0.600  1.00  0.00     0.133 C 
HETATM    8  C5  UNL     1       1.339  -0.615   1.079  1.00  0.00     0.011 C 
HETATM    9  C2  UNL     1       1.763  -0.330  -0.309  1.00  0.00    -0.026 C 
HETATM   10  C1  UNL     1       2.239  -1.647  -0.932  1.00  0.00     0.017 C 
HETATM   11  C17 UNL     1       0.785   0.378  -1.169  1.00  0.00     0.035 C 
HETATM   12  N4  UNL     1      -2.781   0.754  -0.538  1.00  0.00    -0.339 N 
HETATM   13  C9  UNL     1      -4.109   1.177  -0.782  1.00  0.00     0.298 C 
HETATM   14  C13 UNL     1      -1.631   1.062  -1.367  1.00  0.00     0.149 C 
HETATM   15  O1  UNL     1      -4.377   1.888  -1.798  1.00  0.00    -0.258 OA
BRANCH   9  16
HETATM   16  C3  UNL     1       3.020   0.548  -0.233  1.00  0.00     0.131 C 
BRANCH  16  17
HETATM   17  N1  UNL     1       4.030  -0.088   0.588  1.00  0.00    -0.366 N 
HETATM   18  C4  UNL     1       5.138   0.543   0.745  1.00  0.00     0.196 C 
HETATM   19  N2  UNL     1       6.138  -0.069   1.548  1.00  0.00    -0.067 NA
HETATM   20  N3  UNL     1       5.434   1.810   0.172  1.00  0.00    -0.067 NA
ATOM     21  H1  UNL     1       3.869  -0.997   1.022  1.00  0.00     0.161 HD
ENDBRANCH  16  17
ENDBRANCH   9  16
BRANCH  13  22
HETATM   22  C10 UNL     1      -5.208   0.847   0.067  1.00  0.00    -0.003 C 
HETATM   23  C11 UNL     1      -6.142   0.587   0.784  1.00  0.00    -0.065 C 
BRANCH  23  24
HETATM   24  C12 UNL     1      -7.273   0.289   1.669  1.00  0.00     0.316 C 
HETATM   25  F1  UNL     1      -8.422   0.228   0.922  1.00  0.00    -0.242 F 
ENDBRANCH  23  24
ENDBRANCH  13  22
ENDBRANCH   1   4
TORSDOF 5
