REMARK  8 active torsions:
REMARK  status: ('A' for Active; 'I' for Inactive)
REMARK    1  A    between atoms: N2_4  and  N3_6 
REMARK    2  A    between atoms: N3_6  and  C1_8 
REMARK       I    between atoms: N4_11  and  C4_12 
REMARK    3  A    between atoms: C4_12  and  C5_14 
REMARK    4  A    between atoms: C5_14  and  C6_15 
REMARK    5  A    between atoms: C7_16  and  C8_17 
REMARK    6  A    between atoms: C11_20  and  C12_21 
REMARK    7  A    between atoms: C12_21  and  C13_22 
REMARK       I    between atoms: N5_29  and  C19_30 
REMARK    8  A    between atoms: C19_30  and  C20_32 
ROOT
HETATM    1  C8  UNL     1      -1.143  -0.121   2.284  1.00  0.00     0.115 C 
HETATM    2  C9  UNL     1      -1.301   0.874   3.486  1.00  0.00     0.035 C 
HETATM    3  C10 UNL     1      -1.706   2.091   2.613  1.00  0.00     0.055 C 
HETATM    4  C11 UNL     1      -2.786   1.435   1.759  1.00  0.00    -0.003 C 
HETATM    5  N5  UNL     1      -2.402   0.076   1.636  1.00  0.00    -0.316 N 
HETATM    6  C19 UNL     1      -3.199  -0.972   1.078  1.00  0.00     0.228 C 
HETATM    7  O2  UNL     1      -4.269  -0.605   0.465  1.00  0.00    -0.273 OA
ENDROOT
BRANCH   1   8
HETATM    8  C7  UNL     1       0.103   0.203   1.590  1.00  0.00    -0.005 C 
HETATM    9  C6  UNL     1       0.277   0.143   0.310  1.00  0.00    -0.019 C 
BRANCH   9  10
HETATM   10  C5  UNL     1       1.394   0.407  -0.576  1.00  0.00     0.130 C 
BRANCH  10  11
HETATM   11  C4  UNL     1       2.668   0.848  -0.034  1.00  0.00     0.223 C 
HETATM   12  N4  UNL     1       3.753   1.092  -0.935  1.00  0.00    -0.350 N 
HETATM   13  C3  UNL     1       3.700   0.940  -2.356  1.00  0.00     0.128 C 
HETATM   14  C26 UNL     1       5.076   1.528  -0.571  1.00  0.00     0.152 C 
HETATM   15  C2  UNL     1       5.067   0.482  -2.762  1.00  0.00     0.048 C 
HETATM   16  C1  UNL     1       5.962   1.059  -1.713  1.00  0.00     0.120 C 
HETATM   17  O1  UNL     1       2.878   1.028   1.170  1.00  0.00    -0.273 OA
BRANCH  16  18
HETATM   18  N3  UNL     1       6.913   0.075  -1.233  1.00  0.00    -0.316 N 
ATOM     19  H3  UNL     1       6.911  -0.177  -0.245  1.00  0.00     0.182 HD
BRANCH  18  20
HETATM   20  N2  UNL     1       7.829  -0.534  -2.087  1.00  0.00    -0.253 N 
HETATM   21  N1  UNL     1       8.041  -1.796  -2.027  1.00  0.00    -0.331 N 
ATOM     22  H12 UNL     1       7.525  -2.346  -1.341  1.00  0.00     0.178 HD
ATOM     23  H11 UNL     1       8.712  -2.242  -2.653  1.00  0.00     0.178 HD
ATOM     24  H2  UNL     1       8.337   0.031  -2.768  1.00  0.00     0.207 HD
ENDBRANCH  18  20
ENDBRANCH  16  18
ENDBRANCH  10  11
ENDBRANCH   9  10
ENDBRANCH   1   8
BRANCH   4  25
HETATM   25  C12 UNL     1      -3.323   2.232   0.673  1.00  0.00     0.091 C 
BRANCH  25  26
HETATM   26  C13 UNL     1      -2.463   2.712  -0.402  1.00  0.00    -0.052 A 
HETATM   27  C14 UNL     1      -1.741   3.868  -0.233  1.00  0.00     0.007 A 
HETATM   28  C15 UNL     1      -0.942   4.368  -1.257  1.00  0.00     0.002 A 
HETATM   29  C16 UNL     1      -0.904   3.663  -2.437  1.00  0.00     0.019 A 
HETATM   30  C17 UNL     1      -1.605   2.501  -2.662  1.00  0.00     0.011 A 
HETATM   31 BR1  UNL     1      -1.513   1.564  -4.326  1.00  0.00    -0.051 Br
HETATM   32  C18 UNL     1      -2.385   2.053  -1.602  1.00  0.00     0.026 A 
ENDBRANCH  25  26
ENDBRANCH   4  25
BRANCH   6  33
HETATM   33  C20 UNL     1      -2.913  -2.407   1.148  1.00  0.00     0.078 C 
HETATM   34  C21 UNL     1      -1.886  -2.949   0.222  1.00  0.00     0.014 C 
HETATM   35  C22 UNL     1      -2.092  -4.421  -0.075  1.00  0.00     0.001 C 
HETATM   36  C23 UNL     1      -2.716  -5.136   1.103  1.00  0.00     0.000 C 
HETATM   37  C24 UNL     1      -4.075  -4.577   1.460  1.00  0.00     0.001 C 
HETATM   38  C25 UNL     1      -4.228  -3.173   0.917  1.00  0.00     0.014 C 
ENDBRANCH   6  33
TORSDOF 8
