REMARK  3 active torsions:
REMARK  status: ('A' for Active; 'I' for Inactive)
REMARK    1  A    between atoms: C2_2  and  C3_3 
REMARK    2  A    between atoms: C3_3  and  C5_8 
REMARK    3  A    between atoms: N1_4  and  O1_6 
ROOT
HETATM    1  C5  UNL     1      -0.358  -0.280  -0.083  1.00  0.00     0.036 C 
HETATM    2  C6  UNL     1      -1.168  -0.901  -1.186  1.00  0.00     0.022 C 
HETATM    3  C7  UNL     1      -2.549  -0.315  -1.018  1.00  0.00     0.011 C 
HETATM    4  C8  UNL     1      -2.467   0.652   0.160  1.00  0.00     0.025 C 
HETATM    5  C9  UNL     1      -2.713  -0.162   1.402  1.00  0.00     0.065 C 
HETATM    6  N2  UNL     1      -1.598  -0.784   1.965  1.00  0.00    -0.381 N 
ATOM      7  H2  UNL     1      -1.580  -0.998   2.962  1.00  0.00     0.164 HD
HETATM    8  C10 UNL     1      -0.497  -1.115   1.149  1.00  0.00     0.076 C 
HETATM    9  C11 UNL     1      -0.993   1.060   0.203  1.00  0.00     0.031 C 
ENDROOT
BRANCH   1  10
HETATM   10  C3  UNL     1       1.087  -0.092  -0.495  1.00  0.00     0.045 C 
HETATM   11  N1  UNL     1       1.509   1.099  -0.478  1.00  0.00    -0.270 N 
ATOM     12  H1  UNL     1       0.820   1.793  -0.188  1.00  0.00     0.194 HD
BRANCH  10  13
HETATM   13  C2  UNL     1       1.811  -1.295  -0.857  1.00  0.00     0.018 C 
HETATM   14  C1  UNL     1       3.054  -1.271  -1.227  1.00  0.00     0.013 C 
ENDBRANCH  10  13
BRANCH  11  15
HETATM   15  O1  UNL     1       2.700   1.591  -0.776  1.00  0.00    -0.285 OA
HETATM   16  C4  UNL     1       3.513   2.359   0.117  1.00  0.00     0.237 C 
ENDBRANCH  11  15
ENDBRANCH   1  10
TORSDOF 3
