REMARK  1 active torsions:
REMARK  status: ('A' for Active; 'I' for Inactive)
REMARK    1  A    between atoms: C3_5  and  O2_6 
ROOT
HETATM    1  O1  UNL     1       3.052   0.175   0.607  1.00  0.00    -0.263 OA
HETATM    2  C1  UNL     1       1.781   0.206   0.745  1.00  0.00     0.286 C 
HETATM    3  C2  UNL     1       1.200   1.491   0.351  1.00  0.00     0.189 C 
HETATM    4  S1  UNL     1      -0.563   1.537   0.261  1.00  0.00    -0.126 SA
HETATM    5  C3  UNL     1      -1.355   0.120  -0.439  1.00  0.00     0.196 C 
HETATM    6  C4  UNL     1      -0.496  -1.111  -0.422  1.00  0.00     0.185 C 
HETATM    7  N1  UNL     1      -0.123  -1.371   0.966  1.00  0.00    -0.088 NA
HETATM    8  O3  UNL     1       1.158  -0.918   1.222  1.00  0.00    -0.206 OA
ENDROOT
BRANCH   5   9
HETATM    9  O2  UNL     1      -2.556  -0.108   0.268  1.00  0.00    -0.384 OA
ATOM     10  H2  UNL     1      -2.982  -0.869  -0.108  1.00  0.00     0.211 HD
ENDBRANCH   5   9
TORSDOF 1
