REMARK  5 active torsions:
REMARK  status: ('A' for Active; 'I' for Inactive)
REMARK    1  A    between atoms: C5_7  and  N2_8 
REMARK    2  A    between atoms: N2_8  and  C6_10 
REMARK    3  A    between atoms: C6_10  and  C7_11 
REMARK    4  A    between atoms: C7_11  and  N3_12 
REMARK    5  A    between atoms: C9_15  and  C10_16 
ROOT
HETATM    1  N2  UNL     1       1.897  -0.635   1.350  1.00  0.00    -0.225 N 
ATOM      2  H2  UNL     1       2.040  -0.569   2.358  1.00  0.00     0.177 HD
ENDROOT
BRANCH   1   3
HETATM    3  C5  UNL     1       2.906  -0.067   0.529  1.00  0.00     0.670 C 
HETATM    4  N1  UNL     1       2.841   0.323  -0.832  1.00  0.00    -0.224 N 
HETATM    5  C4  UNL     1       3.934   1.265  -1.045  1.00  0.00     0.168 C 
ATOM      6  H1  UNL     1       2.163   0.007  -1.526  1.00  0.00     0.177 HD
HETATM    7  C2  UNL     1       4.925   0.723  -0.038  1.00  0.00     0.056 C 
HETATM    8  C1  UNL     1       5.695  -0.405  -0.694  1.00  0.00     0.040 C 
HETATM    9  C3  UNL     1       5.859   1.802   0.472  1.00  0.00     0.040 C 
HETATM   10  N4  UNL     1       4.108   0.164   0.986  1.00  0.00    -0.216 N 
ATOM     11  H4  UNL     1       4.417  -0.028   1.939  1.00  0.00     0.178 HD
ENDBRANCH   1   3
BRANCH   1  12
HETATM   12  C6  UNL     1       0.703  -1.289   0.916  1.00  0.00     0.158 C 
BRANCH  12  13
HETATM   13  C7  UNL     1      -0.258  -0.312   0.329  1.00  0.00     0.147 C 
BRANCH  13  14
HETATM   14  N3  UNL     1      -1.477  -0.955  -0.125  1.00  0.00    -0.335 N 
HETATM   15  C8  UNL     1      -2.090  -1.584  -1.323  1.00  0.00     0.244 A 
HETATM   16  O1  UNL     1      -1.997  -1.918  -2.524  1.00  0.00    -0.271 OA
HETATM   17  C9  UNL     1      -2.795  -1.477  -0.014  1.00  0.00     0.183 A 
BRANCH  17  18
HETATM   18  C10 UNL     1      -3.873  -0.479   0.201  1.00  0.00     0.018 C 
HETATM   19  C11 UNL     1      -3.961   0.527  -0.936  1.00  0.00     0.007 C 
HETATM   20  C12 UNL     1      -5.204   1.305  -0.468  1.00  0.00     0.000 C 
HETATM   21  C13 UNL     1      -6.089   0.263   0.209  1.00  0.00     0.000 C 
HETATM   22  C14 UNL     1      -5.271  -1.035   0.201  1.00  0.00     0.007 C 
ENDBRANCH  17  18
ENDBRANCH  13  14
ENDBRANCH  12  13
ENDBRANCH   1  12
TORSDOF 5
