REMARK  8 active torsions:
REMARK  status: ('A' for Active; 'I' for Inactive)
REMARK    1  A    between atoms: C2_2  and  S1_3 
REMARK    2  A    between atoms: S1_3  and  C3_4 
REMARK    3  A    between atoms: C3_4  and  C4_5 
REMARK    4  A    between atoms: C4_5  and  N1_6 
REMARK    5  A    between atoms: N1_6  and  C5_8 
REMARK    6  A    between atoms: C5_8  and  N2_10 
REMARK    7  A    between atoms: N2_10  and  C6_12 
REMARK    8  A    between atoms: C6_12  and  C7_13 
ROOT
HETATM    1  C5  UNL     1      -0.002  -0.381   0.568  1.00  0.00     0.167 C 
HETATM    2  S2  UNL     1      -0.940  -0.519   1.875  1.00  0.00    -0.041 SA
ENDROOT
BRANCH   1   3
HETATM    3  N1  UNL     1      -0.569  -0.190  -0.706  1.00  0.00    -0.367 N 
ATOM      4  H1  UNL     1       0.051  -0.134  -1.514  1.00  0.00     0.161 HD
BRANCH   3   5
HETATM    5  C4  UNL     1      -1.979  -0.071  -0.914  1.00  0.00     0.132 C 
BRANCH   5   6
HETATM    6  C3  UNL     1      -2.499   1.228  -0.379  1.00  0.00     0.093 C 
BRANCH   6   7
HETATM    7  S1  UNL     1      -4.291   1.370  -0.641  1.00  0.00    -0.168 SA
BRANCH   7   8
HETATM    8  C2  UNL     1      -5.171   0.136   0.354  1.00  0.00     0.069 C 
HETATM    9  C1  UNL     1      -6.653   0.306   0.093  1.00  0.00     0.016 C 
ENDBRANCH   7   8
ENDBRANCH   6   7
ENDBRANCH   5   6
ENDBRANCH   3   5
ENDBRANCH   1   3
BRANCH   1  10
HETATM   10  N2  UNL     1       1.409  -0.474   0.691  1.00  0.00    -0.363 N 
ATOM     11  H2  UNL     1       1.816  -0.615   1.615  1.00  0.00     0.162 HD
BRANCH  10  12
HETATM   12  C6  UNL     1       2.290  -0.375  -0.458  1.00  0.00     0.182 C 
BRANCH  12  13
HETATM   13  C7  UNL     1       3.707  -0.513   0.011  1.00  0.00     0.277 C 
HETATM   14  O1  UNL     1       4.639  -0.432  -1.029  1.00  0.00    -0.358 OA
HETATM   15  C8  UNL     1       5.868  -0.295  -0.345  1.00  0.00     0.197 C 
HETATM   16  C9  UNL     1       5.462   0.210   1.032  1.00  0.00     0.197 C 
HETATM   17  O2  UNL     1       4.125   0.575   0.800  1.00  0.00    -0.358 OA
ENDBRANCH  12  13
ENDBRANCH  10  12
ENDBRANCH   1  10
TORSDOF 8
