REMARK  7 active torsions:
REMARK  status: ('A' for Active; 'I' for Inactive)
REMARK    1  A    between atoms: C2_2  and  O1_3 
REMARK    2  A    between atoms: C2_2  and  C3_5 
REMARK    3  A    between atoms: C3_5  and  N1_6 
REMARK    4  A    between atoms: C3_5  and  C15_20 
REMARK       I    between atoms: N1_6  and  C4_8 
REMARK    5  A    between atoms: C4_8  and  C5_10 
REMARK       I    between atoms: C15_20  and  N2_22 
REMARK    6  A    between atoms: C16_23  and  N3_24 
REMARK       I    between atoms: N3_24  and  C17_26 
REMARK    7  A    between atoms: C17_26  and  C18_28 
ROOT
HETATM    1  C15 UNL     1      -1.731  -1.191  -0.451  1.00  0.00     0.247 C 
HETATM    2  O3  UNL     1      -2.460  -1.791  -1.320  1.00  0.00    -0.271 OA
HETATM    3  N2  UNL     1      -0.481  -1.755  -0.139  1.00  0.00    -0.324 N 
HETATM    4  C16 UNL     1       0.437  -1.279   0.828  1.00  0.00     0.190 C 
HETATM    5  C30 UNL     1       0.690  -2.375   1.857  1.00  0.00     0.047 C 
HETATM    6  C31 UNL     1       0.872  -3.728   1.310  1.00  0.00     0.010 C 
HETATM    7  C32 UNL     1       0.742  -3.892  -0.151  1.00  0.00     0.011 A 
HETATM    8  C33 UNL     1      -0.684  -4.250  -0.619  1.00  0.00     0.032 A 
HETATM    9  C34 UNL     1      -0.078  -2.945  -0.882  1.00  0.00     0.094 A 
ENDROOT
BRANCH   1  10
HETATM   10  C3  UNL     1      -2.313   0.041   0.123  1.00  0.00     0.205 C 
BRANCH  10  11
HETATM   11  C2  UNL     1      -1.588   1.275  -0.412  1.00  0.00     0.146 C 
HETATM   12  C1  UNL     1      -2.114   2.515   0.234  1.00  0.00     0.042 C 
BRANCH  11  13
HETATM   13  O1  UNL     1      -1.716   1.300  -1.803  1.00  0.00    -0.393 OA
ATOM     14  H1  UNL     1      -1.381   0.511  -2.214  1.00  0.00     0.210 HD
ENDBRANCH  11  13
ENDBRANCH  10  11
BRANCH  10  15
HETATM   15  N1  UNL     1      -3.721   0.151  -0.283  1.00  0.00    -0.345 N 
HETATM   16  C4  UNL     1      -4.748   0.211   0.702  1.00  0.00     0.227 C 
HETATM   17  O2  UNL     1      -4.418   0.166   1.913  1.00  0.00    -0.273 OA
ATOM     18  H1  UNL     1      -3.964   0.184  -1.273  1.00  0.00     0.163 HD
BRANCH  16  19
HETATM   19  C5  UNL     1      -6.167   0.322   0.353  1.00  0.00     0.042 C 
HETATM   20  C6  UNL     1      -6.632  -0.854  -0.482  1.00  0.00     0.024 C 
HETATM   21  C7  UNL     1      -8.091  -0.689  -0.784  1.00  0.00    -0.013 C 
HETATM   22  C8  UNL     1      -8.328   0.547  -1.593  1.00  0.00     0.009 C 
HETATM   23  C12 UNL     1      -8.853  -0.654   0.522  1.00  0.00     0.009 C 
HETATM   24  C9  UNL     1      -7.844   1.758  -0.822  1.00  0.00    -0.013 C 
HETATM   25  C10 UNL     1      -8.637   1.847   0.467  1.00  0.00     0.009 C 
HETATM   26  C14 UNL     1      -6.378   1.567  -0.518  1.00  0.00     0.024 C 
HETATM   27  C11 UNL     1      -8.451   0.582   1.268  1.00  0.00    -0.013 C 
HETATM   28  C13 UNL     1      -6.984   0.458   1.602  1.00  0.00     0.024 C 
ENDBRANCH  16  19
ENDBRANCH  10  15
ENDBRANCH   1  10
BRANCH   4  29
HETATM   29  N3  UNL     1       1.722  -0.849   0.335  1.00  0.00    -0.339 N 
HETATM   30  C17 UNL     1       2.387   0.338   0.636  1.00  0.00     0.223 C 
HETATM   31  O4  UNL     1       1.867   1.164   1.413  1.00  0.00    -0.273 OA
ATOM     32  H3  UNL     1       2.197  -1.485  -0.306  1.00  0.00     0.164 HD
BRANCH  30  33
HETATM   33  C18 UNL     1       3.705   0.646   0.052  1.00  0.00     0.078 C 
HETATM   34  C19 UNL     1       4.163   1.979   0.536  1.00  0.00     0.014 C 
HETATM   35  C20 UNL     1       5.625   2.057   0.848  1.00  0.00     0.006 C 
HETATM   36  C21 UNL     1       6.400   1.249  -0.158  1.00  0.00    -0.007 C 
HETATM   37  C22 UNL     1       7.883   1.384  -0.016  1.00  0.00    -0.014 C 
HETATM   38  C28 UNL     1       6.067  -0.226   0.032  1.00  0.00    -0.009 C 
HETATM   39  C23 UNL     1       8.271   2.688   0.674  1.00  0.00     0.010 C 
HETATM   40  C24 UNL     1       8.563   1.329  -1.342  1.00  0.00     0.005 C 
HETATM   41  C25 UNL     1       8.696  -0.021  -1.936  1.00  0.00     0.000 C 
HETATM   42  C26 UNL     1       7.968  -1.109  -1.198  1.00  0.00     0.000 C 
HETATM   43  C27 UNL     1       6.462  -0.934  -1.235  1.00  0.00     0.005 C 
HETATM   44  C29 UNL     1       4.660  -0.461   0.449  1.00  0.00     0.019 C 
ENDBRANCH  30  33
ENDBRANCH   4  29
TORSDOF 7
