REMARK  7 active torsions:
REMARK  status: ('A' for Active; 'I' for Inactive)
REMARK    1  A    between atoms: C2_2  and  C3_3 
REMARK    2  A    between atoms: C3_3  and  C4_4 
REMARK    3  A    between atoms: C4_4  and  C5_5 
REMARK    4  A    between atoms: C5_5  and  C6_6 
REMARK    5  A    between atoms: C6_6  and  S1_7 
REMARK    6  A    between atoms: S1_7  and  N1_10 
REMARK    7  A    between atoms: C14_20  and  C15_21 
ROOT
HETATM    1  N1  UNL     1      -0.827  -0.284  -0.608  1.00  0.00    -0.295 N 
HETATM    2  C7  UNL     1      -0.932   0.390   0.620  1.00  0.00     0.141 C 
HETATM    3  C8  UNL     1      -2.303   1.067   0.756  1.00  0.00     0.020 C 
HETATM    4  C9  UNL     1      -2.451   1.685   2.130  1.00  0.00     0.117 C 
HETATM    5  C10 UNL     1      -3.807   2.254   2.213  1.00  0.00     0.259 C 
HETATM    6  O3  UNL     1      -4.032   3.262   2.913  1.00  0.00    -0.265 OA
HETATM    7  O4  UNL     1      -4.848   1.678   1.515  1.00  0.00    -0.321 OA
HETATM    8  C11 UNL     1      -4.726   0.400   0.967  1.00  0.00     0.183 C 
HETATM    9  C12 UNL     1      -3.353  -0.012   0.588  1.00  0.00     0.018 C 
HETATM   10  C13 UNL     1      -3.244  -0.461  -0.859  1.00  0.00     0.044 C 
HETATM   11  C14 UNL     1      -1.871  -1.124  -1.038  1.00  0.00     0.197 C 
ENDROOT
BRANCH   1  12
HETATM   12  S1  UNL     1       0.728  -0.592  -1.211  1.00  0.00     0.229 S 
HETATM   13  O1  UNL     1       0.681  -1.424  -2.460  1.00  0.00    -0.206 OA
HETATM   14  O2  UNL     1       1.432  -1.453  -0.169  1.00  0.00    -0.206 OA
BRANCH  12  15
HETATM   15  C6  UNL     1       1.672   0.843  -1.533  1.00  0.00     0.163 C 
BRANCH  15  16
HETATM   16  C5  UNL     1       3.010   0.498  -2.073  1.00  0.00     0.017 C 
BRANCH  16  17
HETATM   17  C4  UNL     1       3.897  -0.326  -1.211  1.00  0.00     0.005 C 
BRANCH  17  18
HETATM   18  C3  UNL     1       4.209   0.330   0.126  1.00  0.00     0.026 C 
BRANCH  18  19
HETATM   19  C2  UNL     1       5.092  -0.600   0.871  1.00  0.00    -0.037 C 
HETATM   20  C1  UNL     1       6.297  -0.211   1.241  1.00  0.00     0.007 C 
ENDBRANCH  18  19
ENDBRANCH  17  18
ENDBRANCH  16  17
ENDBRANCH  15  16
ENDBRANCH  12  15
ENDBRANCH   1  12
BRANCH  11  21
HETATM   21  C15 UNL     1      -1.918  -2.370  -0.250  1.00  0.00     0.197 C 
HETATM   22  O5  UNL     1      -1.087  -2.589   0.655  1.00  0.00    -0.646 OA
HETATM   23  O6  UNL     1      -2.892  -3.304  -0.515  1.00  0.00    -0.646 OA
ENDBRANCH  11  21
TORSDOF 7
