REMARK  8 active torsions:
REMARK  status: ('A' for Active; 'I' for Inactive)
REMARK    1  A    between atoms: N1_1  and  S1_4 
REMARK    2  A    between atoms: S1_4  and  C1_7 
REMARK       I    between atoms: N4_13  and  C3_15 
REMARK    3  A    between atoms: C3_15  and  C4_17 
REMARK    4  A    between atoms: C4_17  and  C5_18 
REMARK    5  A    between atoms: C5_18  and  C6_19 
REMARK    6  A    between atoms: C6_19  and  C7_20 
REMARK    7  A    between atoms: C7_20  and  C8_21 
REMARK    8  A    between atoms: C8_21  and  N5_22 
ROOT
HETATM    1  C1  UNL     1       5.855  -0.491   0.132  1.00  0.00     0.208 A 
HETATM    2  N2  UNL     1       6.090  -1.793   0.184  1.00  0.00    -0.281 N 
ATOM      3  H2  UNL     1       7.035  -2.133   0.365  1.00  0.00     0.188 HD
HETATM    4  N3  UNL     1       5.143  -2.619   0.009  1.00  0.00    -0.278 N 
ATOM      5  H3  UNL     1       5.316  -3.623   0.047  1.00  0.00     0.189 HD
HETATM    6  C2  UNL     1       3.914  -2.149  -0.226  1.00  0.00     0.168 A 
HETATM    7  N4  UNL     1       2.821  -2.851  -0.429  1.00  0.00    -0.306 N 
ATOM      8  H4  UNL     1       2.832  -3.871  -0.421  1.00  0.00     0.171 HD
HETATM    9  C3  UNL     1       1.623  -2.121  -0.660  1.00  0.00     0.223 C 
HETATM   10  O3  UNL     1       1.098  -2.143  -1.799  1.00  0.00    -0.273 OA
HETATM   11  S2  UNL     1       4.177  -0.458  -0.186  1.00  0.00    -0.020 SA
ENDROOT
BRANCH   9  12
HETATM   12  C4  UNL     1       0.974  -1.334   0.409  1.00  0.00     0.103 C 
BRANCH  12  13
HETATM   13  C5  UNL     1      -0.273  -0.675  -0.137  1.00  0.00     0.009 C 
BRANCH  13  14
HETATM   14  C6  UNL     1      -0.896   0.107   0.970  1.00  0.00     0.002 C 
BRANCH  14  15
HETATM   15  C7  UNL     1      -2.163   0.832   0.578  1.00  0.00     0.020 C 
BRANCH  15  16
HETATM   16  C8  UNL     1      -3.199  -0.163   0.108  1.00  0.00     0.128 C 
BRANCH  16  17
HETATM   17  N5  UNL     1      -4.435   0.508  -0.276  1.00  0.00    -0.366 N 
HETATM   18  C9  UNL     1      -5.387   0.708   0.637  1.00  0.00     0.090 A 
HETATM   19  C10 UNL     1      -6.581   1.335   0.346  1.00  0.00     0.017 A 
HETATM   20  C11 UNL     1      -6.835   1.789  -0.931  1.00  0.00     0.003 A 
HETATM   21  C12 UNL     1      -5.856   1.586  -1.881  1.00  0.00     0.017 A 
HETATM   22  C13 UNL     1      -4.667   0.944  -1.529  1.00  0.00     0.090 A 
ENDBRANCH  16  17
ENDBRANCH  15  16
ENDBRANCH  14  15
ENDBRANCH  13  14
ENDBRANCH  12  13
ENDBRANCH   9  12
BRANCH   1  23
HETATM   23  S1  UNL     1       6.995   0.848   0.341  1.00  0.00     0.280 S 
HETATM   24  O1  UNL     1       6.233   1.973   0.959  1.00  0.00    -0.199 OA
HETATM   25  O2  UNL     1       8.049   0.358   1.288  1.00  0.00    -0.199 OA
BRANCH  23  26
HETATM   26  N1  UNL     1       7.691   1.311  -1.146  1.00  0.00    -0.323 N 
ATOM     27  H12 UNL     1       7.590   2.243  -1.549  1.00  0.00     0.169 HD
ATOM     28  H11 UNL     1       8.212   0.542  -1.568  1.00  0.00     0.169 HD
ENDBRANCH  23  26
ENDBRANCH   1  23
TORSDOF 8
