REMARK  7 active torsions:
REMARK  status: ('A' for Active; 'I' for Inactive)
REMARK    1  A    between atoms: N1_5  and  C4_6 
REMARK    2  A    between atoms: C4_6  and  C5_7 
REMARK    3  A    between atoms: C5_7  and  C6_8 
REMARK    4  A    between atoms: C6_8  and  C7_9 
REMARK    5  A    between atoms: C7_9  and  N2_10 
REMARK    6  A    between atoms: N3_14  and  C11_15 
REMARK    7  A    between atoms: C11_15  and  C12_16 
ROOT
HETATM    1  N2  UNL     1      -0.841  -0.327  -0.672  1.00  0.00     0.090 N 
HETATM    2  C8  UNL     1      -1.404   0.402   0.424  1.00  0.00     0.274 C 
HETATM    3  C9  UNL     1      -2.679   1.114   0.095  1.00  0.00     0.050 C 
HETATM    4  C10 UNL     1      -3.692   0.243  -0.598  1.00  0.00     0.119 C 
HETATM    5  N3  UNL     1      -3.769  -1.076  -0.078  1.00  0.00    -0.405 N 
HETATM    6  C15 UNL     1      -2.624  -1.896  -0.210  1.00  0.00     0.147 C 
HETATM    7  C16 UNL     1      -1.594  -1.421  -1.165  1.00  0.00     0.291 C 
ENDROOT
BRANCH   1   8
HETATM    8  C7  UNL     1      -0.311   0.528  -1.712  1.00  0.00     0.272 C 
BRANCH   8   9
HETATM    9  C6  UNL     1       0.899   1.290  -1.284  1.00  0.00     0.032 C 
BRANCH   9  10
HETATM   10  C5  UNL     1       2.043   0.390  -0.871  1.00  0.00     0.032 C 
BRANCH  10  11
HETATM   11  C4  UNL     1       3.173   1.335  -0.467  1.00  0.00     0.272 C 
BRANCH  11  12
HETATM   12  N1  UNL     1       4.345   0.630  -0.049  1.00  0.00     0.090 N 
HETATM   13  C3  UNL     1       4.161  -0.082   1.192  1.00  0.00     0.281 C 
HETATM   14  C2  UNL     1       5.400  -0.768   1.672  1.00  0.00     0.133 C 
HETATM   15  C1  UNL     1       6.287  -1.192   0.556  1.00  0.00     0.219 C 
HETATM   16  O1  UNL     1       6.473  -2.425   0.384  1.00  0.00    -0.274 OA
HETATM   17  N6  UNL     1       6.977  -0.371  -0.374  1.00  0.00    -0.359 N 
HETATM   18  C18 UNL     1       6.653   0.958  -0.817  1.00  0.00     0.152 C 
ATOM     19  H6  UNL     1       7.817  -0.779  -0.784  1.00  0.00     0.162 HD
HETATM   20  C17 UNL     1       5.482   1.520  -0.023  1.00  0.00     0.292 C 
ENDBRANCH  11  12
ENDBRANCH  10  11
ENDBRANCH   9  10
ENDBRANCH   8   9
ENDBRANCH   1   8
BRANCH   5  21
HETATM   21  C11 UNL     1      -4.561  -1.239   1.088  1.00  0.00     0.175 C 
BRANCH  21  22
HETATM   22  C12 UNL     1      -5.997  -0.885   0.896  1.00  0.00     0.043 A 
HETATM   23  C13 UNL     1      -6.833  -0.577   1.943  1.00  0.00     0.115 A 
HETATM   24  N4  UNL     1      -8.051  -0.313   1.438  1.00  0.00    -0.360 N 
HETATM   25  C14 UNL     1      -7.963  -0.457   0.104  1.00  0.00     0.180 A 
ATOM     26  H4  UNL     1      -8.884  -0.053   1.967  1.00  0.00     0.166 HD
HETATM   27  N5  UNL     1      -6.710  -0.804  -0.215  1.00  0.00    -0.353 N 
ATOM     28  H5  UNL     1      -6.363  -0.977  -1.158  1.00  0.00     0.166 HD
ENDBRANCH  21  22
ENDBRANCH   5  21
TORSDOF 7
