REMARK  7 active torsions:
REMARK  status: ('A' for Active; 'I' for Inactive)
REMARK    1  A    between atoms: C6_6  and  C7_7 
REMARK    2  A    between atoms: C7_7  and  C8_8 
REMARK    3  A    between atoms: C7_7  and  N1_11 
REMARK    4  A    between atoms: C11_14  and  C12_15 
REMARK    5  A    between atoms: C12_15  and  O4_17 
REMARK    6  A    between atoms: O4_17  and  C13_18 
REMARK    7  A    between atoms: C13_18  and  C14_19 
ROOT
HETATM    1  N1  UNL     1       0.430   0.356   0.506  1.00  0.00     0.103 N 
HETATM    2  C9  UNL     1       1.436   0.613   1.499  1.00  0.00     0.274 C 
HETATM    3  C10 UNL     1       2.356   1.720   0.995  1.00  0.00     0.045 C 
HETATM    4  C11 UNL     1       3.014   1.420  -0.305  1.00  0.00     0.089 C 
HETATM    5  C15 UNL     1       2.082   0.733  -1.280  1.00  0.00     0.045 C 
HETATM    6  C16 UNL     1       1.202  -0.276  -0.596  1.00  0.00     0.274 C 
ENDROOT
BRANCH   1   7
HETATM    7  C7  UNL     1      -0.622  -0.520   0.892  1.00  0.00     0.326 C 
BRANCH   7   8
HETATM    8  C6  UNL     1      -1.762  -0.477  -0.135  1.00  0.00     0.030 C 
HETATM    9  C5  UNL     1      -2.592   0.775   0.005  1.00  0.00     0.007 C 
HETATM   10  C4  UNL     1      -3.559   0.945  -1.144  1.00  0.00     0.001 C 
HETATM   11  C3  UNL     1      -4.907   0.326  -0.850  1.00  0.00     0.004 C 
HETATM   12  C2  UNL     1      -4.819  -1.149  -1.074  1.00  0.00    -0.019 C 
HETATM   13  C1  UNL     1      -6.221  -1.725  -0.853  1.00  0.00     0.010 C 
HETATM   14  C18 UNL     1      -3.960  -1.715   0.066  1.00  0.00     0.005 C 
HETATM   15  C17 UNL     1      -2.519  -1.728  -0.274  1.00  0.00     0.007 C 
ENDBRANCH   7   8
BRANCH   7  16
HETATM   16  C8  UNL     1      -1.092  -0.480   2.254  1.00  0.00     0.208 C 
HETATM   17  O1  UNL     1      -1.882  -1.458   2.604  1.00  0.00    -0.646 OA
HETATM   18  O2  UNL     1      -0.900   0.370   3.292  1.00  0.00    -0.646 OA
ENDBRANCH   7  16
ENDBRANCH   1   7
BRANCH   4  19
HETATM   19  C12 UNL     1       4.231   0.597  -0.049  1.00  0.00     0.263 C 
HETATM   20  O3  UNL     1       4.299  -0.535  -0.574  1.00  0.00    -0.265 OA
BRANCH  19  21
HETATM   21  O4  UNL     1       5.259   1.048   0.737  1.00  0.00    -0.312 OA
BRANCH  21  22
HETATM   22  C13 UNL     1       6.405   0.277   0.966  1.00  0.00     0.278 C 
BRANCH  22  23
HETATM   23  C14 UNL     1       7.155   0.083  -0.272  1.00  0.00     0.255 C 
HETATM   24  N2  UNL     1       6.753   0.743  -1.460  1.00  0.00    -0.060 NA
HETATM   25  O5  UNL     1       8.182  -0.661  -0.357  1.00  0.00    -0.274 OA
ENDBRANCH  22  23
ENDBRANCH  21  22
ENDBRANCH  19  21
ENDBRANCH   4  19
TORSDOF 7
