REMARK  7 active torsions:
REMARK  status: ('A' for Active; 'I' for Inactive)
REMARK    1  A    between atoms: C2_2  and  C4_4 
REMARK    2  A    between atoms: C4_4  and  O1_5 
REMARK    3  A    between atoms: O1_5  and  C5_6 
REMARK       I    between atoms: C5_6  and  N1_8 
REMARK    4  A    between atoms: N1_8  and  C6_10 
REMARK    5  A    between atoms: C6_10  and  C8_12 
REMARK       I    between atoms: C8_12  and  N2_14 
REMARK    6  A    between atoms: C13_20  and  C14_21 
REMARK       I    between atoms: C14_21  and  N4_23 
REMARK    7  A    between atoms: N4_23  and  C15_25 
ROOT
HETATM    1  C8  UNL     1      -0.244   0.454  -0.206  1.00  0.00     0.244 C 
HETATM    2  O3  UNL     1      -0.094  -0.541   0.547  1.00  0.00    -0.271 OA
HETATM    3  N2  UNL     1      -1.456   1.203  -0.241  1.00  0.00    -0.320 N 
HETATM    4  C9  UNL     1      -1.795   2.353  -1.030  1.00  0.00     0.195 C 
HETATM    5  C10 UNL     1      -1.052   3.518  -0.554  1.00  0.00     0.085 C 
HETATM    6  N3  UNL     1      -0.473   4.430  -0.186  1.00  0.00    -0.195 NA
HETATM    7  C11 UNL     1      -3.288   2.543  -0.879  1.00  0.00     0.043 C 
HETATM    8  C12 UNL     1      -3.509   2.072   0.554  1.00  0.00     0.038 C 
HETATM    9  C13 UNL     1      -2.599   0.867   0.590  1.00  0.00     0.180 C 
ENDROOT
BRANCH   1  10
HETATM   10  C6  UNL     1       0.923   0.818  -1.071  1.00  0.00     0.175 C 
HETATM   11  C7  UNL     1       0.543   0.710  -2.532  1.00  0.00     0.042 C 
BRANCH  10  12
HETATM   12  N1  UNL     1       2.023  -0.090  -0.838  1.00  0.00    -0.324 N 
HETATM   13  C5  UNL     1       3.276   0.437  -0.435  1.00  0.00     0.361 C 
HETATM   14  O2  UNL     1       3.445   1.672  -0.279  1.00  0.00    -0.238 OA
ATOM     15  H1  UNL     1       1.900  -1.095  -0.962  1.00  0.00     0.165 HD
BRANCH  13  16
HETATM   16  O1  UNL     1       4.379  -0.375  -0.192  1.00  0.00    -0.304 OA
BRANCH  16  17
HETATM   17  C4  UNL     1       5.634   0.134   0.209  1.00  0.00     0.184 C 
BRANCH  17  18
HETATM   18  C2  UNL     1       6.556  -1.078   0.365  1.00  0.00     0.002 C 
HETATM   19  C1  UNL     1       6.615  -1.755  -0.988  1.00  0.00     0.011 C 
HETATM   20  C3  UNL     1       7.924  -0.683   0.834  1.00  0.00     0.011 C 
ENDBRANCH  17  18
ENDBRANCH  16  17
ENDBRANCH  13  16
ENDBRANCH  10  12
ENDBRANCH   1  10
BRANCH   9  21
HETATM   21  C14 UNL     1      -3.348  -0.285   0.081  1.00  0.00     0.241 C 
HETATM   22  O4  UNL     1      -2.998  -0.881  -0.967  1.00  0.00    -0.271 OA
HETATM   23  N4  UNL     1      -4.486  -0.744   0.771  1.00  0.00    -0.355 N 
ATOM     24  H4  UNL     1      -4.774  -0.263   1.623  1.00  0.00     0.162 HD
BRANCH  23  25
HETATM   25  C15 UNL     1      -5.267  -1.886   0.307  1.00  0.00     0.076 C 
HETATM   26  C16 UNL     1      -6.692  -1.455   0.122  1.00  0.00     0.032 C 
HETATM   27  C17 UNL     1      -5.251  -2.992   1.355  1.00  0.00     0.032 C 
ENDBRANCH  23  25
ENDBRANCH   9  21
TORSDOF 7
