REMARK  6 active torsions:
REMARK  status: ('A' for Active; 'I' for Inactive)
REMARK    1  A    between atoms: C2_2  and  O1_3 
REMARK    2  A    between atoms: O1_3  and  C3_4 
REMARK       I    between atoms: C3_4  and  N1_6 
REMARK    3  A    between atoms: N1_6  and  C4_8 
REMARK    4  A    between atoms: C4_8  and  C5_9 
REMARK    5  A    between atoms: C4_8  and  C10_20 
REMARK       I    between atoms: C5_9  and  N2_11 
REMARK    6  A    between atoms: N2_11  and  C6_13 
ROOT
HETATM    1  C4  UNL     1      -0.270   0.382  -0.990  1.00  0.00     0.187 C 
ENDROOT
BRANCH   1   2
HETATM    2  N1  UNL     1      -0.980   1.669  -1.150  1.00  0.00    -0.323 N 
HETATM    3  C3  UNL     1      -1.089   2.714  -0.236  1.00  0.00     0.361 C 
HETATM    4  O2  UNL     1      -0.623   2.802   0.928  1.00  0.00    -0.238 OA
ATOM      5  H1  UNL     1      -1.450   1.809  -2.044  1.00  0.00     0.165 HD
BRANCH   3   6
HETATM    6  O1  UNL     1      -1.834   3.854  -0.669  1.00  0.00    -0.304 OA
BRANCH   6   7
HETATM    7  C2  UNL     1      -1.979   4.960   0.229  1.00  0.00     0.176 C 
HETATM    8  C1  UNL     1      -0.624   5.514   0.592  1.00  0.00     0.034 C 
ENDBRANCH   6   7
ENDBRANCH   3   6
ENDBRANCH   1   2
BRANCH   1   9
HETATM    9  C5  UNL     1       1.085   0.582  -0.502  1.00  0.00     0.241 C 
HETATM   10  O3  UNL     1       1.530   1.681  -0.035  1.00  0.00    -0.271 OA
HETATM   11  N2  UNL     1       2.054  -0.441  -0.510  1.00  0.00    -0.354 N 
ATOM     12  H2  UNL     1       1.803  -1.358  -0.881  1.00  0.00     0.162 HD
BRANCH  11  13
HETATM   13  C6  UNL     1       3.414  -0.227  -0.001  1.00  0.00     0.099 C 
HETATM   14  C7  UNL     1       4.423  -0.452  -1.074  1.00  0.00     0.041 C 
HETATM   15  C8  UNL     1       5.749  -0.135  -0.412  1.00  0.00     0.142 C 
HETATM   16  S1  UNL     1       5.540  -1.014   1.145  1.00  0.00     0.146 S 
HETATM   17  O4  UNL     1       6.065  -2.400   1.052  1.00  0.00    -0.228 OA
HETATM   18  O5  UNL     1       6.067  -0.230   2.284  1.00  0.00    -0.228 OA
HETATM   19  C9  UNL     1       3.742  -1.111   1.166  1.00  0.00     0.165 C 
ENDBRANCH  11  13
ENDBRANCH   1   9
BRANCH   1  20
HETATM   20  C10 UNL     1      -1.172  -0.616  -0.376  1.00  0.00    -0.010 C 
HETATM   21  C11 UNL     1      -0.541  -1.945  -0.198  1.00  0.00     0.016 C 
HETATM   22  C12 UNL     1      -1.572  -2.994   0.223  1.00  0.00    -0.013 C 
HETATM   23  C13 UNL     1      -2.653  -3.112  -0.827  1.00  0.00     0.009 C 
HETATM   24  C17 UNL     1      -2.199  -2.598   1.517  1.00  0.00     0.009 C 
HETATM   25  C14 UNL     1      -3.343  -1.772  -0.943  1.00  0.00    -0.013 C 
HETATM   26  C15 UNL     1      -3.951  -1.351   0.367  1.00  0.00     0.009 C 
HETATM   27  C19 UNL     1      -2.353  -0.747  -1.382  1.00  0.00     0.016 C 
HETATM   28  C16 UNL     1      -2.802  -1.245   1.355  1.00  0.00    -0.013 C 
HETATM   29  C18 UNL     1      -1.812  -0.178   0.913  1.00  0.00     0.016 C 
ENDBRANCH   1  20
TORSDOF 6
