REMARK  8 active torsions:
REMARK  status: ('A' for Active; 'I' for Inactive)
REMARK    1  A    between atoms: C2_2  and  N1_4 
REMARK       I    between atoms: N1_4  and  C4_6 
REMARK    2  A    between atoms: C4_6  and  C5_8 
REMARK    3  A    between atoms: C8_11  and  C9_12 
REMARK    4  A    between atoms: C9_12  and  C10_13 
REMARK       I    between atoms: C10_13  and  N2_15 
REMARK    5  A    between atoms: C12_17  and  N3_18 
REMARK    6  A    between atoms: C13_22  and  C14_23 
REMARK    7  A    between atoms: C14_23  and  O4_25 
REMARK    8  A    between atoms: O4_25  and  C15_26 
ROOT
HETATM    1  C10 UNL     1      -0.424  -1.567   0.519  1.00  0.00     0.220 C 
HETATM    2  O2  UNL     1       0.353  -2.541   0.619  1.00  0.00    -0.273 OA
HETATM    3  N2  UNL     1      -1.813  -1.819   0.467  1.00  0.00    -0.349 N 
HETATM    4  C11 UNL     1      -2.424  -3.131   0.519  1.00  0.00     0.159 C 
HETATM    5  C12 UNL     1      -3.808  -2.879  -0.097  1.00  0.00     0.216 C 
HETATM    6  C13 UNL     1      -4.125  -1.529   0.483  1.00  0.00     0.135 C 
HETATM    7  C19 UNL     1      -2.825  -0.796   0.354  1.00  0.00     0.142 C 
ENDROOT
BRANCH   1   8
HETATM    8  C9  UNL     1       0.059  -0.190   0.456  1.00  0.00     0.107 C 
BRANCH   8   9
HETATM    9  C8  UNL     1       1.531   0.015   0.417  1.00  0.00    -0.006 C 
HETATM   10  C7  UNL     1       1.728   1.547   0.388  1.00  0.00     0.006 C 
HETATM   11  C6  UNL     1       3.044   1.868  -0.281  1.00  0.00     0.014 C 
HETATM   12  C5  UNL     1       4.039   0.825   0.167  1.00  0.00     0.078 C 
HETATM   13  C21 UNL     1       3.704  -0.471  -0.560  1.00  0.00     0.014 C 
HETATM   14  C20 UNL     1       2.213  -0.581  -0.802  1.00  0.00     0.006 C 
BRANCH  12  15
HETATM   15  C4  UNL     1       5.439   1.255  -0.096  1.00  0.00     0.222 C 
HETATM   16  N1  UNL     1       6.521   0.422   0.255  1.00  0.00    -0.357 N 
ATOM     17  H1  UNL     1       6.337  -0.481   0.692  1.00  0.00     0.162 HD
HETATM   18  O1  UNL     1       5.608   2.388  -0.643  1.00  0.00    -0.273 OA
BRANCH  16  19
HETATM   19  C2  UNL     1       7.881   0.823   0.008  1.00  0.00     0.076 C 
HETATM   20  C1  UNL     1       8.505  -0.181  -0.923  1.00  0.00     0.032 C 
HETATM   21  C3  UNL     1       8.676   0.929   1.315  1.00  0.00     0.032 C 
ENDBRANCH  16  19
ENDBRANCH  12  15
ENDBRANCH   8   9
ENDBRANCH   1   8
BRANCH   5  22
HETATM   22  N3  UNL     1      -3.649  -2.816  -1.535  1.00  0.00    -0.073 N 
ATOM     23  H33 UNL     1      -2.955  -2.128  -1.826  1.00  0.00     0.274 HD
ATOM     24  H32 UNL     1      -3.190  -3.642  -1.919  1.00  0.00     0.274 HD
ATOM     25  H31 UNL     1      -4.568  -2.649  -1.944  1.00  0.00     0.274 HD
ENDBRANCH   5  22
BRANCH   6  26
HETATM   26  C14 UNL     1      -5.240  -0.847  -0.217  1.00  0.00     0.267 C 
HETATM   27  O3  UNL     1      -5.846  -1.335  -1.185  1.00  0.00    -0.265 OA
BRANCH  26  28
HETATM   28  O4  UNL     1      -5.612   0.395   0.242  1.00  0.00    -0.311 OA
BRANCH  28  29
HETATM   29  C15 UNL     1      -6.631   1.185  -0.285  1.00  0.00     0.060 C 
HETATM   30  C16 UNL     1      -7.954   0.456  -0.200  1.00  0.00     0.045 C 
HETATM   31  C17 UNL     1      -6.668   2.473   0.541  1.00  0.00     0.045 C 
HETATM   32  C18 UNL     1      -6.412   1.599  -1.713  1.00  0.00     0.045 C 
ENDBRANCH  28  29
ENDBRANCH  26  28
ENDBRANCH   6  26
TORSDOF 8
