REMARK  5 active torsions:
REMARK  status: ('A' for Active; 'I' for Inactive)
REMARK       I    between atoms: C2_2  and  N1_4 
REMARK    1  A    between atoms: N1_4  and  C3_6 
REMARK    2  A    between atoms: C4_11  and  C5_12 
REMARK    3  A    between atoms: C5_12  and  N4_13 
REMARK       I    between atoms: N4_13  and  C6_15 
REMARK    4  A    between atoms: C6_15  and  C7_17 
REMARK    5  A    between atoms: C11_21  and  N5_22 
REMARK       I    between atoms: N5_22  and  C12_24 
ROOT
HETATM    1  N4  UNL     1       1.195   0.010  -0.577  1.00  0.00    -0.355 N 
ATOM      2  H4  UNL     1       1.353   0.068   0.429  1.00  0.00     0.162 HD
HETATM    3  C6  UNL     1      -0.051   0.394  -1.123  1.00  0.00     0.222 C 
HETATM    4  O2  UNL     1      -0.277   0.335  -2.352  1.00  0.00    -0.273 OA
ENDROOT
BRANCH   1   5
HETATM    5  C5  UNL     1       2.248  -0.467  -1.454  1.00  0.00     0.189 C 
BRANCH   5   6
HETATM    6  C4  UNL     1       3.445  -0.798  -0.593  1.00  0.00     0.087 A 
HETATM    7  N3  UNL     1       3.744  -1.953  -0.016  1.00  0.00    -0.294 N 
HETATM    8  N2  UNL     1       4.798  -2.064   0.681  1.00  0.00    -0.279 N 
ATOM      9  H3  UNL     1       3.125  -2.755  -0.133  1.00  0.00     0.187 HD
HETATM   10  C3  UNL     1       5.593  -0.996   0.817  1.00  0.00     0.167 A 
ATOM     11  H2  UNL     1       5.035  -2.949   1.129  1.00  0.00     0.189 HD
HETATM   12  S2  UNL     1       4.758   0.178  -0.102  1.00  0.00    -0.036 SA
BRANCH  10  13
HETATM   13  N1  UNL     1       6.718  -0.923   1.496  1.00  0.00    -0.306 N 
HETATM   14  C2  UNL     1       7.381   0.330   1.487  1.00  0.00     0.219 C 
HETATM   15  C1  UNL     1       8.743   0.409   0.890  1.00  0.00     0.117 C 
HETATM   16  O1  UNL     1       6.852   1.366   1.966  1.00  0.00    -0.274 OA
ATOM     17  H1  UNL     1       7.093  -1.725   2.002  1.00  0.00     0.171 HD
ENDBRANCH  10  13
ENDBRANCH   5   6
ENDBRANCH   1   5
BRANCH   3  18
HETATM   18  C7  UNL     1      -1.122   0.881  -0.227  1.00  0.00     0.078 C 
HETATM   19  C8  UNL     1      -1.505  -0.158   0.785  1.00  0.00     0.014 C 
HETATM   20  C9  UNL     1      -2.472  -1.179   0.249  1.00  0.00     0.003 C 
HETATM   21  C10 UNL     1      -3.886  -0.749   0.642  1.00  0.00     0.025 C 
HETATM   22  C11 UNL     1      -4.337   0.226  -0.435  1.00  0.00     0.085 C 
HETATM   23  C13 UNL     1      -3.547   1.511  -0.198  1.00  0.00     0.026 C 
HETATM   24  C14 UNL     1      -2.287   1.409  -1.008  1.00  0.00     0.016 C 
BRANCH  22  25
HETATM   25  N5  UNL     1      -5.744   0.424  -0.317  1.00  0.00    -0.347 N 
HETATM   26  C12 UNL     1      -6.632   0.090  -1.402  1.00  0.00     0.291 C 
HETATM   27  O3  UNL     1      -6.210  -0.382  -2.478  1.00  0.00    -0.260 OA
HETATM   28  S1  UNL     1      -8.393   0.342  -1.248  1.00  0.00     0.013 SA
ATOM     29  H5  UNL     1      -6.127   0.807   0.547  1.00  0.00     0.163 HD
ENDBRANCH  22  25
ENDBRANCH   3  18
TORSDOF 5
