REMARK  11 active torsions:
REMARK  status: ('A' for Active; 'I' for Inactive)
REMARK    1  A    between atoms: C2_2  and  C3_3 
REMARK    2  A    between atoms: C3_3  and  N1_5 
REMARK    3  A    between atoms: C8_11  and  C9_12 
REMARK    4  A    between atoms: C9_12  and  C10_13 
REMARK    5  A    between atoms: C10_13  and  C11_14 
REMARK    6  A    between atoms: C11_14  and  N3_15 
REMARK    7  A    between atoms: C13_20  and  O2_21 
REMARK    8  A    between atoms: C14_25  and  C15_26 
REMARK    9  A    between atoms: C15_26  and  C16_27 
REMARK   10  A    between atoms: C20_34  and  C21_35 
REMARK   11  A    between atoms: C21_35  and  C22_36 
ROOT
HETATM    1  N1  UNL     1       1.647  -2.440  -0.361  1.00  0.00    -0.353 N 
HETATM    2  C5  UNL     1       0.410  -3.280  -0.526  1.00  0.00     0.228 C 
HETATM    3  C6  UNL     1       0.216  -3.469   0.972  1.00  0.00     0.247 C 
HETATM    4  O1  UNL     1       0.086  -4.553   1.480  1.00  0.00    -0.271 OA
HETATM    5  N2  UNL     1       0.243  -2.076   1.491  1.00  0.00    -0.272 N 
HETATM    6  C7  UNL     1       1.155  -1.422   0.614  1.00  0.00     0.123 C 
HETATM    7  C8  UNL     1       1.547  -0.126   0.589  1.00  0.00     0.037 C 
HETATM    8  C13 UNL     1       1.144   0.982   1.441  1.00  0.00     0.146 C 
HETATM    9  N6  UNL     1      -0.042   1.718   1.635  1.00  0.00    -0.357 N 
ATOM     10  H6  UNL     1      -0.218   2.006   2.598  1.00  0.00     0.162 HD
HETATM   11  C14 UNL     1      -1.059   2.133   0.671  1.00  0.00     0.176 C 
HETATM   12  C19 UNL     1      -2.373   2.366   1.294  1.00  0.00     0.241 C 
HETATM   13  O3  UNL     1      -2.598   3.545   1.738  1.00  0.00    -0.271 OA
HETATM   14  N7  UNL     1      -3.396   1.412   1.448  1.00  0.00    -0.346 N 
ATOM     15  H7  UNL     1      -3.826   1.334   2.370  1.00  0.00     0.163 HD
HETATM   16  C20 UNL     1      -3.896   0.521   0.396  1.00  0.00     0.177 C 
HETATM   17  C25 UNL     1      -2.996  -0.632   0.237  1.00  0.00     0.240 C 
HETATM   18  O4  UNL     1      -2.631  -0.875  -0.978  1.00  0.00    -0.271 OA
HETATM   19  N8  UNL     1      -2.484  -1.491   1.209  1.00  0.00    -0.354 N 
ATOM     20  H8  UNL     1      -2.547  -2.480   0.968  1.00  0.00     0.162 HD
HETATM   21  C26 UNL     1      -1.890  -1.235   2.476  1.00  0.00     0.175 C 
HETATM   22  C27 UNL     1      -0.524  -1.777   2.654  1.00  0.00     0.013 C 
HETATM   23  C28 UNL     1       0.165  -1.126   3.816  1.00  0.00     0.066 C 
ENDROOT
BRANCH   7  24
HETATM   24  C9  UNL     1       2.540   0.270  -0.495  1.00  0.00     0.048 C 
BRANCH  24  25
HETATM   25  C10 UNL     1       3.893   0.648   0.079  1.00  0.00     0.025 C 
BRANCH  25  26
HETATM   26  C11 UNL     1       4.840   0.997  -1.092  1.00  0.00     0.122 C 
BRANCH  26  27
HETATM   27  N3  UNL     1       6.112   1.353  -0.564  1.00  0.00    -0.367 N 
HETATM   28  C12 UNL     1       6.417   2.589  -0.390  1.00  0.00     0.196 C 
HETATM   29  N4  UNL     1       7.692   2.946   0.138  1.00  0.00    -0.067 NA
HETATM   30  N5  UNL     1       5.446   3.572  -0.740  1.00  0.00    -0.067 NA
ATOM     31  H3  UNL     1       6.784   0.625  -0.323  1.00  0.00     0.161 HD
ENDBRANCH  26  27
ENDBRANCH  25  26
ENDBRANCH  24  25
ENDBRANCH   7  24
BRANCH   8  32
HETATM   32  O2  UNL     1       2.071   1.444   2.235  1.00  0.00    -0.346 OA
ATOM     33  H2  UNL     1       1.808   2.168   2.791  1.00  0.00     0.219 HD
ENDBRANCH   8  32
BRANCH   1  34
HETATM   34  C3  UNL     1       2.852  -2.779  -0.938  1.00  0.00     0.082 C 
HETATM   35  C4  UNL     1       3.187  -4.244  -0.449  1.00  0.00     0.032 C 
BRANCH  34  36
HETATM   36  C2  UNL     1       2.639  -3.047  -2.449  1.00  0.00     0.020 C 
HETATM   37  C1  UNL     1       3.900  -3.620  -3.056  1.00  0.00     0.007 C 
ENDBRANCH  34  36
ENDBRANCH   1  34
BRANCH  11  38
HETATM   38  C15 UNL     1      -0.681   3.434  -0.003  1.00  0.00     0.038 C 
BRANCH  38  39
HETATM   39  C16 UNL     1      -1.650   3.924  -1.005  1.00  0.00    -0.020 C 
HETATM   40  C17 UNL     1      -1.831   2.913  -2.133  1.00  0.00     0.009 C 
HETATM   41  C18 UNL     1      -1.070   5.225  -1.581  1.00  0.00     0.009 C 
ENDBRANCH  38  39
ENDBRANCH  11  38
BRANCH  16  42
HETATM   42  C21 UNL     1      -5.290   0.092   0.698  1.00  0.00     0.038 C 
BRANCH  42  43
HETATM   43  C22 UNL     1      -6.014  -0.777  -0.258  1.00  0.00    -0.020 C 
HETATM   44  C23 UNL     1      -5.500  -2.122  -0.575  1.00  0.00     0.009 C 
HETATM   45  C24 UNL     1      -7.483  -0.919   0.170  1.00  0.00     0.009 C 
ENDBRANCH  42  43
ENDBRANCH  16  42
TORSDOF 11
