REMARK  7 active torsions:
REMARK  status: ('A' for Active; 'I' for Inactive)
REMARK       I    between atoms: N1_1  and  C1_4 
REMARK       I    between atoms: C1_4  and  N3_6 
REMARK    1  A    between atoms: N3_6  and  C2_8 
REMARK    2  A    between atoms: C3_14  and  C4_15 
REMARK    3  A    between atoms: N8_24  and  C8_25 
REMARK    4  A    between atoms: C8_25  and  C9_26 
REMARK    5  A    between atoms: C9_26  and  O3_27 
REMARK    6  A    between atoms: C9_26  and  C10_29 
REMARK       I    between atoms: C10_29  and  N9_31 
REMARK    7  A    between atoms: N9_31  and  N10_32 
ROOT
HETATM    1  C4  UNL     1      -2.458  -2.450  -0.252  1.00  0.00     0.119 A 
HETATM    2  N6  UNL     1      -3.147  -3.587  -0.314  1.00  0.00    -0.276 N 
ATOM      3  H6  UNL     1      -4.077  -3.686  -0.722  1.00  0.00     0.189 HD
HETATM    4  N7  UNL     1      -2.465  -4.548   0.218  1.00  0.00    -0.201 N 
ATOM      5  H7  UNL     1      -2.762  -5.520   0.300  1.00  0.00     0.216 HD
HETATM    6  O2  UNL     1      -1.343  -4.062   0.627  1.00  0.00    -0.219 OA
HETATM    7  C5  UNL     1      -1.257  -2.766   0.375  1.00  0.00     0.148 A 
HETATM    8  C6  UNL     1      -0.142  -1.906   0.694  1.00  0.00     0.089 A 
HETATM    9  C7  UNL     1       0.256  -1.297   1.867  1.00  0.00     0.130 A 
HETATM   10  N8  UNL     1       1.383  -0.600   1.646  1.00  0.00    -0.297 N 
HETATM   11  N11 UNL     1       1.708  -0.756   0.347  1.00  0.00    -0.264 N 
ATOM     12  H11 UNL     1       2.519  -0.340  -0.111  1.00  0.00     0.190 HD
HETATM   13  C11 UNL     1       0.820  -1.525  -0.237  1.00  0.00     0.274 A 
HETATM   14  O5  UNL     1       0.804  -1.892  -1.463  1.00  0.00    -0.266 OA
ENDROOT
BRANCH   1  15
HETATM   15  C3  UNL     1      -2.803  -1.116  -0.699  1.00  0.00     0.133 A 
HETATM   16  C2  UNL     1      -2.764  -0.672  -2.008  1.00  0.00     0.161 A 
HETATM   17  N4  UNL     1      -3.168   0.619  -2.008  1.00  0.00    -0.223 N 
HETATM   18  O1  UNL     1      -3.431   0.938  -0.784  1.00  0.00    -0.155 OA
ATOM     19  H4  UNL     1      -3.250   1.227  -2.823  1.00  0.00     0.198 HD
HETATM   20  N5  UNL     1      -3.226  -0.071   0.030  1.00  0.00    -0.236 N 
ATOM     21  H5  UNL     1      -3.364  -0.063   1.041  1.00  0.00     0.197 HD
BRANCH  16  22
HETATM   22  N3  UNL     1      -2.382  -1.398  -2.974  1.00  0.00    -0.314 N 
HETATM   23  C1  UNL     1      -2.293  -0.989  -4.313  1.00  0.00     0.187 C 
HETATM   24  N1  UNL     1      -1.858   0.183  -4.660  1.00  0.00    -0.373 N 
HETATM   25  N2  UNL     1      -2.695  -1.899  -5.365  1.00  0.00    -0.064 NA
ATOM     26  H12 UNL     1      -1.793   0.480  -5.634  1.00  0.00     0.158 HD
ATOM     27  H11 UNL     1      -1.575   0.824  -3.919  1.00  0.00     0.158 HD
ATOM     28  H3  UNL     1      -2.117  -2.360  -2.760  1.00  0.00     0.170 HD
ENDBRANCH  16  22
ENDBRANCH   1  15
BRANCH  10  29
HETATM   29  C8  UNL     1       2.183   0.187   2.569  1.00  0.00     0.191 C 
BRANCH  29  30
HETATM   30  C9  UNL     1       1.756   1.607   2.651  1.00  0.00     0.246 C 
BRANCH  30  31
HETATM   31  O3  UNL     1       1.804   2.281   1.456  1.00  0.00    -0.383 OA
ATOM     32  H3  UNL     1       1.531   3.189   1.508  1.00  0.00     0.210 HD
ENDBRANCH  30  31
BRANCH  30  33
HETATM   33  C10 UNL     1       2.737   2.286   3.641  1.00  0.00     0.341 C 
HETATM   34  O4  UNL     1       2.770   1.617   4.729  1.00  0.00    -0.252 OA
HETATM   35  N9  UNL     1       3.394   3.395   3.310  1.00  0.00    -0.291 NA
BRANCH  35  36
HETATM   36  N10 UNL     1       4.048   4.500   2.981  1.00  0.00    -0.277 N 
ATOM     37 2H10 UNL     1       3.530   3.667   3.261  1.00  0.00     0.191 HD
ATOM     38 1H10 UNL     1       4.552   5.350   2.727  1.00  0.00     0.191 HD
ENDBRANCH  35  36
ENDBRANCH  30  33
ENDBRANCH  29  30
ENDBRANCH  10  29
TORSDOF 7
