REMARK  8 active torsions:
REMARK  status: ('A' for Active; 'I' for Inactive)
REMARK    1  A    between atoms: C2_2  and  C3_3 
REMARK    2  A    between atoms: C2_2  and  N1_6 
REMARK       I    between atoms: N1_6  and  C4_7 
REMARK    3  A    between atoms: N1_6  and  C6_15 
REMARK    4  A    between atoms: C4_7  and  O4_9 
REMARK    5  A    between atoms: O4_9  and  N2_10 
REMARK       I    between atoms: N2_10  and  C5_12 
REMARK    6  A    between atoms: C6_15  and  O6_16 
REMARK    7  A    between atoms: C6_15  and  C7_18 
REMARK    8  A    between atoms: N5_22  and  N6_24 
ROOT
HETATM    1  C7  UNL     1       0.943   0.712  -0.484  1.00  0.00     0.110 A 
HETATM    2  N4  UNL     1       2.003   0.198   0.135  1.00  0.00    -0.336 N 
ATOM      3  H4  UNL     1       1.863  -0.615   0.735  1.00  0.00     0.168 HD
HETATM    4  C8  UNL     1       3.279   0.702   0.011  1.00  0.00     0.123 A 
HETATM    5  N5  UNL     1       4.216   0.110   0.659  1.00  0.00    -0.246 N 
ATOM      6  H5  UNL     1       3.956  -0.697   1.226  1.00  0.00     0.192 HD
HETATM    7  C9  UNL     1       3.544   1.787  -0.770  1.00  0.00     0.052 A 
HETATM    8  C10 UNL     1       2.493   2.359  -1.430  1.00  0.00     0.033 A 
HETATM    9  C11 UNL     1       1.237   1.832  -1.286  1.00  0.00     0.077 A 
HETATM   10  N10 UNL     1       0.159   2.446  -1.997  1.00  0.00    -0.100 NA
ENDROOT
BRANCH   1  11
HETATM   11  C6  UNL     1      -0.441   0.326  -0.356  1.00  0.00     0.177 C 
BRANCH  11  12
HETATM   12  N1  UNL     1      -1.076  -0.798   0.185  1.00  0.00    -0.256 N 
HETATM   13  C4  UNL     1      -2.498  -0.665   0.466  1.00  0.00     0.392 C 
HETATM   14  O3  UNL     1      -3.167  -1.523   1.065  1.00  0.00    -0.236 OA
BRANCH  12  15
HETATM   15  C2  UNL     1      -0.401  -2.003   0.580  1.00  0.00     0.194 C 
HETATM   16  C1  UNL     1      -0.426  -2.237   2.082  1.00  0.00     0.044 C 
BRANCH  15  17
HETATM   17  C3  UNL     1      -0.900  -3.264  -0.114  1.00  0.00     0.197 C 
HETATM   18  O1  UNL     1      -0.774  -3.137  -1.488  1.00  0.00    -0.646 OA
HETATM   19  O2  UNL     1      -2.030  -3.827   0.356  1.00  0.00    -0.646 OA
ENDBRANCH  15  17
ENDBRANCH  12  15
BRANCH  13  20
HETATM   20  O4  UNL     1      -3.154   0.471   0.048  1.00  0.00    -0.177 OA
BRANCH  20  21
HETATM   21  N2  UNL     1      -4.495   0.709   0.255  1.00  0.00    -0.208 N 
HETATM   22  C5  UNL     1      -4.970   2.019   0.527  1.00  0.00     0.352 C 
HETATM   23  N3  UNL     1      -6.331   2.325   0.747  1.00  0.00    -0.038 NA
HETATM   24  O5  UNL     1      -4.150   2.967   0.578  1.00  0.00    -0.249 OA
ATOM     25  H2  UNL     1      -5.156  -0.067   0.212  1.00  0.00     0.199 HD
ENDBRANCH  20  21
ENDBRANCH  13  20
ENDBRANCH  11  12
BRANCH  11  26
HETATM   26  O6  UNL     1      -1.308   1.206  -0.843  1.00  0.00    -0.344 OA
ATOM     27  H6  UNL     1      -0.877   1.969  -1.210  1.00  0.00     0.219 HD
ENDBRANCH  11  26
ENDBRANCH   1  11
BRANCH   5  28
HETATM   28  N6  UNL     1       5.534   0.474   0.651  1.00  0.00    -0.097 N 
HETATM   29  N7  UNL     1       6.374   0.768   1.652  1.00  0.00    -0.189 N 
HETATM   30  N8  UNL     1       7.356   0.985   0.808  1.00  0.00    -0.208 N 
ATOM     31  H7  UNL     1       6.286   0.808   2.667  1.00  0.00     0.213 HD
HETATM   32  N9  UNL     1       6.554   0.703  -0.179  1.00  0.00    -0.189 N 
ATOM     33  H8  UNL     1       8.335   1.259   0.890  1.00  0.00     0.211 HD
ATOM     34  H9  UNL     1       6.663   0.670  -1.193  1.00  0.00     0.213 HD
ENDBRANCH   5  28
TORSDOF 8
