REMARK  3 active torsions:
REMARK  status: ('A' for Active; 'I' for Inactive)
REMARK    1  A    between atoms: N1_1  and  N2_4 
REMARK    2  A    between atoms: N3_6  and  C1_8 
REMARK    3  A    between atoms: C3_13  and  N6_14 
REMARK       I    between atoms: N6_14  and  C4_16 
ROOT
HETATM    1  C1  UNL     1      -0.937  -0.035  -0.768  1.00  0.00     0.160 A 
HETATM    2  C2  UNL     1      -0.346   1.199  -0.692  1.00  0.00     0.165 A 
HETATM    3  N4  UNL     1      -1.047   2.362  -1.110  1.00  0.00    -0.079 NA
HETATM    4  N5  UNL     1       0.909   1.314  -0.217  1.00  0.00    -0.176 N 
ATOM      5  H5  UNL     1       1.338   2.238  -0.165  1.00  0.00     0.185 HD
HETATM    6  C3  UNL     1       1.617   0.235   0.194  1.00  0.00     0.691 A 
HETATM    7  N7  UNL     1       1.039  -0.959   0.118  1.00  0.00    -0.154 N 
ATOM      8  H7  UNL     1       1.562  -1.779   0.425  1.00  0.00     0.187 HD
HETATM    9  C5  UNL     1      -0.208  -1.123  -0.348  1.00  0.00     0.291 A 
HETATM   10  O3  UNL     1      -0.686  -2.292  -0.388  1.00  0.00    -0.265 OA
ENDROOT
BRANCH   1  11
HETATM   11  N3  UNL     1      -2.249  -0.185  -1.261  1.00  0.00    -0.279 N 
HETATM   12  N2  UNL     1      -3.225  -0.627  -0.625  1.00  0.00    -0.249 N 
ATOM     13  H2  UNL     1      -4.113  -0.673  -1.124  1.00  0.00     0.207 HD
ATOM     14  H3  UNL     1      -2.415   0.094  -2.228  1.00  0.00     0.189 HD
BRANCH  12  15
HETATM   15  N1  UNL     1      -3.227  -1.060   0.685  1.00  0.00    -0.331 N 
ATOM     16  H12 UNL     1      -2.330  -1.006   1.167  1.00  0.00     0.178 HD
ATOM     17  H11 UNL     1      -4.026  -1.422   1.206  1.00  0.00     0.178 HD
ENDBRANCH  12  15
ENDBRANCH   1  11
BRANCH   6  18
HETATM   18  N6  UNL     1       2.816   0.444   0.635  1.00  0.00    -0.133 N 
HETATM   19  C4  UNL     1       3.661  -0.585   1.093  1.00  0.00     0.302 C 
HETATM   20  O1  UNL     1       4.096  -0.608   2.283  1.00  0.00    -0.629 OA
HETATM   21  O2  UNL     1       4.011  -1.587   0.198  1.00  0.00    -0.629 OA
ATOM     22  H6  UNL     1       3.166   1.402   0.652  1.00  0.00     0.190 HD
ENDBRANCH   6  18
TORSDOF 3
