REMARK  1 active torsions:
REMARK  status: ('A' for Active; 'I' for Inactive)
REMARK    1  A    between atoms: N1_2  and  C3_4 
ROOT
HETATM    1  C3  UNL     1      -0.721   0.260   0.074  1.00  0.00     0.034 A 
HETATM    2  C4  UNL     1      -0.109   1.310  -0.575  1.00  0.00     0.046 A 
HETATM    3  C5  UNL     1       1.237   1.237  -0.887  1.00  0.00     0.094 A 
HETATM    4  N2  UNL     1       1.934   0.121  -0.544  1.00  0.00    -0.350 N 
HETATM    5  C6  UNL     1       3.332   0.034  -0.862  1.00  0.00     0.156 C 
HETATM    6  C7  UNL     1       1.356  -0.911   0.088  1.00  0.00     0.120 A 
HETATM    7  N3  UNL     1       2.124  -2.042   0.420  1.00  0.00    -0.083 NA
HETATM    8  C8  UNL     1       0.009  -0.883   0.422  1.00  0.00     0.074 A 
ENDROOT
BRANCH   1   9
HETATM    9  N1  UNL     1      -2.102   0.353   0.385  1.00  0.00    -0.389 N 
HETATM   10  C1  UNL     1      -2.882   1.502   0.046  1.00  0.00     0.149 C 
HETATM   11  C2  UNL     1      -2.735  -0.756   1.069  1.00  0.00     0.149 C 
ENDBRANCH   1   9
TORSDOF 1
