REMARK  2 active torsions:
REMARK  status: ('A' for Active; 'I' for Inactive)
REMARK    1  A    between atoms: C2_2  and  C4_4 
REMARK    2  A    between atoms: C4_4  and  C5_5 
ROOT
HETATM    1  C5  UNL     1       0.089  -0.213   0.666  1.00  0.00     0.178 C 
HETATM    2  O1  UNL     1       1.446  -0.641   0.698  1.00  0.00    -0.374 OA
HETATM    3  C6  UNL     1       2.238  -0.106  -0.270  1.00  0.00     0.128 C 
HETATM    4  C7  UNL     1       3.524  -0.943  -0.376  1.00  0.00     0.040 C 
HETATM    5  C8  UNL     1       2.749   1.275   0.179  1.00  0.00     0.112 C 
HETATM    6  S1  UNL     1       1.220   2.300   0.159  1.00  0.00    -0.112 SA
HETATM    7  C9  UNL     1      -0.003   1.223   0.956  1.00  0.00     0.069 C 
HETATM    8  N1  UNL     1      -0.820   1.816   1.727  1.00  0.00    -0.395 N 
ATOM      9  H11 UNL     1      -0.884   2.814   1.929  1.00  0.00     0.156 HD
ATOM     10  H12 UNL     1      -1.508   1.210   2.175  1.00  0.00     0.156 HD
ENDROOT
BRANCH   1  11
HETATM   11  C4  UNL     1      -0.624  -0.765  -0.492  1.00  0.00     0.042 C 
BRANCH  11  12
HETATM   12  C2  UNL     1      -2.045  -0.469  -0.727  1.00  0.00    -0.020 C 
HETATM   13  C1  UNL     1      -2.418   0.969  -0.950  1.00  0.00     0.009 C 
HETATM   14  C3  UNL     1      -2.982  -1.135   0.271  1.00  0.00     0.009 C 
ENDBRANCH  11  12
ENDBRANCH   1  11
TORSDOF 2
