REMARK  3 active torsions:
REMARK  status: ('A' for Active; 'I' for Inactive)
REMARK    1  A    between atoms: C2_2  and  C3_3 
REMARK    2  A    between atoms: C3_3  and  N1_4 
REMARK       I    between atoms: N2_7  and  C6_8 
REMARK    3  A    between atoms: C8_14  and  C9_15 
ROOT
HETATM    1  N1  UNL     1      -0.798  -0.498  -0.969  1.00  0.00     0.100 N 
HETATM    2  C4  UNL     1      -0.427  -1.872  -0.892  1.00  0.00     0.293 C 
HETATM    3  C5  UNL     1       0.537  -2.167   0.236  1.00  0.00     0.156 C 
HETATM    4  N2  UNL     1       1.679  -1.277   0.208  1.00  0.00    -0.352 N 
HETATM    5  C6  UNL     1       2.973  -1.650   0.592  1.00  0.00     0.184 C 
HETATM    6  N3  UNL     1       3.382  -1.370   1.795  1.00  0.00    -0.374 N 
ATOM      7  H31 UNL     1       4.325  -1.642   2.075  1.00  0.00     0.158 HD
ATOM      8  H32 UNL     1       2.784  -0.887   2.466  1.00  0.00     0.158 HD
HETATM    9  N4  UNL     1       3.805  -2.322  -0.341  1.00  0.00    -0.064 NA
HETATM   10  C7  UNL     1       1.369   0.087  -0.270  1.00  0.00     0.161 C 
HETATM   11  C8  UNL     1      -0.104   0.269   0.017  1.00  0.00     0.245 C 
ENDROOT
BRANCH  11  12
HETATM   12  C9  UNL     1      -0.549   1.684   0.120  1.00  0.00     0.025 A 
HETATM   13  C10 UNL     1      -0.472   2.601  -1.052  1.00  0.00     0.012 A 
HETATM   14  C11 UNL     1       0.438   2.802   0.115  1.00  0.00    -0.012 A 
HETATM   15  C12 UNL     1       0.141   4.020   1.008  1.00  0.00     0.010 C 
ENDBRANCH  11  12
BRANCH   1  16
HETATM   16  C3  UNL     1      -2.214  -0.370  -0.986  1.00  0.00     0.299 C 
BRANCH  16  17
HETATM   17  C2  UNL     1      -2.882  -0.753   0.290  1.00  0.00    -0.007 C 
HETATM   18  C1  UNL     1      -3.778  -1.729   0.354  1.00  0.00     0.008 C 
ENDBRANCH  16  17
ENDBRANCH   1  16
TORSDOF 3
