REMARK  2 active torsions:
REMARK  status: ('A' for Active; 'I' for Inactive)
REMARK    1  A    between atoms: C1_1  and  C6_6 
REMARK    2  A    between atoms: C2_2  and  C3_3 
ROOT
HETATM    1  C6  UNL     1      -0.996   0.216  -0.546  1.00  0.00     0.065 C 
HETATM    2  C7  UNL     1      -2.023   0.837   0.388  1.00  0.00     0.017 C 
HETATM    3  C8  UNL     1      -3.295   0.154  -0.131  1.00  0.00     0.001 C 
HETATM    4  C9  UNL     1      -2.858  -1.210  -0.594  1.00  0.00     0.001 C 
HETATM    5  C10 UNL     1      -1.342  -1.265  -0.381  1.00  0.00     0.017 C 
ENDROOT
BRANCH   1   6
HETATM    6  C1  UNL     1       0.363   0.487  -0.154  1.00  0.00    -0.101 C 
HETATM    7  C2  UNL     1       1.488   0.719   0.150  1.00  0.00    -0.101 C 
BRANCH   7   8
HETATM    8  C3  UNL     1       2.885   1.019   0.505  1.00  0.00     0.065 A 
HETATM    9  C4  UNL     1       3.974   0.247  -0.246  1.00  0.00     0.018 A 
HETATM   10  C5  UNL     1       3.707   0.019   1.206  1.00  0.00     0.018 A 
ENDBRANCH   7   8
ENDBRANCH   1   6
TORSDOF 2
