REMARK  6 active torsions:
REMARK  status: ('A' for Active; 'I' for Inactive)
REMARK    1  A    between atoms: N1_3  and  C2_5 
REMARK    2  A    between atoms: C2_5  and  C3_6 
REMARK    3  A    between atoms: C3_6  and  N2_7 
REMARK    4  A    between atoms: N2_7  and  C4_9 
REMARK    5  A    between atoms: C7_18  and  N6_19 
REMARK    6  A    between atoms: N6_19  and  C8_21 
ROOT
HETATM    1  S1  UNL     1       7.262   3.228   0.187  1.00  0.00    -0.075 SA
HETATM    2  C1  UNL     1       6.302   2.087   0.767  1.00  0.00     0.165 C 
HETATM    3  N1  UNL     1       5.575   1.241   1.369  1.00  0.00    -0.389 N 
ATOM      4  H1  UNL     1       4.888   1.548   2.058  1.00  0.00     0.159 HD
ENDROOT
BRANCH   3   5
HETATM    5  C2  UNL     1       5.732  -0.169   1.066  1.00  0.00     0.139 C 
BRANCH   5   6
HETATM    6  C3  UNL     1       5.136  -0.409  -0.309  1.00  0.00     0.141 C 
BRANCH   6   7
HETATM    7  N2  UNL     1       3.732  -0.024  -0.217  1.00  0.00    -0.373 N 
ATOM      8  H2  UNL     1       3.464   0.938  -0.008  1.00  0.00     0.161 HD
BRANCH   7   9
HETATM    9  C4  UNL     1       2.836  -0.937  -0.408  1.00  0.00     0.133 A 
HETATM   10  N3  UNL     1       3.135  -2.203  -0.684  1.00  0.00    -0.337 N 
HETATM   11  C5  UNL     1       2.225  -3.167  -0.886  1.00  0.00     0.183 A 
ATOM     12  H3  UNL     1       4.121  -2.457  -0.746  1.00  0.00     0.168 HD
HETATM   13  N4  UNL     1       0.926  -2.832  -0.805  1.00  0.00    -0.336 N 
HETATM   14  C6  UNL     1       0.572  -1.564  -0.529  1.00  0.00     0.153 A 
ATOM     15  H4  UNL     1       0.207  -3.540  -0.953  1.00  0.00     0.168 HD
HETATM   16  N5  UNL     1      -0.636  -0.967  -0.392  1.00  0.00    -0.174 N 
HETATM   17  C13 UNL     1       1.512  -0.568  -0.320  1.00  0.00     0.137 A 
HETATM   18  C7  UNL     1      -0.482   0.340  -0.111  1.00  0.00     0.680 A 
ATOM     19  H5  UNL     1      -1.534  -1.441  -0.488  1.00  0.00     0.186 HD
HETATM   20  N8  UNL     1       0.832   0.567  -0.070  1.00  0.00    -0.184 N 
ATOM     21  H8  UNL     1       1.261   1.472   0.123  1.00  0.00     0.184 HD
BRANCH  18  22
HETATM   22  N6  UNL     1      -1.466   1.170   0.075  1.00  0.00    -0.221 N 
ATOM     23  H6  UNL     1      -1.264   2.148   0.284  1.00  0.00     0.178 HD
BRANCH  22  24
HETATM   24  C8  UNL     1      -2.846   0.731  -0.010  1.00  0.00     0.102 C 
HETATM   25  C9  UNL     1      -3.304   0.150   1.299  1.00  0.00     0.053 C 
HETATM   26  C10 UNL     1      -4.781   0.180   1.495  1.00  0.00     0.234 C 
HETATM   27  N7  UNL     1      -5.409   1.405   1.088  1.00  0.00    -0.075 N 
HETATM   28  C11 UNL     1      -5.130   1.571  -0.343  1.00  0.00     0.234 C 
ATOM     29  H72 UNL     1      -6.404   1.439   1.310  1.00  0.00     0.277 HD
ATOM     30  H71 UNL     1      -5.124   2.208   1.649  1.00  0.00     0.277 HD
HETATM   31  C12 UNL     1      -3.664   1.927  -0.438  1.00  0.00     0.053 C 
ENDBRANCH  22  24
ENDBRANCH  18  22
ENDBRANCH   7   9
ENDBRANCH   6   7
ENDBRANCH   5   6
ENDBRANCH   3   5
TORSDOF 6
