REMARK  7 active torsions:
REMARK  status: ('A' for Active; 'I' for Inactive)
REMARK    1  A    between atoms: C2_2  and  C4_4 
REMARK    2  A    between atoms: C4_4  and  N1_5 
REMARK    3  A    between atoms: N1_5  and  C5_7 
REMARK    4  A    between atoms: C8_15  and  N4_16 
REMARK    5  A    between atoms: N4_16  and  C9_17 
REMARK    6  A    between atoms: C9_17  and  N5_18 
REMARK    7  A    between atoms: C9_17  and  C10_22 
ROOT
HETATM    1  C5  UNL     1       2.039   0.224  -0.718  1.00  0.00     0.134 A 
HETATM    2  N2  UNL     1       2.052  -1.084  -0.928  1.00  0.00    -0.293 N 
ATOM      3  H2  UNL     1       2.937  -1.545  -1.138  1.00  0.00     0.172 HD
HETATM    4  C6  UNL     1       0.925  -1.820  -0.871  1.00  0.00     0.326 A 
HETATM    5  O1  UNL     1       0.954  -3.060  -1.073  1.00  0.00    -0.247 OA
HETATM    6  N3  UNL     1      -0.268  -1.264  -0.599  1.00  0.00    -0.302 N 
ATOM      7  H3  UNL     1      -1.112  -1.835  -0.560  1.00  0.00     0.171 HD
HETATM    8  C7  UNL     1      -0.325   0.079  -0.376  1.00  0.00     0.125 A 
HETATM    9  C8  UNL     1      -1.531   0.701  -0.092  1.00  0.00     0.205 A 
HETATM   10  N6  UNL     1      -1.510   2.059   0.121  1.00  0.00    -0.326 N 
ATOM     11  H6  UNL     1      -2.390   2.530   0.332  1.00  0.00     0.169 HD
HETATM   12  C13 UNL     1      -0.403   2.788   0.066  1.00  0.00     0.183 A 
HETATM   13  N7  UNL     1       0.750   2.167  -0.210  1.00  0.00    -0.347 N 
ATOM     14  H7  UNL     1       1.609   2.716  -0.255  1.00  0.00     0.167 HD
HETATM   15  C14 UNL     1       0.811   0.837  -0.431  1.00  0.00     0.109 A 
ENDROOT
BRANCH   9  16
HETATM   16  N4  UNL     1      -2.582   0.128  -0.021  1.00  0.00    -0.394 NA
BRANCH  16  17
HETATM   17  C9  UNL     1      -3.536  -0.821  -0.024  1.00  0.00     0.363 C 
BRANCH  17  18
HETATM   18  N5  UNL     1      -3.551  -1.607   1.205  1.00  0.00    -0.046 N 
ATOM     19  H53 UNL     1      -2.633  -2.011   1.392  1.00  0.00     0.278 HD
ATOM     20  H52 UNL     1      -3.636  -1.005   2.024  1.00  0.00     0.278 HD
ATOM     21  H51 UNL     1      -4.274  -2.326   1.203  1.00  0.00     0.278 HD
ENDBRANCH  17  18
BRANCH  17  22
HETATM   22  C10 UNL     1      -4.912  -0.172  -0.229  1.00  0.00     0.041 C 
HETATM   23  C11 UNL     1      -6.003  -1.200  -0.240  1.00  0.00     0.014 C 
HETATM   24  C12 UNL     1      -5.085   0.886   0.805  1.00  0.00     0.014 C 
ENDBRANCH  17  22
ENDBRANCH  16  17
ENDBRANCH   9  16
BRANCH   1  25
HETATM   25  N1  UNL     1       3.056   1.006  -0.750  1.00  0.00    -0.374 N 
ATOM     26  H1  UNL     1       2.935   2.003  -0.572  1.00  0.00     0.161 HD
BRANCH  25  27
HETATM   27  C4  UNL     1       4.364   0.484  -1.035  1.00  0.00     0.125 C 
BRANCH  27  28
HETATM   28  C2  UNL     1       4.946  -0.021   0.291  1.00  0.00    -0.005 C 
HETATM   29  C1  UNL     1       6.326  -0.588   0.064  1.00  0.00     0.011 C 
HETATM   30  C3  UNL     1       4.984   1.163   1.242  1.00  0.00     0.011 C 
ENDBRANCH  27  28
ENDBRANCH  25  27
ENDBRANCH   1  25
TORSDOF 7
