REMARK  5 active torsions:
REMARK  status: ('A' for Active; 'I' for Inactive)
REMARK    1  A    between atoms: C2_2  and  C3_3 
REMARK       I    between atoms: C3_3  and  N1_5 
REMARK    2  A    between atoms: N1_5  and  C4_7 
REMARK    3  A    between atoms: N2_11  and  C8_12 
REMARK    4  A    between atoms: C9_13  and  C10_14 
REMARK       I    between atoms: C10_14  and  N3_16 
REMARK       I    between atoms: N3_16  and  C11_17 
REMARK       I    between atoms: C11_17  and  N5_19 
REMARK    5  A    between atoms: N5_19  and  N6_21 
ROOT
HETATM    1  C4  UNL     1      -2.169  -0.625  -0.415  1.00  0.00     0.102 C 
HETATM    2  C5  UNL     1      -2.300  -2.129  -0.510  1.00  0.00     0.028 C 
HETATM    3  C6  UNL     1      -1.030  -2.874  -0.488  1.00  0.00     0.022 C 
HETATM    4  C7  UNL     1      -0.001  -2.330   0.531  1.00  0.00     0.122 C 
HETATM    5  N2  UNL     1       0.005  -0.940   0.304  1.00  0.00    -0.388 N 
HETATM    6  C12 UNL     1      -1.319  -0.304   0.788  1.00  0.00     0.147 C 
ENDROOT
BRANCH   5   7
HETATM    7  C8  UNL     1       0.869  -0.122  -0.246  1.00  0.00     0.092 C 
HETATM    8  C9  UNL     1       2.021   0.362  -0.441  1.00  0.00     0.107 C 
BRANCH   8   9
HETATM    9  C10 UNL     1       3.276  -0.314   0.389  1.00  0.00     0.319 C 
HETATM   10  O2  UNL     1       2.732  -1.076   1.064  1.00  0.00    -0.252 OA
HETATM   11  N3  UNL     1       4.399   0.289  -0.038  1.00  0.00    -0.332 NA
HETATM   12  C11 UNL     1       5.525   0.894  -0.467  1.00  0.00     0.290 C 
HETATM   13  N4  UNL     1       5.228   1.770  -1.530  1.00  0.00    -0.047 NA
HETATM   14  N5  UNL     1       6.881   0.900  -0.262  1.00  0.00    -0.201 N 
ATOM     15  H5  UNL     1       7.454   0.708  -1.084  1.00  0.00     0.197 HD
BRANCH  14  16
HETATM   16  N6  UNL     1       7.575   1.132   0.912  1.00  0.00    -0.036 N 
HETATM   17  O3  UNL     1       8.520   0.389   1.227  1.00  0.00    -0.516 OA
HETATM   18  O4  UNL     1       7.260   2.195   1.729  1.00  0.00    -0.516 OA
ENDBRANCH  14  16
ENDBRANCH   8   9
ENDBRANCH   5   7
BRANCH   1  19
HETATM   19  N1  UNL     1      -3.438  -0.011  -0.427  1.00  0.00    -0.355 N 
HETATM   20  C3  UNL     1      -4.060   0.832   0.483  1.00  0.00     0.217 C 
HETATM   21  O1  UNL     1      -3.615   1.237   1.619  1.00  0.00    -0.274 OA
ATOM     22  H1  UNL     1      -3.999  -0.224  -1.252  1.00  0.00     0.162 HD
BRANCH  20  23
HETATM   23  C2  UNL     1      -5.420   1.320   0.077  1.00  0.00     0.098 C 
HETATM   24  C1  UNL     1      -5.847   2.519   0.879  1.00  0.00     0.014 C 
ENDBRANCH  20  23
ENDBRANCH   1  19
TORSDOF 5
