REMARK  11 active torsions:
REMARK  status: ('A' for Active; 'I' for Inactive)
REMARK    1  A    between atoms: C2_2  and  C3_4 
REMARK       I    between atoms: C3_4  and  N1_6 
REMARK    2  A    between atoms: N1_6  and  C4_8 
REMARK    3  A    between atoms: C4_8  and  C5_9 
REMARK    4  A    between atoms: C5_9  and  C6_10 
REMARK    5  A    between atoms: C6_10  and  N2_12 
REMARK    6  A    between atoms: N2_12  and  C7_14 
REMARK    7  A    between atoms: C7_14  and  C8_15 
REMARK    8  A    between atoms: C8_15  and  C9_16 
REMARK    9  A    between atoms: C9_16  and  C10_17 
REMARK   10  A    between atoms: C10_17  and  C11_18 
REMARK   11  A    between atoms: C11_18  and  C12_19 
ROOT
HETATM    1  C6  UNL     1      -0.913  -0.989  -1.135  1.00  0.00     0.074 C 
HETATM    2  S1  UNL     1      -1.411  -1.507  -2.592  1.00  0.00    -0.066 SA
ENDROOT
BRANCH   1   3
HETATM    3  C5  UNL     1      -1.867  -0.361  -0.187  1.00  0.00     0.089 C 
BRANCH   3   4
HETATM    4  C4  UNL     1      -3.216  -0.327  -0.817  1.00  0.00     0.130 C 
BRANCH   4   5
HETATM    5  N1  UNL     1      -4.227   0.269   0.026  1.00  0.00    -0.356 N 
HETATM    6  C3  UNL     1      -5.549   0.354  -0.472  1.00  0.00     0.258 C 
HETATM    7  O1  UNL     1      -5.787  -0.100  -1.644  1.00  0.00    -0.267 OA
ATOM      8  H1  UNL     1      -3.994   0.619   0.955  1.00  0.00     0.162 HD
BRANCH   6   9
HETATM    9  C2  UNL     1      -6.678   0.917   0.233  1.00  0.00     0.069 C 
HETATM   10  C1  UNL     1      -6.532   1.405   1.437  1.00  0.00     0.037 C 
HETATM   11 BR1  UNL     1      -8.425   0.968  -0.566  1.00  0.00    -0.046 Br
ENDBRANCH   6   9
ENDBRANCH   4   5
ENDBRANCH   3   4
ENDBRANCH   1   3
BRANCH   1  12
HETATM   12  N2  UNL     1       0.451  -1.147  -0.781  1.00  0.00    -0.384 N 
ATOM     13  H2  UNL     1       1.104  -1.580  -1.434  1.00  0.00     0.160 HD
BRANCH  12  14
HETATM   14  C7  UNL     1       0.910  -0.689   0.516  1.00  0.00     0.120 C 
BRANCH  14  15
HETATM   15  C8  UNL     1       2.387  -0.947   0.697  1.00  0.00     0.020 C 
BRANCH  15  16
HETATM   16  C9  UNL     1       3.188  -0.236  -0.346  1.00  0.00     0.002 C 
BRANCH  16  17
HETATM   17  C10 UNL     1       4.669  -0.459  -0.211  1.00  0.00     0.001 C 
BRANCH  17  18
HETATM   18  C11 UNL     1       5.221   0.004   1.098  1.00  0.00     0.011 C 
BRANCH  18  19
HETATM   19  C12 UNL     1       5.006   1.481   1.326  1.00  0.00     0.085 C 
HETATM   20 BR2  UNL     1       5.875   2.498  -0.070  1.00  0.00    -0.097 Br
ENDBRANCH  18  19
ENDBRANCH  17  18
ENDBRANCH  16  17
ENDBRANCH  15  16
ENDBRANCH  14  15
ENDBRANCH  12  14
ENDBRANCH   1  12
TORSDOF 11
