REMARK  16 active torsions:
REMARK  status: ('A' for Active; 'I' for Inactive)
REMARK    1  A    between atoms: S1_2  and  C2_5 
REMARK    2  A    between atoms: C2_5  and  C3_6 
REMARK    3  A    between atoms: C4_7  and  C5_8 
REMARK    4  A    between atoms: C6_9  and  C7_10 
REMARK    5  A    between atoms: C7_10  and  N1_11 
REMARK    6  A    between atoms: N1_11  and  C8_12 
REMARK    7  A    between atoms: C8_12  and  C9_13 
REMARK    8  A    between atoms: C9_13  and  N2_14 
REMARK       I    between atoms: N2_14  and  C10_16 
REMARK    9  A    between atoms: C10_16  and  C11_18 
REMARK   10  A    between atoms: C11_18  and  C12_19 
REMARK   11  A    between atoms: C13_20  and  C14_21 
REMARK   12  A    between atoms: C14_21  and  C15_22 
REMARK   13  A    between atoms: C15_22  and  C16_23 
REMARK   14  A    between atoms: C16_23  and  C17_24 
REMARK   15  A    between atoms: C17_24  and  N3_25 
REMARK   16  A    between atoms: C19_29  and  N5_30 
ROOT
HETATM    1  N2  UNL     1       0.448  -1.090   0.174  1.00  0.00    -0.359 N 
ATOM      2  H2  UNL     1       0.471  -1.741  -0.611  1.00  0.00     0.162 HD
HETATM    3  C10 UNL     1      -0.748  -0.404   0.476  1.00  0.00     0.228 C 
HETATM    4  O3  UNL     1      -0.753   0.393   1.447  1.00  0.00    -0.273 OA
ENDROOT
BRANCH   3   5
HETATM    5  C11 UNL     1      -2.002  -0.581  -0.301  1.00  0.00     0.196 C 
BRANCH   5   6
HETATM    6  C12 UNL     1      -3.083   0.251   0.228  1.00  0.00    -0.097 C 
HETATM    7  C13 UNL     1      -3.986   0.949   0.648  1.00  0.00    -0.106 C 
BRANCH   7   8
HETATM    8  C14 UNL     1      -5.086   1.793   1.131  1.00  0.00     0.094 C 
BRANCH   8   9
HETATM    9  C15 UNL     1      -6.404   1.017   1.075  1.00  0.00     0.014 C 
BRANCH   9  10
HETATM   10  C16 UNL     1      -7.513   1.893   1.569  1.00  0.00     0.023 C 
BRANCH  10  11
HETATM   11  C17 UNL     1      -8.843   1.166   1.538  1.00  0.00     0.150 C 
BRANCH  11  12
HETATM   12  N3  UNL     1      -9.210   0.735   0.208  1.00  0.00    -0.273 N 
HETATM   13  C18 UNL     1      -9.906   1.444  -0.658  1.00  0.00     0.218 A 
HETATM   14  N4  UNL     1     -10.050   0.718  -1.775  1.00  0.00    -0.185 N 
HETATM   15  C19 UNL     1      -9.422  -0.445  -1.559  1.00  0.00     0.691 A 
ATOM     16  H4  UNL     1     -10.542   0.997  -2.624  1.00  0.00     0.185 HD
HETATM   17  N6  UNL     1      -8.905  -0.420  -0.323  1.00  0.00    -0.129 N 
ATOM     18  H6  UNL     1      -8.371  -1.166   0.122  1.00  0.00     0.206 HD
BRANCH  15  19
HETATM   19  N5  UNL     1      -9.343  -1.421  -2.425  1.00  0.00    -0.233 N 
ATOM     20  H52 UNL     1      -9.737  -1.440  -3.366  1.00  0.00     0.174 HD
ATOM     21  H51 UNL     1      -8.865  -2.307  -2.260  1.00  0.00     0.174 HD
ENDBRANCH  15  19
ENDBRANCH  11  12
ENDBRANCH  10  11
ENDBRANCH   9  10
ENDBRANCH   8   9
ENDBRANCH   7   8
ENDBRANCH   5   6
ENDBRANCH   3   5
BRANCH   1  22
HETATM   22  C9  UNL     1       1.645  -0.881   0.966  1.00  0.00     0.150 C 
BRANCH  22  23
HETATM   23  C8  UNL     1       2.724  -1.764   0.369  1.00  0.00     0.258 C 
BRANCH  23  24
HETATM   24  N1  UNL     1       3.928  -1.587   1.126  1.00  0.00    -0.052 N 
HETATM   25  C20 UNL     1       4.560  -0.226   0.991  1.00  0.00     0.266 A 
HETATM   26  C21 UNL     1       3.986  -0.720   2.261  1.00  0.00     0.266 A 
BRANCH  24  27
HETATM   27  C7  UNL     1       4.896  -2.666   1.008  1.00  0.00     0.332 C 
BRANCH  27  28
HETATM   28  C6  UNL     1       6.009  -2.308   0.128  1.00  0.00    -0.065 C 
HETATM   29  C5  UNL     1       6.947  -2.002  -0.589  1.00  0.00    -0.013 C 
BRANCH  29  30
HETATM   30  C4  UNL     1       8.043  -1.630  -1.403  1.00  0.00    -0.014 C 
HETATM   31  C3  UNL     1       8.986  -1.301  -2.082  1.00  0.00    -0.078 C 
BRANCH  31  32
HETATM   32  C2  UNL     1      10.152  -0.884  -2.894  1.00  0.00     0.234 C 
BRANCH  32  33
HETATM   33  S1  UNL     1      10.533   0.821  -2.470  1.00  0.00     0.151 S 
HETATM   34  C1  UNL     1      10.903   0.830  -0.719  1.00  0.00     0.162 C 
HETATM   35  O1  UNL     1       9.273   1.621  -2.693  1.00  0.00    -0.227 OA
HETATM   36  O2  UNL     1      11.666   1.310  -3.288  1.00  0.00    -0.227 OA
ENDBRANCH  32  33
ENDBRANCH  31  32
ENDBRANCH  29  30
ENDBRANCH  27  28
ENDBRANCH  24  27
ENDBRANCH  23  24
ENDBRANCH  22  23
ENDBRANCH   1  22
TORSDOF 16
