REMARK  12 active torsions:
REMARK  status: ('A' for Active; 'I' for Inactive)
REMARK    1  A    between atoms: C2_3  and  C3_4 
REMARK    2  A    between atoms: C3_4  and  N2_5 
REMARK    3  A    between atoms: C6_8  and  C7_9 
REMARK    4  A    between atoms: C7_9  and  C8_10 
REMARK    5  A    between atoms: C8_10  and  N3_11 
REMARK    6  A    between atoms: C10_13  and  N4_14 
REMARK    7  A    between atoms: N7_22  and  O1_23 
REMARK    8  A    between atoms: C13_28  and  C14_29 
REMARK    9  A    between atoms: C14_29  and  C15_30 
REMARK   10  A    between atoms: C15_30  and  C16_31 
REMARK   11  A    between atoms: C16_31  and  N9_32 
REMARK   12  A    between atoms: N9_32  and  C17_34 
ROOT
HETATM    1  N2  UNL     1      -1.238   1.535   0.156  1.00  0.00    -0.271 N 
HETATM    2  C4  UNL     1      -1.790   1.504  -1.062  1.00  0.00     0.113 A 
HETATM    3  C5  UNL     1      -3.129   1.212  -1.213  1.00  0.00     0.027 A 
HETATM    4  C6  UNL     1      -3.950   0.941  -0.145  1.00  0.00    -0.036 A 
HETATM    5  C11 UNL     1      -3.320   0.988   1.102  1.00  0.00     0.150 A 
HETATM    6  N7  UNL     1      -2.026   1.275   1.195  1.00  0.00    -0.172 N 
ENDROOT
BRANCH   1   7
HETATM    7  C3  UNL     1       0.106   1.876   0.433  1.00  0.00     0.227 C 
BRANCH   7   8
HETATM    8  C2  UNL     1       1.121   0.834   0.312  1.00  0.00     0.104 A 
HETATM    9  N1  UNL     1       1.123  -0.492   0.491  1.00  0.00    -0.338 N 
HETATM   10  C1  UNL     1       0.015  -1.333   0.839  1.00  0.00     0.158 C 
HETATM   11  C21 UNL     1       2.360  -0.998   0.274  1.00  0.00     0.062 A 
HETATM   12  C12 UNL     1       3.180   0.047  -0.057  1.00  0.00     0.067 A 
HETATM   13  C20 UNL     1       2.893  -2.275   0.315  1.00  0.00     0.032 A 
HETATM   14  N8  UNL     1       2.417   1.139  -0.029  1.00  0.00    -0.342 N 
HETATM   15  C13 UNL     1       4.530  -0.167  -0.351  1.00  0.00    -0.029 A 
ATOM     16  H8  UNL     1       2.752   2.080  -0.234  1.00  0.00     0.167 HD
HETATM   17  C18 UNL     1       5.014  -1.435  -0.302  1.00  0.00     0.009 A 
HETATM   18  C19 UNL     1       4.211  -2.525   0.033  1.00  0.00     0.003 A 
BRANCH  15  19
HETATM   19  C14 UNL     1       5.346   0.985  -0.701  1.00  0.00     0.042 C 
BRANCH  19  20
HETATM   20  C15 UNL     1       6.831   0.842  -0.595  1.00  0.00     0.024 C 
BRANCH  20  21
HETATM   21  C16 UNL     1       7.307   0.564   0.801  1.00  0.00     0.122 C 
BRANCH  21  22
HETATM   22  N9  UNL     1       8.726   0.438   0.895  1.00  0.00    -0.368 N 
ATOM     23  H9  UNL     1       9.234   1.098   1.484  1.00  0.00     0.161 HD
BRANCH  22  24
HETATM   24  C17 UNL     1       9.457  -0.551   0.215  1.00  0.00     0.348 C 
HETATM   25  O2  UNL     1       8.898  -1.379  -0.511  1.00  0.00    -0.284 OA
ENDBRANCH  22  24
ENDBRANCH  21  22
ENDBRANCH  20  21
ENDBRANCH  19  20
ENDBRANCH  15  19
ENDBRANCH   7   8
ENDBRANCH   1   7
BRANCH   6  26
HETATM   26  O1  UNL     1      -1.541   1.332   2.512  1.00  0.00    -0.268 OA
ATOM     27  H1  UNL     1      -2.104   1.146   3.254  1.00  0.00     0.247 HD
ENDBRANCH   6  26
BRANCH   4  28
HETATM   28  C7  UNL     1      -5.375   0.649  -0.209  1.00  0.00     0.062 C 
BRANCH  28  29
HETATM   29  C8  UNL     1      -5.747  -0.803  -0.378  1.00  0.00     0.154 C 
BRANCH  29  30
HETATM   30  N3  UNL     1      -7.217  -0.812  -0.368  1.00  0.00    -0.285 N 
HETATM   31  C9  UNL     1      -7.980  -0.948   0.717  1.00  0.00     0.160 A 
HETATM   32  C10 UNL     1      -9.287  -0.884   0.304  1.00  0.00     0.132 A 
HETATM   33  N5  UNL     1      -9.262  -0.712  -1.023  1.00  0.00    -0.270 N 
HETATM   34  N6  UNL     1      -7.987  -0.673  -1.399  1.00  0.00    -0.239 N 
ATOM     35  H5  UNL     1     -10.074  -0.626  -1.635  1.00  0.00     0.190 HD
ATOM     36  H6  UNL     1      -7.664  -0.551  -2.359  1.00  0.00     0.208 HD
BRANCH  32  37
HETATM   37  N4  UNL     1     -10.355  -0.963   1.009  1.00  0.00    -0.383 N 
ATOM     38  H42 UNL     1     -10.374  -1.094   2.020  1.00  0.00     0.157 HD
ATOM     39  H41 UNL     1     -11.327  -0.915   0.702  1.00  0.00     0.157 HD
ENDBRANCH  32  37
ENDBRANCH  29  30
ENDBRANCH  28  29
ENDBRANCH   4  28
TORSDOF 12
