REMARK  6 active torsions:
REMARK  status: ('A' for Active; 'I' for Inactive)
REMARK    1  A    between atoms: N1_2  and  C2_4 
REMARK    2  A    between atoms: C4_8  and  C5_9 
REMARK    3  A    between atoms: C5_9  and  C6_13 
REMARK       I    between atoms: N4_17  and  C8_18 
REMARK    4  A    between atoms: C8_18  and  O2_20 
REMARK    5  A    between atoms: O2_20  and  C9_21 
REMARK    6  A    between atoms: C12_24  and  O3_25 
ROOT
HETATM    1  C6  UNL     1       0.606  -0.384  -0.157  1.00  0.00     0.088 A 
HETATM    2  S1  UNL     1       0.629  -1.806  -1.103  1.00  0.00    -0.053 SA
HETATM    3  C7  UNL     1      -1.041  -2.023  -1.293  1.00  0.00     0.156 A 
HETATM    4  S2  UNL     1      -1.805  -3.235  -2.121  1.00  0.00    -0.051 SA
HETATM    5  N4  UNL     1      -1.557  -0.994  -0.623  1.00  0.00    -0.220 N 
HETATM    6  C8  UNL     1      -3.007  -0.858  -0.572  1.00  0.00     0.375 C 
HETATM    7  O1  UNL     1      -3.760  -1.658  -1.125  1.00  0.00    -0.237 OA
HETATM    8  C12 UNL     1      -0.750  -0.154  -0.041  1.00  0.00     0.172 A 
ENDROOT
BRANCH   1   9
HETATM    9  C5  UNL     1       1.678   0.416   0.405  1.00  0.00     0.083 C 
HETATM   10  N3  UNL     1       1.382   1.461   1.092  1.00  0.00    -0.396 N 
ATOM     11  H32 UNL     1       2.136   2.023   1.487  1.00  0.00     0.156 HD
ATOM     12  H31 UNL     1       0.400   1.703   1.227  1.00  0.00     0.156 HD
BRANCH   9  13
HETATM   13  C4  UNL     1       3.063   0.075   0.215  1.00  0.00     0.122 A 
HETATM   14  C3  UNL     1       3.585  -0.970  -0.466  1.00  0.00     0.131 A 
HETATM   15  N2  UNL     1       4.948  -0.853  -0.351  1.00  0.00    -0.329 N 
HETATM   16  C2  UNL     1       5.227   0.229   0.377  1.00  0.00     0.224 A 
ATOM     17  H2  UNL     1       5.635  -1.489  -0.756  1.00  0.00     0.168 HD
HETATM   18  O4  UNL     1       4.092   0.766   0.703  1.00  0.00    -0.276 OA
BRANCH  16  19
HETATM   19  N1  UNL     1       6.425   0.645   0.687  1.00  0.00    -0.360 N 
HETATM   20  C1  UNL     1       7.563  -0.096   0.225  1.00  0.00     0.150 C 
ATOM     21  H1  UNL     1       6.550   1.486   1.250  1.00  0.00     0.162 HD
ENDBRANCH  16  19
ENDBRANCH   9  13
ENDBRANCH   1   9
BRANCH   8  22
HETATM   22  O3  UNL     1      -1.198   0.979   0.701  1.00  0.00    -0.344 OA
ATOM     23  H3  UNL     1      -2.131   1.137   0.781  1.00  0.00     0.219 HD
ENDBRANCH   8  22
BRANCH   6  24
HETATM   24  O2  UNL     1      -3.630   0.180   0.103  1.00  0.00    -0.299 OA
BRANCH  24  25
HETATM   25  C9  UNL     1      -5.022   0.324   0.161  1.00  0.00     0.125 C 
HETATM   26  C10 UNL     1      -5.375   1.625  -0.532  1.00  0.00     0.040 C 
HETATM   27  C11 UNL     1      -5.605   0.326   1.521  1.00  0.00     0.040 C 
ENDBRANCH  24  25
ENDBRANCH   6  24
TORSDOF 6
