REMARK  4 active torsions:
REMARK  status: ('A' for Active; 'I' for Inactive)
REMARK    1  A    between atoms: O1_2  and  C2_3 
REMARK    2  A    between atoms: C4_5  and  C5_6 
REMARK    3  A    between atoms: C8_9  and  C9_10 
REMARK    4  A    between atoms: C9_10  and  O2_11 
ROOT
HETATM    1  C5  UNL     1      -0.107   0.561   0.767  1.00  0.00     0.056 C 
HETATM    2  C6  UNL     1      -0.629  -0.700   1.406  1.00  0.00     0.015 C 
HETATM    3  C7  UNL     1      -1.250  -1.683   0.479  1.00  0.00     0.041 C 
HETATM    4  C8  UNL     1      -2.018  -1.012  -0.669  1.00  0.00     0.085 C 
HETATM    5  C10 UNL     1      -3.277  -0.478  -0.140  1.00  0.00     0.072 C 
HETATM    6  C11 UNL     1      -3.773   0.805  -0.680  1.00  0.00     0.125 C 
HETATM    7  C12 UNL     1      -4.023   1.804   0.465  1.00  0.00     0.034 C 
HETATM    8  C13 UNL     1      -2.556   2.163   0.762  1.00  0.00     0.037 C 
HETATM    9  C14 UNL     1      -1.843   1.917  -0.491  1.00  0.00     0.157 C 
HETATM   10  O3  UNL     1      -2.853   1.539  -1.414  1.00  0.00    -0.377 OA
HETATM   11  C15 UNL     1      -0.742   0.923  -0.530  1.00  0.00     0.092 C 
HETATM   12  C16 UNL     1       0.368   1.554  -1.400  1.00  0.00     0.049 C 
HETATM   13  O4  UNL     1      -1.155  -0.178  -1.280  1.00  0.00    -0.364 OA
ENDROOT
BRANCH   1  14
HETATM   14  C4  UNL     1       1.372   0.416   0.712  1.00  0.00    -0.045 A 
HETATM   15  C3  UNL     1       1.966  -0.558  -0.058  1.00  0.00     0.047 A 
HETATM   16  C2  UNL     1       3.325  -0.685  -0.099  1.00  0.00     0.104 A 
HETATM   17  C19 UNL     1       4.145   0.158   0.629  1.00  0.00     0.138 A 
HETATM   18  C18 UNL     1       3.573   1.141   1.408  1.00  0.00     0.108 A 
HETATM   19  O5  UNL     1       5.541   0.264   0.781  1.00  0.00    -0.320 OA
HETATM   20  C17 UNL     1       2.207   1.241   1.426  1.00  0.00     0.047 A 
HETATM   21  O6  UNL     1       4.635   1.828   2.021  1.00  0.00    -0.323 OA
HETATM   22  C20 UNL     1       5.786   0.971   2.007  1.00  0.00     0.352 C 
BRANCH  16  23
HETATM   23  O1  UNL     1       3.966  -1.670  -0.877  1.00  0.00    -0.353 OA
HETATM   24  C1  UNL     1       3.126  -2.530  -1.621  1.00  0.00     0.210 C 
ENDBRANCH  16  23
ENDBRANCH   1  14
BRANCH   4  25
HETATM   25  C9  UNL     1      -2.304  -2.156  -1.656  1.00  0.00     0.202 C 
BRANCH  25  26
HETATM   26  O2  UNL     1      -1.108  -2.823  -1.970  1.00  0.00    -0.398 OA
ATOM     27  H2  UNL     1      -1.285  -3.530  -2.580  1.00  0.00     0.209 HD
ENDBRANCH  25  26
ENDBRANCH   4  25
TORSDOF 4
