REMARK  6 active torsions:
REMARK  status: ('A' for Active; 'I' for Inactive)
REMARK    1  A    between atoms: C2_2  and  C3_3 
REMARK    2  A    between atoms: C3_3  and  O1_4 
REMARK    3  A    between atoms: C11_15  and  O4_16 
REMARK    4  A    between atoms: O4_16  and  C12_17 
REMARK    5  A    between atoms: C12_17  and  O6_19 
REMARK    6  A    between atoms: O6_19  and  C13_20 
ROOT
HETATM    1  C3  UNL     1       3.304   0.517   1.175  1.00  0.00     0.139 C 
HETATM    2  C4  UNL     1       3.217  -0.885   0.752  1.00  0.00     0.170 C 
HETATM    3  O2  UNL     1       4.252  -1.563   0.851  1.00  0.00    -0.294 OA
HETATM    4  C5  UNL     1       2.030  -1.565   0.224  1.00  0.00     0.072 C 
HETATM    5  C6  UNL     1       2.283  -1.831  -1.239  1.00  0.00     0.092 C 
HETATM    6  C7  UNL     1       1.081  -2.518  -1.775  1.00  0.00     0.138 C 
HETATM    7  O3  UNL     1       1.143  -3.629  -2.288  1.00  0.00    -0.297 OA
HETATM    8  C8  UNL     1      -0.190  -1.753  -1.639  1.00  0.00     0.040 C 
HETATM    9  C9  UNL     1      -0.106  -0.608  -2.650  1.00  0.00     0.026 C 
HETATM   10  C10 UNL     1      -1.297  -2.673  -2.110  1.00  0.00     0.026 C 
HETATM   11  C11 UNL     1      -0.426  -1.249  -0.250  1.00  0.00     0.154 C 
HETATM   12  C16 UNL     1       0.768  -0.821   0.497  1.00  0.00     0.029 C 
HETATM   13  C17 UNL     1       1.030   0.681   0.327  1.00  0.00     0.016 C 
HETATM   14  C18 UNL     1       1.935   1.057   1.501  1.00  0.00     0.028 C 
HETATM   15  C19 UNL     1       1.928   2.520   1.778  1.00  0.00     0.014 C 
ENDROOT
BRANCH  11  16
HETATM   16  O4  UNL     1      -1.284  -0.103  -0.367  1.00  0.00    -0.291 OA
BRANCH  16  17
HETATM   17  C12 UNL     1      -2.582  -0.126   0.153  1.00  0.00     0.407 C 
HETATM   18  O5  UNL     1      -2.926  -1.195   0.713  1.00  0.00    -0.229 OA
BRANCH  17  19
HETATM   19  O6  UNL     1      -3.448   0.946   0.069  1.00  0.00    -0.293 OA
BRANCH  19  20
HETATM   20  C13 UNL     1      -4.735   0.839   0.619  1.00  0.00     0.126 C 
HETATM   21  C14 UNL     1      -4.972   1.844   1.726  1.00  0.00     0.040 C 
HETATM   22  C15 UNL     1      -5.816   1.076  -0.419  1.00  0.00     0.040 C 
ENDBRANCH  19  20
ENDBRANCH  17  19
ENDBRANCH  16  17
ENDBRANCH  11  16
BRANCH   1  23
HETATM   23  C2  UNL     1       3.930   1.394   0.149  1.00  0.00     0.009 C 
HETATM   24  C1  UNL     1       5.242   1.601   0.131  1.00  0.00     0.010 C 
ENDBRANCH   1  23
BRANCH   1  25
HETATM   25  O1  UNL     1       4.128   0.581   2.317  1.00  0.00    -0.378 OA
ATOM     26  H1  UNL     1       3.728   0.021   2.972  1.00  0.00     0.211 HD
ENDBRANCH   1  25
TORSDOF 6
