REMARK  4 active torsions:
REMARK  status: ('A' for Active; 'I' for Inactive)
REMARK    1  A    between atoms: C3_3  and  O1_4 
REMARK    2  A    between atoms: N1_6  and  C4_7 
REMARK    3  A    between atoms: C4_7  and  C5_8 
REMARK    4  A    between atoms: C8_11  and  N2_12 
ROOT
HETATM    1  C5  UNL     1       0.444   0.220  -1.094  1.00  0.00     0.004 C 
HETATM    2  C6  UNL     1      -0.580   0.374  -2.231  1.00  0.00     0.008 C 
HETATM    3  C7  UNL     1      -1.846   0.859  -1.539  1.00  0.00     0.036 C 
HETATM    4  C8  UNL     1      -2.011   0.084  -0.263  1.00  0.00     0.223 C 
HETATM    5  C13 UNL     1      -1.379  -1.282  -0.280  1.00  0.00     0.036 C 
HETATM    6  C14 UNL     1       0.133  -1.091  -0.417  1.00  0.00     0.008 C 
ENDROOT
BRANCH   1   7
HETATM    7  C4  UNL     1       1.796   0.320  -1.700  1.00  0.00     0.140 C 
BRANCH   7   8
HETATM    8  N1  UNL     1       2.898   0.206  -0.780  1.00  0.00    -0.278 N 
HETATM    9  C3  UNL     1       3.486   1.213  -0.097  1.00  0.00     0.169 A 
HETATM   10  C2  UNL     1       4.514   0.719   0.677  1.00  0.00     0.063 A 
HETATM   11  C1  UNL     1       5.429   1.461   1.586  1.00  0.00     0.073 C 
HETATM   12  N3  UNL     1       4.518  -0.603   0.435  1.00  0.00    -0.304 N 
HETATM   13  C15 UNL     1       3.544  -0.917  -0.445  1.00  0.00     0.330 A 
HETATM   14  C16 UNL     1       5.440  -1.567   1.033  1.00  0.00     0.161 C 
HETATM   15  O2  UNL     1       3.339  -2.099  -0.838  1.00  0.00    -0.246 OA
BRANCH   9  16
HETATM   16  O1  UNL     1       3.128   2.556  -0.149  1.00  0.00    -0.344 OA
ATOM     17  H1  UNL     1       2.419   2.896  -0.682  1.00  0.00     0.219 HD
ENDBRANCH   9  16
ENDBRANCH   7   8
ENDBRANCH   1   7
BRANCH   4  18
HETATM   18  N2  UNL     1      -3.397   0.067   0.101  1.00  0.00     0.094 N 
HETATM   19  C9  UNL     1      -4.286  -0.574  -0.798  1.00  0.00     0.283 C 
HETATM   20  C10 UNL     1      -5.563   0.282  -0.829  1.00  0.00     0.104 C 
HETATM   21  S1  UNL     1      -5.693   1.217   0.745  1.00  0.00    -0.166 SA
HETATM   22  C11 UNL     1      -4.949   0.148   2.013  1.00  0.00     0.104 C 
HETATM   23  C12 UNL     1      -3.634  -0.353   1.458  1.00  0.00     0.283 C 
ENDBRANCH   4  18
TORSDOF 4
