REMARK  6 active torsions:
REMARK  status: ('A' for Active; 'I' for Inactive)
REMARK    1  A    between atoms: N1_1  and  C1_5 
REMARK    2  A    between atoms: C1_5  and  C2_6 
REMARK    3  A    between atoms: C2_6  and  N2_7 
REMARK    4  A    between atoms: C2_6  and  C3_11 
REMARK    5  A    between atoms: C3_11  and  C4_12 
REMARK    6  A    between atoms: C4_12  and  C5_13 
ROOT
HETATM    1  C2  UNL     1      -1.649   0.638   0.056  1.00  0.00     0.208 C 
ENDROOT
BRANCH   1   2
HETATM    2  C1  UNL     1      -2.160  -0.705   0.517  1.00  0.00     0.262 C 
BRANCH   2   3
HETATM    3  N1  UNL     1      -3.573  -0.645   0.846  1.00  0.00    -0.077 N 
ATOM      4  H13 UNL     1      -3.768   0.085   1.531  1.00  0.00     0.274 HD
ATOM      5  H12 UNL     1      -4.124  -0.281   0.068  1.00  0.00     0.274 HD
ATOM      6  H11 UNL     1      -3.918  -1.553   1.158  1.00  0.00     0.274 HD
ENDBRANCH   2   3
ENDBRANCH   1   2
BRANCH   1   7
HETATM    7  N2  UNL     1      -2.387   1.070  -1.131  1.00  0.00    -0.073 N 
ATOM      8  H23 UNL     1      -2.358   0.373  -1.875  1.00  0.00     0.274 HD
ATOM      9  H22 UNL     1      -3.395   1.077  -0.974  1.00  0.00     0.274 HD
ATOM     10  H21 UNL     1      -2.042   1.978  -1.443  1.00  0.00     0.274 HD
ENDBRANCH   1   7
BRANCH   1  11
HETATM   11  C3  UNL     1      -0.197   0.616  -0.316  1.00  0.00     0.037 C 
BRANCH  11  12
HETATM   12  C4  UNL     1       0.655   0.213   0.836  1.00  0.00     0.044 C 
BRANCH  12  13
HETATM   13  C5  UNL     1       2.121   0.209   0.451  1.00  0.00     0.220 C 
HETATM   14  N3  UNL     1       2.941  -0.184   1.580  1.00  0.00    -0.094 NA
HETATM   15  N4  UNL     1       3.901  -1.041   0.982  1.00  0.00     0.035 NA
HETATM   16  O1  UNL     1       3.224  -1.711   0.050  1.00  0.00    -0.152 OA
HETATM   17  N5  UNL     1       2.446  -0.776  -0.533  1.00  0.00    -0.053 NA
ENDBRANCH  12  13
ENDBRANCH  11  12
ENDBRANCH   1  11
TORSDOF 6
