REMARK  6 active torsions:
REMARK  status: ('A' for Active; 'I' for Inactive)
REMARK    1  A    between atoms: C4_5  and  N2_6 
REMARK    2  A    between atoms: N2_6  and  C5_8 
REMARK    3  A    between atoms: C7_12  and  C8_13 
REMARK    4  A    between atoms: C8_13  and  C9_14 
REMARK    5  A    between atoms: C11_17  and  N5_18 
REMARK    6  A    between atoms: N5_18  and  C12_20 
ROOT
HETATM    1  C9  UNL     1      -2.933  -2.412  -3.027  1.00  0.00     0.128 C 
HETATM    2  C10 UNL     1      -4.157  -3.124  -3.423  1.00  0.00     0.059 C 
HETATM    3  N4  UNL     1      -5.115  -3.699  -3.729  1.00  0.00    -0.197 NA
ENDROOT
BRANCH   1   4
HETATM    4  C8  UNL     1      -2.405  -3.020  -1.747  1.00  0.00     0.058 C 
BRANCH   4   5
HETATM    5  C7  UNL     1      -1.175  -2.365  -1.278  1.00  0.00     0.003 A 
HETATM    6  C6  UNL     1       0.035  -2.996  -1.469  1.00  0.00     0.117 A 
HETATM    7  N3  UNL     1       1.125  -2.356  -1.027  1.00  0.00    -0.201 N 
HETATM    8  C5  UNL     1       1.085  -1.141  -0.413  1.00  0.00     0.679 A 
ATOM      9  H3  UNL     1       2.033  -2.802  -1.157  1.00  0.00     0.183 HD
HETATM   10  N6  UNL     1      -0.112  -0.556  -0.244  1.00  0.00    -0.176 N 
HETATM   11  C11 UNL     1      -1.264  -1.128  -0.658  1.00  0.00     0.125 A 
ATOM     12  H6  UNL     1      -0.153   0.354   0.214  1.00  0.00     0.186 HD
BRANCH   8  13
HETATM   13  N2  UNL     1       2.160  -0.625  -0.038  1.00  0.00    -0.219 N 
ATOM     14  H2  UNL     1       2.983  -1.192  -0.240  1.00  0.00     0.178 HD
BRANCH  13  15
HETATM   15  C4  UNL     1       2.453   0.606   0.619  1.00  0.00     0.127 C 
HETATM   16  C3  UNL     1       3.383   1.379  -0.281  1.00  0.00     0.049 C 
HETATM   17  C2  UNL     1       4.821   0.956  -0.125  1.00  0.00     0.151 C 
HETATM   18  N1  UNL     1       5.184   0.761   1.240  1.00  0.00    -0.298 N 
HETATM   19  C1  UNL     1       5.623   1.929   1.933  1.00  0.00     0.178 C 
HETATM   20  O1  UNL     1       4.382  -0.050   1.909  1.00  0.00    -0.281 OA
HETATM   21  C17 UNL     1       3.057   0.327   1.972  1.00  0.00     0.226 C 
ENDBRANCH  13  15
ENDBRANCH   8  13
BRANCH  11  22
HETATM   22  N5  UNL     1      -2.423  -0.612  -0.520  1.00  0.00    -0.371 N 
ATOM     23  H5  UNL     1      -3.239  -1.118  -0.865  1.00  0.00     0.161 HD
BRANCH  22  24
HETATM   24  C12 UNL     1      -2.602   0.647   0.101  1.00  0.00     0.083 C 
HETATM   25  C13 UNL     1      -3.969   1.256  -0.161  1.00  0.00     0.025 C 
HETATM   26  C14 UNL     1      -3.963   2.428   0.812  1.00  0.00     0.002 C 
HETATM   27  C15 UNL     1      -3.026   2.022   1.933  1.00  0.00     0.002 C 
HETATM   28  C16 UNL     1      -2.623   0.593   1.613  1.00  0.00     0.025 C 
ENDBRANCH  22  24
ENDBRANCH  11  22
ENDBRANCH   4   5
ENDBRANCH   1   4
TORSDOF 6
