REMARK  11 active torsions:
REMARK  status: ('A' for Active; 'I' for Inactive)
REMARK    1  A    between atoms: N1_2  and  C2_3 
REMARK    2  A    between atoms: N1_2  and  C22_39 
REMARK    3  A    between atoms: C2_3  and  C3_4 
REMARK    4  A    between atoms: C3_4  and  C4_6 
REMARK    5  A    between atoms: C4_6  and  N2_7 
REMARK    6  A    between atoms: N2_7  and  C5_9 
REMARK    7  A    between atoms: C6_12  and  C7_13 
REMARK    8  A    between atoms: C9_17  and  N5_18 
REMARK    9  A    between atoms: N5_18  and  C10_20 
REMARK   10  A    between atoms: C18_33  and  C19_34 
REMARK   11  A    between atoms: C25_42  and  C26_43 
ROOT
HETATM    1  C5  UNL     1      -1.196  -1.531   0.260  1.00  0.00     0.113 A 
HETATM    2  N3  UNL     1      -2.215  -0.646   0.157  1.00  0.00    -0.341 N 
ATOM      3  H3  UNL     1      -1.996   0.321  -0.081  1.00  0.00     0.167 HD
HETATM    4  C6  UNL     1      -3.478  -0.976   0.350  1.00  0.00     0.053 A 
HETATM    5  C14 UNL     1      -3.783  -2.279   0.672  1.00  0.00     0.043 A 
HETATM    6  C15 UNL     1      -2.757  -3.227   0.789  1.00  0.00    -0.020 A 
HETATM    7  C16 UNL     1      -3.036  -4.538   1.109  1.00  0.00     0.013 A 
HETATM    8  C17 UNL     1      -1.995  -5.450   1.215  1.00  0.00     0.012 A 
HETATM    9  C18 UNL     1      -0.677  -5.105   1.014  1.00  0.00    -0.009 A 
HETATM   10  C20 UNL     1      -0.414  -3.782   0.692  1.00  0.00     0.027 A 
HETATM   11  C21 UNL     1      -1.448  -2.870   0.585  1.00  0.00     0.019 A 
ENDROOT
BRANCH   1  12
HETATM   12  N2  UNL     1       0.039  -1.255   0.073  1.00  0.00    -0.373 N 
ATOM     13  H2  UNL     1       0.713  -2.013   0.182  1.00  0.00     0.161 HD
BRANCH  12  14
HETATM   14  C4  UNL     1       0.545   0.031  -0.276  1.00  0.00     0.160 C 
BRANCH  14  15
HETATM   15  C3  UNL     1       1.747  -0.138  -1.161  1.00  0.00     0.205 C 
HETATM   16  F1  UNL     1       2.148   1.035  -1.783  1.00  0.00    -0.246 F 
BRANCH  15  17
HETATM   17  C2  UNL     1       2.885  -0.886  -0.567  1.00  0.00     0.161 C 
BRANCH  17  18
HETATM   18  N1  UNL     1       3.651  -0.175   0.420  1.00  0.00    -0.382 N 
HETATM   19  C1  UNL     1       3.095   0.073   1.735  1.00  0.00     0.150 C 
BRANCH  18  20
HETATM   20  C22 UNL     1       4.946   0.312   0.103  1.00  0.00     0.032 A 
HETATM   21  C23 UNL     1       5.575   0.164  -1.113  1.00  0.00     0.030 A 
HETATM   22  C24 UNL     1       6.825   0.679  -1.306  1.00  0.00     0.020 A 
HETATM   23  C25 UNL     1       7.551   1.374  -0.329  1.00  0.00     0.043 A 
HETATM   24  C27 UNL     1       6.921   1.518   0.875  1.00  0.00     0.132 A 
HETATM   25  F3  UNL     1       7.517   2.173   1.906  1.00  0.00    -0.205 F 
HETATM   26  C28 UNL     1       5.658   1.003   1.085  1.00  0.00     0.072 A 
BRANCH  23  27
HETATM   27  C26 UNL     1       8.881   1.877  -0.653  1.00  0.00     0.123 C 
HETATM   28  N8  UNL     1       9.636   2.501   0.112  1.00  0.00    -0.387 N 
ATOM     29  H82 UNL     1       9.283   2.671   1.054  1.00  0.00     0.157 HD
ATOM     30  H81 UNL     1      10.566   2.853  -0.115  1.00  0.00     0.157 HD
HETATM   31  N9  UNL     1       9.378   1.637  -1.981  1.00  0.00    -0.082 NA
ENDBRANCH  23  27
ENDBRANCH  18  20
ENDBRANCH  17  18
ENDBRANCH  15  17
ENDBRANCH  14  15
ENDBRANCH  12  14
ENDBRANCH   1  12
BRANCH   4  32
HETATM   32  C7  UNL     1      -4.544   0.024   0.220  1.00  0.00     0.050 A 
HETATM   33  C8  UNL     1      -4.461   1.349  -0.091  1.00  0.00     0.111 A 
HETATM   34  N4  UNL     1      -5.562   2.040  -0.150  1.00  0.00    -0.345 N 
HETATM   35  C9  UNL     1      -6.718   1.421   0.096  1.00  0.00     0.150 A 
ATOM     36  H4  UNL     1      -5.542   3.034  -0.379  1.00  0.00     0.167 HD
HETATM   37  S1  UNL     1      -6.233  -0.182   0.420  1.00  0.00    -0.050 SA
BRANCH  35  38
HETATM   38  N5  UNL     1      -7.931   1.928   0.088  1.00  0.00    -0.322 N 
ATOM     39  H5  UNL     1      -8.739   1.341   0.296  1.00  0.00     0.169 HD
BRANCH  38  40
HETATM   40  C10 UNL     1      -8.099   3.304  -0.214  1.00  0.00     0.122 A 
HETATM   41  C11 UNL     1      -8.552   4.190   0.769  1.00  0.00     0.136 A 
HETATM   42  N6  UNL     1      -8.725   5.501   0.532  1.00  0.00    -0.371 N 
HETATM   43  C12 UNL     1      -8.464   6.018  -0.684  1.00  0.00     0.104 A 
ATOM     44  H6  UNL     1      -9.057   6.110   1.280  1.00  0.00     0.164 HD
HETATM   45  C13 UNL     1      -8.014   5.149  -1.666  1.00  0.00     0.106 A 
HETATM   46  N7  UNL     1      -7.842   3.837  -1.422  1.00  0.00    -0.350 N 
ATOM     47  H7  UNL     1      -7.508   3.231  -2.172  1.00  0.00     0.166 HD
ENDBRANCH  38  40
ENDBRANCH  35  38
ENDBRANCH   4  32
BRANCH   9  48
HETATM   48  C19 UNL     1       0.413  -6.114   1.135  1.00  0.00     0.299 C 
HETATM   49  F2  UNL     1       1.209  -5.777   2.222  1.00  0.00    -0.228 F 
HETATM   50 CL1  UNL     1       1.317  -6.248  -0.367  1.00  0.00    -0.085 Cl
ENDBRANCH   9  48
TORSDOF 11
