REMARK  3 active torsions:
REMARK  status: ('A' for Active; 'I' for Inactive)
REMARK    1  A    between atoms: C2_2  and  N1_4 
REMARK    2  A    between atoms: C4_6  and  O1_8 
REMARK    3  A    between atoms: O1_8  and  C5_9 
ROOT
HETATM    1  C5  UNL     1       2.736  -0.320  -0.676  1.00  0.00     0.301 C 
HETATM    2  C6  UNL     1       2.577   1.117  -0.867  1.00  0.00     0.085 C 
HETATM    3  N2  UNL     1       2.465   2.256  -1.010  1.00  0.00    -0.195 NA
ENDROOT
BRANCH   1   4
HETATM    4  O1  UNL     1       2.253  -0.776   0.548  1.00  0.00    -0.316 OA
BRANCH   4   5
HETATM    5  C4  UNL     1       0.911  -0.600   0.870  1.00  0.00     0.190 C 
HETATM    6  N1  UNL     1       0.112  -0.352  -0.113  1.00  0.00    -0.361 N 
ATOM      7  H1  UNL     1       0.456  -0.290  -1.071  1.00  0.00     0.162 HD
HETATM    8  S1  UNL     1       0.330  -0.712   2.564  1.00  0.00    -0.005 SA
BRANCH   6   9
HETATM    9  C2  UNL     1      -1.289  -0.165   0.193  1.00  0.00     0.076 C 
HETATM   10  C1  UNL     1      -2.079  -1.000  -0.815  1.00  0.00     0.032 C 
HETATM   11  C3  UNL     1      -1.688   1.273   0.072  1.00  0.00     0.032 C 
ENDBRANCH   6   9
ENDBRANCH   4   5
ENDBRANCH   1   4
TORSDOF 3
