REMARK  9 active torsions:
REMARK  status: ('A' for Active; 'I' for Inactive)
REMARK    1  A    between atoms: C2_2  and  C3_3 
REMARK    2  A    between atoms: C3_3  and  N1_4 
REMARK       I    between atoms: N1_4  and  C4_6 
REMARK    3  A    between atoms: C4_6  and  C5_8 
REMARK    4  A    between atoms: C5_8  and  N2_9 
REMARK    5  A    between atoms: N2_9  and  C6_11 
REMARK    6  A    between atoms: C12_18  and  N4_19 
REMARK    7  A    between atoms: N4_19  and  C13_21 
REMARK    8  A    between atoms: C13_21  and  C14_22 
REMARK    9  A    between atoms: C14_22  and  N5_23 
ROOT
HETATM    1  C6  UNL     1      -0.448  -1.137  -0.482  1.00  0.00     0.055 A 
HETATM    2  C7  UNL     1       0.221  -2.274  -0.867  1.00  0.00     0.033 A 
HETATM    3  C8  UNL     1      -0.364  -3.503  -0.731  1.00  0.00     0.025 A 
HETATM    4  C9  UNL     1      -1.629  -3.659  -0.211  1.00  0.00     0.046 A 
HETATM    5  C10 UNL     1      -2.258  -4.941  -0.062  1.00  0.00     0.099 C 
HETATM    6  N3  UNL     1      -2.757  -5.986   0.076  1.00  0.00    -0.191 NA
HETATM    7  C11 UNL     1      -2.278  -2.485   0.168  1.00  0.00     0.054 A 
HETATM    8  C12 UNL     1      -1.718  -1.234   0.045  1.00  0.00     0.056 A 
ENDROOT
BRANCH   8   9
HETATM    9  N4  UNL     1      -2.466  -0.092   0.433  1.00  0.00    -0.386 N 
ATOM     10  H4  UNL     1      -2.061   0.818   0.211  1.00  0.00     0.159 HD
BRANCH   9  11
HETATM   11  C13 UNL     1      -3.725  -0.087   1.101  1.00  0.00     0.147 C 
BRANCH  11  12
HETATM   12  C14 UNL     1      -3.586  -0.518   2.544  1.00  0.00     0.249 C 
BRANCH  12  13
HETATM   13  N5  UNL     1      -2.687   0.415   3.238  1.00  0.00    -0.078 N 
ATOM     14  H53 UNL     1      -1.785   0.505   2.771  1.00  0.00     0.274 HD
ATOM     15  H52 UNL     1      -2.991   1.385   3.150  1.00  0.00     0.274 HD
ATOM     16  H51 UNL     1      -2.593   0.124   4.211  1.00  0.00     0.274 HD
ENDBRANCH  12  13
ENDBRANCH  11  12
ENDBRANCH   9  11
ENDBRANCH   8   9
BRANCH   1  17
HETATM   17  N2  UNL     1       0.213   0.111  -0.643  1.00  0.00    -0.379 N 
ATOM     18  H2  UNL     1      -0.244   0.979  -0.363  1.00  0.00     0.160 HD
BRANCH  17  19
HETATM   19  C5  UNL     1       1.535   0.132  -1.206  1.00  0.00     0.222 C 
BRANCH  19  20
HETATM   20  C4  UNL     1       2.074   1.508  -1.302  1.00  0.00     0.235 C 
HETATM   21  N1  UNL     1       3.375   1.689  -1.841  1.00  0.00    -0.356 N 
ATOM     22  H1  UNL     1       3.880   0.857  -2.147  1.00  0.00     0.162 HD
HETATM   23  O1  UNL     1       1.350   2.450  -0.900  1.00  0.00    -0.272 OA
BRANCH  21  24
HETATM   24  C3  UNL     1       4.026   2.944  -1.986  1.00  0.00     0.149 C 
BRANCH  24  25
HETATM   25  C2  UNL     1       4.310   3.636  -0.711  1.00  0.00    -0.018 C 
HETATM   26  C1  UNL     1       4.055   3.128   0.477  1.00  0.00     0.008 C 
ENDBRANCH  24  25
ENDBRANCH  21  24
ENDBRANCH  19  20
ENDBRANCH  17  19
ENDBRANCH   1  17
TORSDOF 9
