REMARK  16 active torsions:
REMARK  status: ('A' for Active; 'I' for Inactive)
REMARK    1  A    between atoms: C2_2  and  C3_3 
REMARK    2  A    between atoms: C3_3  and  N1_6 
REMARK    3  A    between atoms: N1_6  and  C6_8 
REMARK    4  A    between atoms: C7_11  and  N3_12 
REMARK    5  A    between atoms: C9_20  and  N6_21 
REMARK    6  A    between atoms: N6_21  and  C10_23 
REMARK    7  A    between atoms: C10_23  and  C11_24 
REMARK    8  A    between atoms: C11_24  and  N7_25 
REMARK    9  A    between atoms: N7_25  and  S1_27 
REMARK   10  A    between atoms: C13_31  and  N8_32 
REMARK   11  A    between atoms: N8_32  and  C14_34 
REMARK   12  A    between atoms: C14_34  and  C15_35 
REMARK   13  A    between atoms: C15_35  and  O3_36 
REMARK   14  A    between atoms: O3_36  and  C16_37 
REMARK   15  A    between atoms: C16_37  and  C17_38 
REMARK   16  A    between atoms: C17_38  and  O4_39 
ROOT
HETATM    1  C6  UNL     1       3.164   0.663  -0.040  1.00  0.00     0.148 A 
HETATM    2  N2  UNL     1       3.806   1.832   0.020  1.00  0.00    -0.175 N 
ATOM      3  H2  UNL     1       4.821   1.809   0.119  1.00  0.00     0.186 HD
HETATM    4  C7  UNL     1       3.211   3.041  -0.041  1.00  0.00     0.679 A 
HETATM    5  N4  UNL     1       1.873   3.080  -0.171  1.00  0.00    -0.174 N 
ATOM      6  H4  UNL     1       1.398   3.982  -0.218  1.00  0.00     0.186 HD
HETATM    7  C8  UNL     1       1.148   1.940  -0.240  1.00  0.00     0.153 A 
HETATM    8  N5  UNL     1      -0.186   2.033  -0.370  1.00  0.00    -0.323 N 
ATOM      9  H5  UNL     1      -0.639   2.946  -0.417  1.00  0.00     0.169 HD
HETATM   10  C9  UNL     1      -0.916   0.903  -0.438  1.00  0.00     0.151 A 
HETATM   11  C13 UNL     1      -0.323  -0.365  -0.377  1.00  0.00     0.150 A 
HETATM   12  N9  UNL     1       1.030  -0.391  -0.246  1.00  0.00    -0.333 N 
ATOM     13  H9  UNL     1       1.497  -1.297  -0.200  1.00  0.00     0.168 HD
HETATM   14  C19 UNL     1       1.776   0.715  -0.175  1.00  0.00     0.123 A 
ENDROOT
BRANCH  10  15
HETATM   15  N6  UNL     1      -2.131   0.950  -0.556  1.00  0.00    -0.351 N 
ATOM     16  H6  UNL     1      -2.438  -0.022  -0.586  1.00  0.00     0.166 HD
BRANCH  15  17
HETATM   17  C10 UNL     1      -3.275   1.698  -0.667  1.00  0.00     0.083 C 
BRANCH  17  18
HETATM   18  C11 UNL     1      -3.202   3.200  -0.570  1.00  0.00     0.176 C 
BRANCH  18  19
HETATM   19  N7  UNL     1      -4.556   3.781  -0.714  1.00  0.00    -0.315 N 
ATOM     20  H7  UNL     1      -5.422   3.262  -0.858  1.00  0.00     0.172 HD
BRANCH  19  21
HETATM   21  S1  UNL     1      -4.402   5.497  -0.593  1.00  0.00     0.223 S 
HETATM   22  C12 UNL     1      -3.765   6.019   0.957  1.00  0.00     0.185 C 
HETATM   23  O1  UNL     1      -5.795   6.080  -0.747  1.00  0.00    -0.206 OA
HETATM   24  O2  UNL     1      -3.521   6.043  -1.680  1.00  0.00    -0.206 OA
ENDBRANCH  19  21
ENDBRANCH  18  19
ENDBRANCH  17  18
ENDBRANCH  15  17
ENDBRANCH  10  15
BRANCH  11  25
HETATM   25  N8  UNL     1      -0.929  -1.447  -0.434  1.00  0.00    -0.351 N 
ATOM     26  H8  UNL     1      -0.281  -2.232  -0.369  1.00  0.00     0.166 HD
BRANCH  25  27
HETATM   27  C14 UNL     1      -2.245  -1.895  -0.562  1.00  0.00     0.088 C 
BRANCH  27  28
HETATM   28  C15 UNL     1      -2.848  -2.166   0.806  1.00  0.00     0.212 C 
BRANCH  28  29
HETATM   29  O3  UNL     1      -4.141  -2.604   0.736  1.00  0.00    -0.384 OA
BRANCH  29  30
HETATM   30  C16 UNL     1      -4.300  -3.787   0.020  1.00  0.00     0.194 C 
BRANCH  30  31
HETATM   31  C17 UNL     1      -3.529  -4.928   0.588  1.00  0.00     0.193 C 
BRANCH  31  32
HETATM   32  O4  UNL     1      -3.713  -6.061  -0.153  1.00  0.00    -0.394 OA
HETATM   33  C18 UNL     1      -5.019  -6.460  -0.207  1.00  0.00     0.201 C 
ENDBRANCH  31  32
ENDBRANCH  30  31
ENDBRANCH  29  30
ENDBRANCH  28  29
ENDBRANCH  27  28
ENDBRANCH  25  27
ENDBRANCH  11  25
BRANCH   4  34
HETATM   34  N3  UNL     1       3.907   4.139   0.024  1.00  0.00    -0.234 N 
ATOM     35  H32 UNL     1       4.922   4.109   0.123  1.00  0.00     0.174 HD
ATOM     36  H31 UNL     1       3.457   5.053  -0.022  1.00  0.00     0.174 HD
ENDBRANCH   4  34
BRANCH   1  37
HETATM   37  N1  UNL     1       3.693  -0.480   0.014  1.00  0.00    -0.365 N 
ATOM     38  H1  UNL     1       3.035  -1.256  -0.048  1.00  0.00     0.162 HD
BRANCH  37  39
HETATM   39  C3  UNL     1       5.051  -0.866   0.147  1.00  0.00     0.024 C 
HETATM   40  C4  UNL     1       5.756  -0.343   1.366  1.00  0.00     0.038 C 
HETATM   41  C5  UNL     1       5.038  -2.398   0.303  1.00  0.00     0.038 C 
BRANCH  39  42
HETATM   42  C2  UNL     1       5.872  -0.639  -1.129  1.00  0.00     0.026 C 
HETATM   43  C1  UNL     1       7.188  -1.389  -0.921  1.00  0.00     0.007 C 
ENDBRANCH  39  42
ENDBRANCH  37  39
ENDBRANCH   1  37
TORSDOF 16
