REMARK  10 active torsions:
REMARK  status: ('A' for Active; 'I' for Inactive)
REMARK    1  A    between atoms: C1_2  and  O2_3 
REMARK       I    between atoms: C1_2  and  N1_9 
REMARK    2  A    between atoms: O2_3  and  C2_4 
REMARK    3  A    between atoms: C7_10  and  N2_11 
REMARK    4  A    between atoms: N2_11  and  C8_14 
REMARK    5  A    between atoms: C8_14  and  C9_15 
REMARK    6  A    between atoms: C9_15  and  C10_16 
REMARK    7  A    between atoms: C10_16  and  O3_17 
REMARK    8  A    between atoms: O3_17  and  C11_18 
REMARK    9  A    between atoms: C14_22  and  C15_23 
REMARK   10  A    between atoms: C21_31  and  O4_32 
ROOT
HETATM    1  O1  UNL     1      -1.783  -1.187   1.427  1.00  0.00    -0.238 OA
HETATM    2  C1  UNL     1      -2.345  -0.438   0.591  1.00  0.00     0.365 C 
HETATM    3  N1  UNL     1      -1.990   0.898   0.377  1.00  0.00    -0.294 N 
HETATM    4  C7  UNL     1      -0.902   1.558   1.127  1.00  0.00     0.291 C 
HETATM    5  C19 UNL     1      -1.712   2.757   1.648  1.00  0.00     0.064 C 
HETATM    6  C20 UNL     1      -2.399   3.166   0.346  1.00  0.00     0.041 C 
HETATM    7  C21 UNL     1      -3.825   3.555   0.524  1.00  0.00     0.124 C 
HETATM    8  C22 UNL     1      -4.402   3.201  -0.855  1.00  0.00     0.034 C 
HETATM    9  C23 UNL     1      -3.861   1.779  -0.992  1.00  0.00     0.028 C 
HETATM   10  C24 UNL     1      -2.478   1.912  -0.496  1.00  0.00     0.098 C 
ENDROOT
BRANCH   4  11
HETATM   11  N2  UNL     1       0.027   2.090   0.181  1.00  0.00    -0.054 N 
ATOM     12  H22 UNL     1      -0.444   2.318  -0.695  1.00  0.00     0.279 HD
ATOM     13  H21 UNL     1       0.329   3.023   0.461  1.00  0.00     0.279 HD
BRANCH  11  14
HETATM   14  C8  UNL     1       1.172   1.236  -0.064  1.00  0.00     0.237 C 
BRANCH  14  15
HETATM   15  C9  UNL     1       2.094   1.849  -1.094  1.00  0.00     0.054 C 
BRANCH  15  16
HETATM   16  C10 UNL     1       3.283   0.972  -1.344  1.00  0.00     0.177 C 
BRANCH  16  17
HETATM   17  O3  UNL     1       4.014   0.802  -0.141  1.00  0.00    -0.348 OA
BRANCH  17  18
HETATM   18  C11 UNL     1       5.176   0.034  -0.093  1.00  0.00     0.107 A 
HETATM   19  C12 UNL     1       5.111  -1.298   0.192  1.00  0.00     0.069 A 
HETATM   20 CL1  UNL     1       3.558  -2.056   0.503  1.00  0.00    -0.081 Cl
HETATM   21  C13 UNL     1       6.261  -2.097   0.247  1.00  0.00     0.038 A 
HETATM   22  C14 UNL     1       7.492  -1.505   0.003  1.00  0.00    -0.033 A 
HETATM   23  C17 UNL     1       7.572  -0.154  -0.288  1.00  0.00     0.033 A 
HETATM   24  C18 UNL     1       6.418   0.581  -0.330  1.00  0.00     0.046 A 
HETATM   25 BR2  UNL     1       6.460   2.454  -0.728  1.00  0.00    -0.048 Br
BRANCH  22  26
HETATM   26  C15 UNL     1       8.718  -2.288   0.048  1.00  0.00     0.019 C 
HETATM   27  C16 UNL     1       8.736  -3.564   0.322  1.00  0.00     0.057 C 
HETATM   28 BR1  UNL     1      10.427  -4.462   0.345  1.00  0.00    -0.064 Br
ENDBRANCH  22  26
ENDBRANCH  17  18
ENDBRANCH  16  17
ENDBRANCH  15  16
ENDBRANCH  14  15
ENDBRANCH  11  14
ENDBRANCH   4  11
BRANCH   2  29
HETATM   29  O2  UNL     1      -3.372  -1.003  -0.146  1.00  0.00    -0.298 OA
BRANCH  29  30
HETATM   30  C2  UNL     1      -3.773  -2.321   0.016  1.00  0.00     0.133 C 
HETATM   31  C3  UNL     1      -5.242  -2.339   0.454  1.00  0.00     0.032 C 
HETATM   32  C4  UNL     1      -5.588  -3.794   0.251  1.00  0.00     0.002 C 
HETATM   33  C5  UNL     1      -4.803  -4.239  -0.953  1.00  0.00     0.002 C 
HETATM   34  C6  UNL     1      -3.788  -3.134  -1.235  1.00  0.00     0.032 C 
ENDBRANCH  29  30
ENDBRANCH   2  29
BRANCH   7  35
HETATM   35  O4  UNL     1      -4.017   4.914   0.692  1.00  0.00    -0.395 OA
ATOM     36  H4  UNL     1      -4.927   5.162   0.806  1.00  0.00     0.210 HD
ENDBRANCH   7  35
TORSDOF 10
