REMARK  1 active torsions:
REMARK  status: ('A' for Active; 'I' for Inactive)
REMARK    1  A    between atoms: C1_4  and  C2_6 
ROOT
HETATM    1  C2  UNL     1      -1.039   0.008  -0.136  1.00  0.00     0.166 A 
HETATM    2  N3  UNL     1      -0.196  -0.396  -1.104  1.00  0.00    -0.172 N 
ATOM      3  H3  UNL     1      -0.578  -0.701  -2.000  1.00  0.00     0.186 HD
HETATM    4  C3  UNL     1       1.158  -0.409  -0.919  1.00  0.00     0.694 A 
HETATM    5  N4  UNL     1       2.202  -0.754  -1.694  1.00  0.00    -0.200 N 
ATOM      6  H4  UNL     1       2.126  -1.099  -2.651  1.00  0.00     0.183 HD
HETATM    7  C4  UNL     1       3.361  -0.581  -1.032  1.00  0.00     0.124 A 
HETATM    8  C5  UNL     1       3.008  -0.105   0.212  1.00  0.00     0.137 A 
HETATM    9  N5  UNL     1       1.661  -0.005   0.267  1.00  0.00    -0.105 N 
HETATM   10  C6  UNL     1       0.796   0.396   1.226  1.00  0.00     0.346 A 
HETATM   11  O1  UNL     1       1.284   0.767   2.318  1.00  0.00    -0.246 OA
HETATM   12  N6  UNL     1      -0.538   0.410   1.046  1.00  0.00    -0.290 N 
ATOM     13  H6  UNL     1      -1.159   0.720   1.794  1.00  0.00     0.172 HD
ENDROOT
BRANCH   1  14
HETATM   14  C1  UNL     1      -2.477   0.006  -0.373  1.00  0.00     0.155 C 
HETATM   15  N1  UNL     1      -2.942  -0.380  -1.507  1.00  0.00    -0.385 N 
ATOM     16  H12 UNL     1      -3.948  -0.381  -1.673  1.00  0.00     0.157 HD
ATOM     17  H11 UNL     1      -2.278  -0.681  -2.221  1.00  0.00     0.157 HD
HETATM   18  N2  UNL     1      -3.393   0.421   0.612  1.00  0.00    -0.079 NA
ENDBRANCH   1  14
TORSDOF 1
