REMARK  10 active torsions:
REMARK  status: ('A' for Active; 'I' for Inactive)
REMARK    1  A    between atoms: O1_1  and  C1_3 
REMARK    2  A    between atoms: C4_6  and  C5_7 
REMARK    3  A    between atoms: C12_15  and  C13_16 
REMARK    4  A    between atoms: N1_17  and  C14_19 
REMARK    5  A    between atoms: C14_19  and  C15_20 
REMARK    6  A    between atoms: C15_20  and  C16_21 
REMARK    7  A    between atoms: C16_21  and  N2_22 
REMARK    8  A    between atoms: N3_32  and  C25_33 
REMARK    9  A    between atoms: C25_33  and  C26_34 
REMARK   10  A    between atoms: C26_34  and  C27_35 
ROOT
HETATM    1  C5  UNL     1       1.647  -0.107   2.036  1.00  0.00     0.008 C 
HETATM    2  C6  UNL     1       0.826  -0.601   2.965  1.00  0.00    -0.044 A 
HETATM    3  C7  UNL     1       1.228  -1.086   4.300  1.00  0.00     0.044 A 
HETATM    4  C8  UNL     1      -0.034  -1.484   4.986  1.00  0.00     0.047 A 
HETATM    5  C9  UNL     1      -1.115  -1.271   4.000  1.00  0.00    -0.005 A 
HETATM    6  C10 UNL     1      -2.485  -1.516   4.116  1.00  0.00     0.124 A 
HETATM    7  F1  UNL     1      -2.940  -2.026   5.286  1.00  0.00    -0.205 F 
HETATM    8  C11 UNL     1      -3.323  -1.245   3.076  1.00  0.00     0.058 A 
HETATM    9  C12 UNL     1      -2.840  -0.727   1.896  1.00  0.00     0.021 A 
HETATM   10  C21 UNL     1      -1.488  -0.487   1.785  1.00  0.00     0.139 A 
HETATM   11  F2  UNL     1      -1.063   0.022   0.603  1.00  0.00    -0.204 F 
HETATM   12  C22 UNL     1      -0.610  -0.752   2.824  1.00  0.00     0.019 A 
ENDROOT
BRANCH   1  13
HETATM   13  C4  UNL     1       3.075  -0.004   2.277  1.00  0.00     0.004 C 
HETATM   14  C3  UNL     1       3.894   0.473   1.386  1.00  0.00    -0.071 C 
HETATM   15  C2  UNL     1       3.573   0.974   0.038  1.00  0.00     0.088 C 
HETATM   16  C23 UNL     1       5.379   0.543   1.726  1.00  0.00     0.078 C 
HETATM   17  C1  UNL     1       4.424   0.304  -1.019  1.00  0.00     0.223 C 
HETATM   18  N3  UNL     1       5.531  -0.419  -0.551  1.00  0.00    -0.367 N 
HETATM   19  C24 UNL     1       6.204  -0.014   0.614  1.00  0.00     0.065 C 
BRANCH  17  20
HETATM   20  O1  UNL     1       3.560  -0.571  -1.716  1.00  0.00    -0.376 OA
ATOM     21  H1  UNL     1       4.094  -0.992  -2.380  1.00  0.00     0.212 HD
ENDBRANCH  17  20
BRANCH  18  22
HETATM   22  C25 UNL     1       5.807  -1.692  -1.097  1.00  0.00     0.130 C 
BRANCH  22  23
HETATM   23  C26 UNL     1       6.255  -1.589  -2.539  1.00  0.00     0.078 C 
BRANCH  23  24
HETATM   24  C27 UNL     1       7.491  -0.769  -2.594  1.00  0.00     0.027 A 
HETATM   25  C28 UNL     1       7.640   0.585  -2.749  1.00  0.00     0.114 A 
HETATM   26  N4  UNL     1       8.942   0.881  -2.737  1.00  0.00    -0.360 N 
HETATM   27  C29 UNL     1       9.604  -0.294  -2.574  1.00  0.00     0.180 A 
ATOM     28  H4  UNL     1       9.358   1.808  -2.832  1.00  0.00     0.166 HD
HETATM   29  N5  UNL     1       8.739  -1.302  -2.486  1.00  0.00    -0.355 N 
ATOM     30  H5  UNL     1       8.968  -2.288  -2.361  1.00  0.00     0.166 HD
ENDBRANCH  23  24
ENDBRANCH  22  23
ENDBRANCH  18  22
ENDBRANCH   1  13
BRANCH   9  31
HETATM   31  C13 UNL     1      -3.769  -0.449   0.810  1.00  0.00     0.097 C 
HETATM   32  N1  UNL     1      -3.376   0.042  -0.332  1.00  0.00    -0.398 N 
ATOM     33  H1  UNL     1      -2.390   0.246  -0.494  1.00  0.00     0.158 HD
BRANCH  32  34
HETATM   34  C14 UNL     1      -4.375   0.299  -1.386  1.00  0.00     0.120 C 
BRANCH  34  35
HETATM   35  C15 UNL     1      -5.078   1.557  -0.968  1.00  0.00     0.050 C 
BRANCH  35  36
HETATM   36  C16 UNL     1      -6.160   1.972  -1.925  1.00  0.00     0.274 C 
BRANCH  36  37
HETATM   37  N2  UNL     1      -7.190   0.979  -2.072  1.00  0.00     0.088 N 
HETATM   38  C17 UNL     1      -7.988   0.788  -0.904  1.00  0.00     0.272 C 
HETATM   39  C18 UNL     1      -9.096  -0.105  -1.441  1.00  0.00     0.032 C 
HETATM   40  C19 UNL     1      -9.492   0.735  -2.663  1.00  0.00     0.032 C 
HETATM   41  C20 UNL     1      -8.120   1.227  -3.121  1.00  0.00     0.272 C 
ENDBRANCH  36  37
ENDBRANCH  35  36
ENDBRANCH  34  35
ENDBRANCH  32  34
ENDBRANCH   9  31
TORSDOF 10
