REMARK  14 active torsions:
REMARK  status: ('A' for Active; 'I' for Inactive)
REMARK    1  A    between atoms: N1_1  and  N2_4 
REMARK    2  A    between atoms: N2_4  and  N3_5 
REMARK    3  A    between atoms: N3_5  and  C1_7 
REMARK    4  A    between atoms: C3_9  and  C4_10 
REMARK    5  A    between atoms: C4_10  and  O1_11 
REMARK    6  A    between atoms: C6_15  and  C7_16 
REMARK    7  A    between atoms: C7_16  and  C8_17 
REMARK    8  A    between atoms: C8_17  and  C9_18 
REMARK    9  A    between atoms: C9_18  and  C10_19 
REMARK   10  A    between atoms: C10_19  and  C11_20 
REMARK   11  A    between atoms: C11_20  and  O3_21 
REMARK   12  A    between atoms: C11_20  and  N4_23 
REMARK   13  A    between atoms: N4_23  and  C12_25 
REMARK   14  A    between atoms: C12_25  and  C13_26 
ROOT
HETATM    1  C1  UNL     1      -5.230  -0.621  -1.628  1.00  0.00     0.123 C 
HETATM    2  C2  UNL     1      -5.948  -0.467  -0.298  1.00  0.00     0.062 C 
HETATM    3  C3  UNL     1      -5.317   0.547   0.620  1.00  0.00     0.147 C 
HETATM    4  O2  UNL     1      -3.948   0.721   0.342  1.00  0.00    -0.378 OA
HETATM    5  C5  UNL     1      -3.357  -0.463  -0.004  1.00  0.00     0.132 C 
HETATM    6  C6  UNL     1      -1.889  -0.494  -0.087  1.00  0.00     0.015 C 
HETATM    7  C19 UNL     1      -1.649   0.409  -1.353  1.00  0.00     0.007 C 
HETATM    8  C20 UNL     1      -2.910   0.221  -2.177  1.00  0.00     0.010 C 
HETATM    9  C21 UNL     1      -3.769  -0.783  -1.457  1.00  0.00     0.040 C 
ENDROOT
BRANCH   6  10
HETATM   10  C7  UNL     1      -1.172   0.252   1.059  1.00  0.00     0.007 C 
BRANCH  10  11
HETATM   11  C8  UNL     1       0.281  -0.132   0.875  1.00  0.00     0.001 C 
BRANCH  11  12
HETATM   12  C9  UNL     1       1.216   0.566   1.827  1.00  0.00     0.008 C 
BRANCH  12  13
HETATM   13  C10 UNL     1       2.574   0.042   1.970  1.00  0.00     0.083 C 
BRANCH  13  14
HETATM   14  C11 UNL     1       3.348  -0.348   0.804  1.00  0.00     0.111 C 
BRANCH  14  15
HETATM   15  O3  UNL     1       3.484  -1.676   0.728  1.00  0.00    -0.350 OA
ATOM     16  H3  UNL     1       3.990  -1.931  -0.034  1.00  0.00     0.219 HD
ENDBRANCH  14  15
BRANCH  14  17
HETATM   17  N4  UNL     1       3.923   0.422  -0.179  1.00  0.00    -0.370 N 
ATOM     18  H4  UNL     1       3.679   1.405  -0.061  1.00  0.00     0.161 HD
BRANCH  17  19
HETATM   19  C12 UNL     1       4.756   0.240  -1.307  1.00  0.00     0.161 C 
BRANCH  19  20
HETATM   20  C13 UNL     1       6.129  -0.103  -0.796  1.00  0.00    -0.023 A 
HETATM   21  C14 UNL     1       6.502  -1.208  -0.133  1.00  0.00     0.012 A 
HETATM   22  C15 UNL     1       7.867  -1.358   0.233  1.00  0.00     0.024 A 
HETATM   23  C16 UNL     1       8.797  -0.406  -0.073  1.00  0.00     0.035 A 
HETATM   24 CL1  UNL     1      10.452  -0.585   0.482  1.00  0.00    -0.084 Cl
HETATM   25  C17 UNL     1       8.414   0.750  -0.768  1.00  0.00     0.043 A 
HETATM   26  C18 UNL     1       7.113   0.871  -1.109  1.00  0.00     0.020 A 
HETATM   27 BR1  UNL     1       6.533   2.465  -2.055  1.00  0.00    -0.050 Br
ENDBRANCH  19  20
ENDBRANCH  17  19
ENDBRANCH  14  17
ENDBRANCH  13  14
ENDBRANCH  12  13
ENDBRANCH  11  12
ENDBRANCH  10  11
ENDBRANCH   6  10
BRANCH   3  28
HETATM   28  C4  UNL     1      -6.133   1.778   0.658  1.00  0.00     0.196 C 
BRANCH  28  29
HETATM   29  O1  UNL     1      -5.718   2.681   1.642  1.00  0.00    -0.398 OA
ATOM     30  H1  UNL     1      -6.243   3.473   1.666  1.00  0.00     0.209 HD
ENDBRANCH  28  29
ENDBRANCH   3  28
BRANCH   1  31
HETATM   31  N3  UNL     1      -5.765  -1.879  -2.206  1.00  0.00    -0.247 N 
ATOM     32  H3  UNL     1      -6.496  -1.903  -2.917  1.00  0.00     0.197 HD
BRANCH  31  33
HETATM   33  N2  UNL     1      -5.229  -2.908  -1.734  1.00  0.00    -0.248 NA
BRANCH  33  34
HETATM   34  N1  UNL     1      -4.841  -3.866  -1.071  1.00  0.00    -0.261 N 
ATOM     35  H12 UNL     1      -5.440  -3.579  -0.297  1.00  0.00     0.193 HD
ATOM     36  H11 UNL     1      -4.405  -4.704  -0.687  1.00  0.00     0.193 HD
ENDBRANCH  33  34
ENDBRANCH  31  33
ENDBRANCH   1  31
TORSDOF 14
