REMARK  2 active torsions:
REMARK  status: ('A' for Active; 'I' for Inactive)
REMARK    1  A    between atoms: C1_4  and  N2_5 
REMARK    2  A    between atoms: N3_7  and  N4_9 
ROOT
HETATM    1  N4  UNL     1       0.394   0.346   0.143  1.00  0.00    -0.303 N 
HETATM    2  C2  UNL     1      -0.521   1.286   0.779  1.00  0.00     0.151 C 
HETATM    3  C3  UNL     1      -1.852   0.954   0.178  1.00  0.00     0.031 C 
HETATM    4  C4  UNL     1      -2.425  -0.254   0.876  1.00  0.00     0.177 C 
HETATM    5  O1  UNL     1      -1.559  -1.301   0.985  1.00  0.00    -0.354 OA
HETATM    6  C5  UNL     1      -0.887  -1.641  -0.161  1.00  0.00     0.331 C 
HETATM    7  F1  UNL     1      -1.611  -2.443  -1.014  1.00  0.00    -0.217 F 
HETATM    8  C6  UNL     1      -0.306  -0.435  -0.861  1.00  0.00     0.164 C 
HETATM    9  C7  UNL     1      -1.443   0.513  -1.234  1.00  0.00     0.040 C 
ENDROOT
BRANCH   1  10
HETATM   10  N3  UNL     1       1.758   0.173   0.413  1.00  0.00    -0.244 N 
HETATM   11  N2  UNL     1       2.557  -0.143  -0.508  1.00  0.00    -0.282 N 
ATOM     12  H2  UNL     1       2.236  -0.280  -1.466  1.00  0.00     0.189 HD
ATOM     13  H3  UNL     1       2.107   0.304   1.363  1.00  0.00     0.208 HD
BRANCH  11  14
HETATM   14  C1  UNL     1       3.927  -0.301  -0.156  1.00  0.00     0.192 C 
HETATM   15  N1  UNL     1       4.525   0.655   0.454  1.00  0.00    -0.394 N 
ATOM     16  H12 UNL     1       4.013   1.509   0.676  1.00  0.00     0.156 HD
ATOM     17  H11 UNL     1       5.507   0.542   0.706  1.00  0.00     0.156 HD
ENDBRANCH  11  14
ENDBRANCH   1  10
TORSDOF 2
