REMARK  2 active torsions:
REMARK  status: ('A' for Active; 'I' for Inactive)
REMARK    1  A    between atoms: C1_4  and  N2_6 
REMARK    2  A    between atoms: N3_8  and  N4_10 
ROOT
HETATM    1  N2  UNL     1       1.804  -1.302   0.554  1.00  0.00    -0.262 N 
ATOM      2  H2  UNL     1       2.388  -0.748  -0.072  1.00  0.00     0.191 HD
HETATM    3  N3  UNL     1       0.556  -1.065   0.594  1.00  0.00    -0.243 N 
ATOM      4  H3  UNL     1      -0.017  -1.626   1.224  1.00  0.00     0.208 HD
ENDROOT
BRANCH   3   5
HETATM    5  N4  UNL     1      -0.069  -0.100  -0.159  1.00  0.00    -0.309 N 
HETATM    6  C2  UNL     1       0.304   1.292  -0.200  1.00  0.00     0.170 C 
HETATM    7  C3  UNL     1      -0.873   2.222  -0.153  1.00  0.00     0.189 C 
HETATM    8  O1  UNL     1      -1.999   1.783  -0.764  1.00  0.00    -0.388 OA
HETATM    9  C4  UNL     1      -2.321   0.473  -0.623  1.00  0.00     0.189 C 
HETATM   10  C5  UNL     1      -1.207  -0.488  -0.995  1.00  0.00     0.170 C 
ENDBRANCH   3   5
BRANCH   1  11
HETATM   11  C1  UNL     1       2.417  -2.306   1.345  1.00  0.00     0.188 C 
HETATM   12  N1  UNL     1       3.675  -2.464   1.313  1.00  0.00    -0.375 N 
ATOM     13  H12 UNL     1       4.116  -3.186   1.882  1.00  0.00     0.158 HD
ATOM     14  H11 UNL     1       4.214  -1.848   0.704  1.00  0.00     0.158 HD
HETATM   15 CL1  UNL     1       1.487  -3.368   2.396  1.00  0.00    -0.044 Cl
ENDBRANCH   1  11
TORSDOF 2
