REMARK  7 active torsions:
REMARK  status: ('A' for Active; 'I' for Inactive)
REMARK    1  A    between atoms: C2_2  and  N1_3 
REMARK    2  A    between atoms: C2_2  and  C9_18 
REMARK       I    between atoms: N1_3  and  C3_5 
REMARK    3  A    between atoms: C3_5  and  C4_7 
REMARK    4  A    between atoms: C4_7  and  O2_8 
REMARK    5  A    between atoms: O2_8  and  C5_9 
REMARK    6  A    between atoms: C7_11  and  O3_12 
REMARK    7  A    between atoms: C8_15  and  O5_16 
ROOT
HETATM    1  C4  UNL     1       0.554  -0.037  -0.002  1.00  0.00     0.278 C 
ENDROOT
BRANCH   1   2
HETATM    2  C3  UNL     1      -0.845  -0.224  -0.454  1.00  0.00     0.242 C 
HETATM    3  N1  UNL     1      -1.908   0.164   0.407  1.00  0.00    -0.351 N 
ATOM      4  H1  UNL     1      -1.685   0.563   1.319  1.00  0.00     0.163 HD
HETATM    5  O1  UNL     1      -1.088  -0.715  -1.574  1.00  0.00    -0.271 OA
BRANCH   3   6
HETATM    6  C2  UNL     1      -3.295   0.010   0.030  1.00  0.00     0.134 C 
HETATM    7  C1  UNL     1      -4.048  -0.904   0.971  1.00  0.00     0.036 C 
BRANCH   6   8
HETATM    8  C9  UNL     1      -3.946   1.380   0.063  1.00  0.00     0.208 C 
HETATM    9 CL1  UNL     1      -3.023   2.417  -1.061  1.00  0.00    -0.082 Cl
HETATM   10 CL2  UNL     1      -3.660   2.036   1.705  1.00  0.00    -0.082 Cl
HETATM   11 CL3  UNL     1      -5.648   1.344  -0.348  1.00  0.00    -0.082 Cl
ENDBRANCH   6   8
ENDBRANCH   3   6
ENDBRANCH   1   2
BRANCH   1  12
HETATM   12  O2  UNL     1       1.490  -0.465  -0.956  1.00  0.00    -0.337 OA
BRANCH  12  13
HETATM   13  C5  UNL     1       2.843  -0.349  -0.667  1.00  0.00     0.132 A 
HETATM   14  C6  UNL     1       3.417   0.148   0.474  1.00  0.00     0.105 A 
HETATM   15  C7  UNL     1       4.773   0.072   0.327  1.00  0.00     0.188 A 
HETATM   16  O4  UNL     1       5.019  -0.446  -0.845  1.00  0.00    -0.262 OA
HETATM   17  C8  UNL     1       3.915  -0.717  -1.482  1.00  0.00     0.220 A 
BRANCH  15  18
HETATM   18  O3  UNL     1       5.733   0.474   1.259  1.00  0.00    -0.341 OA
ATOM     19  H3  UNL     1       6.676   0.421   1.157  1.00  0.00     0.220 HD
ENDBRANCH  15  18
BRANCH  17  20
HETATM   20  O5  UNL     1       3.798  -1.270  -2.741  1.00  0.00    -0.339 OA
ATOM     21  H5  UNL     1       4.528  -1.520  -3.296  1.00  0.00     0.220 HD
ENDBRANCH  17  20
ENDBRANCH  12  13
ENDBRANCH   1  12
TORSDOF 7
