REMARK  5 active torsions:
REMARK  status: ('A' for Active; 'I' for Inactive)
REMARK    1  A    between atoms: C3_3  and  C4_4 
REMARK    2  A    between atoms: C4_4  and  O1_5 
REMARK    3  A    between atoms: N1_10  and  S1_11 
REMARK    4  A    between atoms: S1_11  and  C7_13 
REMARK    5  A    between atoms: C7_13  and  C8_14 
ROOT
HETATM    1  C1  UNL     1      -7.100  -0.207  -0.333  1.00  0.00     0.112 C 
HETATM    2  C2  UNL     1      -5.678   0.125  -0.136  1.00  0.00    -0.108 C 
HETATM    3  C3  UNL     1      -4.512   0.410   0.027  1.00  0.00    -0.068 C 
ENDROOT
BRANCH   3   4
HETATM    4  C4  UNL     1      -3.104   0.768   0.210  1.00  0.00     0.131 C 
HETATM    5  C5  UNL     1      -2.548   1.139  -1.144  1.00  0.00     0.155 C 
HETATM    6  C6  UNL     1      -1.071   0.999  -1.195  1.00  0.00     0.236 C 
HETATM    7  O2  UNL     1      -0.509   1.387  -2.260  1.00  0.00    -0.272 OA
HETATM    8  N1  UNL     1      -0.307   0.463  -0.127  1.00  0.00    -0.258 N 
HETATM    9  C13 UNL     1      -0.929  -0.229   0.986  1.00  0.00     0.045 C 
HETATM   10  C14 UNL     1      -0.334  -1.634   1.153  1.00  0.00     0.039 C 
HETATM   11  C15 UNL     1      -0.636   0.494   2.302  1.00  0.00     0.039 C 
HETATM   12  C16 UNL     1      -2.400  -0.398   0.816  1.00  0.00     0.083 C 
BRANCH   4  13
HETATM   13  O1  UNL     1      -3.090   1.877   1.072  1.00  0.00    -0.377 OA
ATOM     14  H1  UNL     1      -2.177   2.109   1.191  1.00  0.00     0.211 HD
ENDBRANCH   4  13
BRANCH   8  15
HETATM   15  S1  UNL     1       1.396   0.655  -0.180  1.00  0.00     0.120 S 
HETATM   16  O3  UNL     1       1.783   1.398  -1.419  1.00  0.00    -0.235 OA
BRANCH  15  17
HETATM   17  C7  UNL     1       2.170  -0.704  -0.543  1.00  0.00     0.141 C 
BRANCH  17  18
HETATM   18  C8  UNL     1       3.597  -0.851  -0.566  1.00  0.00    -0.028 A 
HETATM   19  C9  UNL     1       3.933  -2.300  -0.079  1.00  0.00     0.016 C 
HETATM   20  C10 UNL     1       4.453  -0.498  -1.727  1.00  0.00     0.015 A 
HETATM   21  C11 UNL     1       4.662   0.082  -0.309  1.00  0.00    -0.009 A 
HETATM   22  C12 UNL     1       4.679   1.545  -0.247  1.00  0.00     0.011 C 
ENDBRANCH  17  18
ENDBRANCH  15  17
ENDBRANCH   8  15
ENDBRANCH   3   4
TORSDOF 5
