REMARK  11 active torsions:
REMARK  status: ('A' for Active; 'I' for Inactive)
REMARK    1  A    between atoms: C2_2  and  O2_4 
REMARK    2  A    between atoms: O2_4  and  C3_5 
REMARK    3  A    between atoms: C3_5  and  C4_6 
REMARK    4  A    between atoms: C4_6  and  C7_9 
REMARK    5  A    between atoms: C7_9  and  C8_10 
REMARK    6  A    between atoms: C8_10  and  C9_11 
REMARK    7  A    between atoms: C10_12  and  C11_13 
REMARK    8  A    between atoms: C11_13  and  C12_14 
REMARK    9  A    between atoms: C12_14  and  C13_15 
REMARK   10  A    between atoms: C21_24  and  O4_26 
REMARK   11  A    between atoms: C23_28  and  O5_29 
ROOT
HETATM    1  C13 UNL     1      -2.953  -0.156   0.869  1.00  0.00    -0.043 C 
HETATM    2  C14 UNL     1      -3.973  -0.983   0.081  1.00  0.00     0.033 C 
HETATM    3  C15 UNL     1      -3.346  -1.291  -1.260  1.00  0.00     0.088 C 
HETATM    4  C16 UNL     1      -3.890  -0.256  -2.210  1.00  0.00     0.135 C 
HETATM    5  O3  UNL     1      -3.828  -0.290  -3.408  1.00  0.00    -0.297 OA
HETATM    6  C17 UNL     1      -4.505   0.785  -1.295  1.00  0.00     0.100 C 
HETATM    7  C18 UNL     1      -5.158  -0.152  -0.321  1.00  0.00    -0.027 C 
HETATM    8  C19 UNL     1      -5.964   0.431   0.751  1.00  0.00     0.016 C 
HETATM    9  C20 UNL     1      -6.069  -1.046  -1.163  1.00  0.00     0.016 C 
HETATM   10  C21 UNL     1      -3.449   1.663  -0.770  1.00  0.00     0.095 C 
HETATM   11  C22 UNL     1      -2.732   2.302  -1.959  1.00  0.00     0.050 C 
HETATM   12  C23 UNL     1      -2.435   0.991   0.157  1.00  0.00     0.182 C 
ENDROOT
BRANCH   1  13
HETATM   13  C12 UNL     1      -2.160  -1.074   1.694  1.00  0.00     0.006 C 
BRANCH  13  14
HETATM   14  C11 UNL     1      -1.070  -0.688   2.566  1.00  0.00     0.000 C 
BRANCH  14  15
HETATM   15  C10 UNL     1       0.240  -0.264   2.107  1.00  0.00    -0.004 C 
HETATM   16  C9  UNL     1       0.802  -0.188   0.952  1.00  0.00    -0.027 C 
BRANCH  16  17
HETATM   17  C8  UNL     1       2.217   0.313   0.818  1.00  0.00     0.028 C 
BRANCH  17  18
HETATM   18  C7  UNL     1       3.101  -0.706   0.213  1.00  0.00     0.014 C 
BRANCH  18  19
HETATM   19  C4  UNL     1       4.573  -0.276   0.098  1.00  0.00    -0.025 C 
HETATM   20  C5  UNL     1       4.753   1.019  -0.593  1.00  0.00     0.017 C 
HETATM   21  C6  UNL     1       5.008  -0.145   1.579  1.00  0.00     0.017 C 
BRANCH  19  22
HETATM   22  C3  UNL     1       5.352  -1.393  -0.518  1.00  0.00     0.187 C 
BRANCH  22  23
HETATM   23  O2  UNL     1       6.674  -1.294  -0.570  1.00  0.00    -0.321 OA
BRANCH  23  24
HETATM   24  C2  UNL     1       7.581  -0.619  -1.264  1.00  0.00     0.254 C 
HETATM   25  C1  UNL     1       9.059  -0.778  -0.981  1.00  0.00     0.126 C 
HETATM   26  O1  UNL     1       7.240   0.165  -2.168  1.00  0.00    -0.266 OA
ENDBRANCH  23  24
ENDBRANCH  22  23
ENDBRANCH  19  22
ENDBRANCH  18  19
ENDBRANCH  17  18
ENDBRANCH  16  17
ENDBRANCH  14  15
ENDBRANCH  13  14
ENDBRANCH   1  13
BRANCH  12  27
HETATM   27  O5  UNL     1      -1.925   2.015   0.994  1.00  0.00    -0.388 OA
ATOM     28  H5  UNL     1      -1.585   2.769   0.526  1.00  0.00     0.210 HD
ENDBRANCH  12  27
BRANCH  10  29
HETATM   29  O4  UNL     1      -4.030   2.711  -0.063  1.00  0.00    -0.386 OA
ATOM     30  H4  UNL     1      -3.348   3.278   0.276  1.00  0.00     0.210 HD
ENDBRANCH  10  29
TORSDOF 11
