REMARK  13 active torsions:
REMARK  status: ('A' for Active; 'I' for Inactive)
REMARK    1  A    between atoms: C4_4  and  C5_5 
REMARK    2  A    between atoms: C5_5  and  N1_6 
REMARK    3  A    between atoms: N2_9  and  C8_10 
REMARK    4  A    between atoms: C8_10  and  C9_11 
REMARK    5  A    between atoms: C9_11  and  C10_12 
REMARK    6  A    between atoms: C10_12  and  N3_13 
REMARK    7  A    between atoms: N3_13  and  C11_15 
REMARK    8  A    between atoms: C11_15  and  N4_17 
REMARK    9  A    between atoms: N4_17  and  C12_19 
REMARK   10  A    between atoms: C12_19  and  C13_20 
REMARK   11  A    between atoms: C13_20  and  C14_21 
REMARK   12  A    between atoms: C14_21  and  O1_22 
REMARK   13  A    between atoms: C15_24  and  C16_25 
ROOT
HETATM    1  N1  UNL     1      -3.285  -1.044   0.105  1.00  0.00    -0.406 N 
HETATM    2  C6  UNL     1      -2.478  -1.815  -0.768  1.00  0.00     0.137 C 
HETATM    3  C7  UNL     1      -1.218  -1.166  -1.244  1.00  0.00     0.141 C 
HETATM    4  N2  UNL     1      -0.906  -0.092  -0.328  1.00  0.00    -0.385 N 
HETATM    5  C15 UNL     1      -1.146  -0.424   1.004  1.00  0.00     0.105 C 
HETATM    6  C19 UNL     1      -2.676  -0.395   1.196  1.00  0.00     0.142 C 
ENDROOT
BRANCH   4   7
HETATM    7  C8  UNL     1       0.083   0.782  -0.754  1.00  0.00     0.060 C 
BRANCH   7   8
HETATM    8  C9  UNL     1       1.471   0.250  -0.859  1.00  0.00     0.064 C 
BRANCH   8   9
HETATM    9  C10 UNL     1       2.400   1.334  -1.422  1.00  0.00     0.127 C 
BRANCH   9  10
HETATM   10  N3  UNL     1       3.748   0.820  -1.503  1.00  0.00    -0.367 N 
ATOM     11  H3  UNL     1       3.972  -0.082  -1.082  1.00  0.00     0.161 HD
BRANCH  10  12
HETATM   12  C11 UNL     1       4.749   1.551  -2.155  1.00  0.00     0.167 C 
HETATM   13  S1  UNL     1       4.339   2.982  -2.866  1.00  0.00    -0.041 SA
BRANCH  12  14
HETATM   14  N4  UNL     1       6.090   1.128  -2.249  1.00  0.00    -0.367 N 
ATOM     15  H4  UNL     1       6.732   1.717  -2.779  1.00  0.00     0.161 HD
BRANCH  14  16
HETATM   16  C12 UNL     1       6.630  -0.079  -1.652  1.00  0.00     0.124 C 
BRANCH  16  17
HETATM   17  C13 UNL     1       6.717   0.109  -0.148  1.00  0.00     0.046 C 
BRANCH  17  18
HETATM   18  C14 UNL     1       7.270  -1.122   0.539  1.00  0.00     0.165 C 
BRANCH  18  19
HETATM   19  O1  UNL     1       8.541  -1.420   0.084  1.00  0.00    -0.401 OA
ATOM     20  H1  UNL     1       8.888  -2.192   0.515  1.00  0.00     0.209 HD
ENDBRANCH  18  19
ENDBRANCH  17  18
ENDBRANCH  16  17
ENDBRANCH  14  16
ENDBRANCH  12  14
ENDBRANCH  10  12
ENDBRANCH   9  10
ENDBRANCH   8   9
ENDBRANCH   7   8
ENDBRANCH   4   7
BRANCH   5  21
HETATM   21  C16 UNL     1      -0.487   0.438   2.039  1.00  0.00     0.010 A 
HETATM   22  C17 UNL     1      -0.650   0.117   3.497  1.00  0.00     0.007 A 
HETATM   23  C18 UNL     1      -1.278   1.340   2.905  1.00  0.00     0.007 A 
ENDBRANCH   5  21
BRANCH   1  24
HETATM   24  C5  UNL     1      -4.290  -0.255  -0.579  1.00  0.00     0.144 C 
BRANCH  24  25
HETATM   25  C4  UNL     1      -5.163   0.488   0.331  1.00  0.00    -0.006 C 
HETATM   26  C2  UNL     1      -6.479   0.285   0.346  1.00  0.00    -0.090 C 
HETATM   27  C1  UNL     1      -7.393   1.022   1.262  1.00  0.00     0.042 C 
HETATM   28  C3  UNL     1      -7.120  -0.712  -0.586  1.00  0.00     0.042 C 
ENDBRANCH  24  25
ENDBRANCH   1  24
TORSDOF 13
