REMARK  10 active torsions:
REMARK  status: ('A' for Active; 'I' for Inactive)
REMARK    1  A    between atoms: C2_2  and  C4_4 
REMARK    2  A    between atoms: C4_4  and  N1_5 
REMARK    3  A    between atoms: N1_5  and  C5_6 
REMARK       I    between atoms: N1_5  and  C7_8 
REMARK    4  A    between atoms: C7_8  and  C8_10 
REMARK       I    between atoms: C8_10  and  N2_12 
REMARK    5  A    between atoms: N2_12  and  C9_14 
REMARK    6  A    between atoms: C9_14  and  C10_15 
REMARK    7  A    between atoms: C9_14  and  C17_22 
REMARK    8  A    between atoms: C10_15  and  C11_16 
REMARK    9  A    between atoms: C17_22  and  C18_24 
REMARK   10  A    between atoms: C18_24  and  C19_25 
ROOT
HETATM    1  C9  UNL     1      -0.905   0.234  -0.308  1.00  0.00     0.178 C 
ENDROOT
BRANCH   1   2
HETATM    2  N2  UNL     1       0.469  -0.179  -0.742  1.00  0.00    -0.338 N 
HETATM    3  C8  UNL     1       1.440  -0.625   0.181  1.00  0.00     0.310 C 
HETATM    4  O2  UNL     1       1.115  -0.663   1.382  1.00  0.00    -0.262 OA
ATOM      5  H2  UNL     1       0.709  -0.137  -1.732  1.00  0.00     0.164 HD
BRANCH   3   6
HETATM    6  C7  UNL     1       2.764  -1.026  -0.229  1.00  0.00     0.311 C 
HETATM    7  N1  UNL     1       3.783  -1.493   0.630  1.00  0.00    -0.341 N 
HETATM    8  O1  UNL     1       3.059  -0.959  -1.477  1.00  0.00    -0.262 OA
BRANCH   7   9
HETATM    9  C4  UNL     1       5.084  -1.832   0.056  1.00  0.00     0.159 C 
BRANCH   9  10
HETATM   10  C2  UNL     1       5.964  -0.655   0.077  1.00  0.00    -0.075 C 
HETATM   11  C1  UNL     1       7.098  -0.705   0.746  1.00  0.00     0.015 C 
HETATM   12  C3  UNL     1       5.635   0.619  -0.637  1.00  0.00     0.044 C 
ENDBRANCH   9  10
ENDBRANCH   7   9
BRANCH   7  13
HETATM   13  C5  UNL     1       3.638  -1.678   2.055  1.00  0.00     0.122 C 
HETATM   14  C6  UNL     1       3.978  -0.436   2.847  1.00  0.00     0.026 C 
ENDBRANCH   7  13
ENDBRANCH   3   6
ENDBRANCH   1   2
BRANCH   1  15
HETATM   15  C10 UNL     1      -1.785  -0.729  -0.959  1.00  0.00     0.008 C 
BRANCH  15  16
HETATM   16  C11 UNL     1      -3.234  -0.767  -0.852  1.00  0.00    -0.081 C 
HETATM   17  C12 UNL     1      -3.833  -0.880   0.532  1.00  0.00     0.034 C 
HETATM   18  C13 UNL     1      -5.354  -0.720   0.376  1.00  0.00     0.004 C 
HETATM   19  C14 UNL     1      -5.776  -1.525  -0.831  1.00  0.00     0.001 C 
HETATM   20  C15 UNL     1      -5.331  -0.840  -2.106  1.00  0.00     0.004 C 
HETATM   21  C16 UNL     1      -4.069   0.015  -1.818  1.00  0.00     0.034 C 
ENDBRANCH  15  16
ENDBRANCH   1  15
BRANCH   1  22
HETATM   22  C17 UNL     1      -1.025   1.685  -0.506  1.00  0.00     0.161 C 
HETATM   23  O3  UNL     1      -0.107   2.278  -1.149  1.00  0.00    -0.295 OA
BRANCH  22  24
HETATM   24  C18 UNL     1      -2.091   2.584  -0.035  1.00  0.00     0.180 C 
BRANCH  24  25
HETATM   25  C19 UNL     1      -1.588   3.975   0.074  1.00  0.00     0.238 C 
HETATM   26  N3  UNL     1      -2.467   5.016   0.478  1.00  0.00    -0.062 NA
HETATM   27  O4  UNL     1      -0.414   4.264  -0.178  1.00  0.00    -0.276 OA
ENDBRANCH  24  25
ENDBRANCH  22  24
ENDBRANCH   1  22
TORSDOF 10
