REMARK  5 active torsions:
REMARK  status: ('A' for Active; 'I' for Inactive)
REMARK    1  A    between atoms: C2_2  and  S1_3 
REMARK    2  A    between atoms: S1_3  and  C3_4 
REMARK    3  A    between atoms: C4_6  and  C5_7 
REMARK    4  A    between atoms: C6_10  and  N2_11 
REMARK    5  A    between atoms: N2_11  and  C7_13 
ROOT
HETATM    1  C3  UNL     1       1.782  -0.312  -1.144  1.00  0.00     0.083 A 
HETATM    2  S2  UNL     1       1.493   1.365  -1.233  1.00  0.00    -0.073 SA
HETATM    3  C4  UNL     1       0.131   1.461  -0.173  1.00  0.00     0.100 A 
HETATM    4  C6  UNL     1      -0.042   0.165   0.206  1.00  0.00     0.092 A 
HETATM    5  C11 UNL     1       0.807  -0.748  -0.292  1.00  0.00     0.167 A 
HETATM    6  F1  UNL     1       0.756  -2.098   0.017  1.00  0.00    -0.202 F 
ENDROOT
BRANCH   4   7
HETATM    7  N2  UNL     1      -1.157  -0.181   1.085  1.00  0.00    -0.378 N 
ATOM      8  H2  UNL     1      -1.043  -0.011   2.084  1.00  0.00     0.160 HD
BRANCH   7   9
HETATM    9  C7  UNL     1      -2.383  -0.735   0.650  1.00  0.00     0.019 C 
HETATM   10  C8  UNL     1      -3.089   0.011  -0.461  1.00  0.00     0.037 C 
HETATM   11  C9  UNL     1      -3.364  -0.643   1.840  1.00  0.00     0.037 C 
HETATM   12  C10 UNL     1      -2.353  -2.207   0.301  1.00  0.00     0.037 C 
ENDBRANCH   7   9
ENDBRANCH   4   7
BRANCH   3  13
HETATM   13  C5  UNL     1      -0.522   2.714   0.174  1.00  0.00     0.274 C 
HETATM   14  N1  UNL     1      -0.134   3.952  -0.426  1.00  0.00    -0.057 NA
HETATM   15  O1  UNL     1      -1.447   2.752   1.009  1.00  0.00    -0.270 OA
ENDBRANCH   3  13
BRANCH   1  16
HETATM   16  S1  UNL     1       3.063  -1.280  -1.978  1.00  0.00    -0.120 SA
BRANCH  16  17
HETATM   17  C2  UNL     1       4.554  -1.346  -0.947  1.00  0.00     0.075 C 
HETATM   18  C1  UNL     1       5.192   0.011  -0.804  1.00  0.00     0.016 C 
ENDBRANCH  16  17
ENDBRANCH   1  16
TORSDOF 5
