REMARK  3 active torsions:
REMARK  status: ('A' for Active; 'I' for Inactive)
REMARK    1  A    between atoms: C3_3  and  O1_4 
REMARK    2  A    between atoms: C6_8  and  O2_10 
REMARK    3  A    between atoms: C8_12  and  O3_13 
ROOT
HETATM    1  C1  UNL     1      -2.098   1.459   0.218  1.00  0.00     0.015 C 
HETATM    2  C2  UNL     1      -1.092   0.486  -0.373  1.00  0.00     0.042 C 
HETATM    3  C3  UNL     1      -1.301  -0.838   0.310  1.00  0.00     0.124 C 
HETATM    4  C4  UNL     1      -0.247  -1.848   0.013  1.00  0.00     0.035 C 
HETATM    5  C5  UNL     1       0.946  -1.303  -0.707  1.00  0.00     0.042 C 
HETATM    6  C6  UNL     1       1.380   0.050  -0.246  1.00  0.00     0.080 C 
HETATM    7  C7  UNL     1       2.145   0.004   1.069  1.00  0.00     0.048 C 
HETATM    8  C8  UNL     1       0.278   1.041  -0.099  1.00  0.00     0.158 C 
ENDROOT
BRANCH   6   9
HETATM    9  O2  UNL     1       2.293   0.538  -1.208  1.00  0.00    -0.388 OA
ATOM     10  H2  UNL     1       2.569   1.398  -0.915  1.00  0.00     0.210 HD
ENDBRANCH   6   9
BRANCH   8  11
HETATM   11  O3  UNL     1       0.440   2.151  -0.950  1.00  0.00    -0.392 OA
ATOM     12  H3  UNL     1       1.306   2.502  -0.777  1.00  0.00     0.210 HD
ENDBRANCH   8  11
BRANCH   3  13
HETATM   13  O1  UNL     1      -2.581  -1.304  -0.034  1.00  0.00    -0.395 OA
ATOM     14  H1  UNL     1      -2.713  -2.140   0.397  1.00  0.00     0.210 HD
ENDBRANCH   3  13
TORSDOF 3
