REMARK  12 active torsions:
REMARK  status: ('A' for Active; 'I' for Inactive)
REMARK       I    between atoms: C2_2  and  N1_4 
REMARK    1  A    between atoms: N1_4  and  C3_6 
REMARK    2  A    between atoms: C4_7  and  C5_8 
REMARK    3  A    between atoms: C9_22  and  C10_23 
REMARK    4  A    between atoms: C10_23  and  O3_24 
REMARK    5  A    between atoms: O3_24  and  C11_25 
REMARK    6  A    between atoms: C11_25  and  C12_27 
REMARK    7  A    between atoms: C12_27  and  S1_28 
REMARK    8  A    between atoms: S1_28  and  C13_29 
REMARK    9  A    between atoms: C14_34  and  C15_35 
REMARK   10  A    between atoms: C15_35  and  N9_37 
REMARK   11  A    between atoms: C15_35  and  N10_41 
REMARK   12  A    between atoms: N10_41  and  O5_42 
ROOT
HETATM    1  C5  UNL     1      -4.991  -0.368  -0.636  1.00  0.00     0.150 A 
HETATM    2  N2  UNL     1      -5.802   0.638  -0.933  1.00  0.00    -0.281 N 
ATOM      3  H2  UNL     1      -5.401   1.567  -1.064  1.00  0.00     0.188 HD
HETATM    4  N3  UNL     1      -7.111   0.487  -1.066  1.00  0.00    -0.262 N 
ATOM      5  H3  UNL     1      -7.683   1.300  -1.296  1.00  0.00     0.190 HD
HETATM    6  C6  UNL     1      -7.707  -0.707  -0.907  1.00  0.00     0.297 A 
HETATM    7  O2  UNL     1      -8.963  -0.876  -1.028  1.00  0.00    -0.263 OA
HETATM    8  C7  UNL     1      -6.897  -1.791  -0.595  1.00  0.00     0.185 A 
HETATM    9  C8  UNL     1      -7.492  -3.109  -0.409  1.00  0.00     0.123 C 
HETATM   10  N4  UNL     1      -7.961  -4.159  -0.251  1.00  0.00    -0.190 NA
HETATM   11  N5  UNL     1      -5.584  -1.593  -0.471  1.00  0.00    -0.326 N 
ATOM     12  H5  UNL     1      -4.992  -2.392  -0.242  1.00  0.00     0.168 HD
ENDROOT
BRANCH   1  13
HETATM   13  C4  UNL     1      -3.557  -0.222  -0.448  1.00  0.00     0.110 A 
HETATM   14  C3  UNL     1      -2.952   0.986  -0.528  1.00  0.00     0.116 A 
HETATM   15  C18 UNL     1      -1.564   1.111  -0.318  1.00  0.00     0.203 A 
HETATM   16  C17 UNL     1      -0.801  -0.026  -0.020  1.00  0.00     0.088 A 
HETATM   17  O6  UNL     1      -1.003   2.219  -0.391  1.00  0.00    -0.286 OA
HETATM   18  C9  UNL     1      -1.434  -1.220   0.055  1.00  0.00     0.059 A 
HETATM   19  N6  UNL     1      -2.798  -1.292  -0.161  1.00  0.00    -0.350 N 
ATOM     20  H6  UNL     1      -3.251  -2.204  -0.099  1.00  0.00     0.166 HD
BRANCH  14  21
HETATM   21  N1  UNL     1      -3.674   2.196  -0.791  1.00  0.00    -0.322 N 
HETATM   22  C2  UNL     1      -4.121   2.969   0.324  1.00  0.00     0.218 C 
HETATM   23  C1  UNL     1      -4.862   4.217   0.045  1.00  0.00     0.117 C 
HETATM   24  O1  UNL     1      -3.895   2.605   1.493  1.00  0.00    -0.274 OA
ATOM     25  H1  UNL     1      -3.863   2.497  -1.747  1.00  0.00     0.169 HD
ENDBRANCH  14  21
BRANCH  18  26
HETATM   26  C10 UNL     1      -0.793  -2.501   0.372  1.00  0.00     0.175 C 
BRANCH  26  27
HETATM   27  O3  UNL     1       0.338  -2.629   1.042  1.00  0.00    -0.288 OA
BRANCH  27  28
HETATM   28  C11 UNL     1       1.650  -2.344   0.861  1.00  0.00     0.273 C 
HETATM   29  O4  UNL     1       2.075  -1.827  -0.175  1.00  0.00    -0.264 OA
BRANCH  28  30
HETATM   30  C12 UNL     1       2.574  -2.692   1.985  1.00  0.00     0.193 C 
BRANCH  30  31
HETATM   31  S1  UNL     1       3.052  -1.297   2.998  1.00  0.00    -0.083 SA
BRANCH  31  32
HETATM   32  C13 UNL     1       4.243  -0.280   2.159  1.00  0.00     0.161 A 
HETATM   33  N7  UNL     1       4.711   0.936   2.586  1.00  0.00    -0.278 N 
HETATM   34  N8  UNL     1       5.583   1.427   1.733  1.00  0.00    -0.284 N 
ATOM     35  H7  UNL     1       4.422   1.397   3.449  1.00  0.00     0.189 HD
HETATM   36  C14 UNL     1       5.720   0.565   0.728  1.00  0.00     0.153 A 
ATOM     37  H8  UNL     1       6.072   2.318   1.826  1.00  0.00     0.188 HD
HETATM   38  N11 UNL     1       4.894  -0.470   1.002  1.00  0.00    -0.321 N 
ATOM     39  H11 UNL     1       4.781  -1.290   0.406  1.00  0.00     0.169 HD
BRANCH  36  40
HETATM   40  C15 UNL     1       6.597   0.624  -0.497  1.00  0.00     0.273 C 
HETATM   41  C16 UNL     1       7.421  -0.659  -0.441  1.00  0.00     0.077 C 
BRANCH  40  42
HETATM   42  N9  UNL     1       7.452   1.785  -0.436  1.00  0.00    -0.047 N 
ATOM     43  H93 UNL     1       6.920   2.645  -0.305  1.00  0.00     0.277 HD
ATOM     44  H92 UNL     1       7.997   1.814   0.426  1.00  0.00     0.277 HD
ATOM     45  H91 UNL     1       8.045   1.825  -1.265  1.00  0.00     0.277 HD
ENDBRANCH  40  42
BRANCH  40  46
HETATM   46  N10 UNL     1       5.788   0.703  -1.691  1.00  0.00    -0.056 NA
BRANCH  46  47
HETATM   47  O5  UNL     1       5.059   1.839  -1.638  1.00  0.00    -0.293 OA
ATOM     48  H5  UNL     1       4.527   1.891  -2.423  1.00  0.00     0.238 HD
ENDBRANCH  46  47
ENDBRANCH  40  46
ENDBRANCH  36  40
ENDBRANCH  31  32
ENDBRANCH  30  31
ENDBRANCH  28  30
ENDBRANCH  27  28
ENDBRANCH  26  27
ENDBRANCH  18  26
ENDBRANCH   1  13
TORSDOF 12
