REMARK  9 active torsions:
REMARK  status: ('A' for Active; 'I' for Inactive)
REMARK    1  A    between atoms: N1_2  and  C2_3 
REMARK    2  A    between atoms: N1_2  and  C4_7 
REMARK    3  A    between atoms: C2_3  and  C3_4 
REMARK    4  A    between atoms: C3_4  and  O1_5 
REMARK    5  A    between atoms: C4_7  and  C5_8 
REMARK    6  A    between atoms: C5_8  and  C6_9 
REMARK    7  A    between atoms: C9_12  and  C10_13 
REMARK    8  A    between atoms: C10_13  and  N2_14 
REMARK    9  A    between atoms: C13_17  and  N3_18 
ROOT
HETATM    1  C6  UNL     1       0.555   0.048   0.122  1.00  0.00    -0.053 A 
HETATM    2  C7  UNL     1      -0.062  -1.087  -0.348  1.00  0.00     0.008 A 
HETATM    3  C8  UNL     1      -1.366  -1.438   0.023  1.00  0.00     0.009 A 
HETATM    4  C9  UNL     1      -2.054  -0.616   0.890  1.00  0.00    -0.040 A 
HETATM    5  C15 UNL     1      -1.435   0.542   1.375  1.00  0.00     0.009 A 
HETATM    6  C16 UNL     1      -0.151   0.864   0.994  1.00  0.00     0.008 A 
ENDROOT
BRANCH   4   7
HETATM    7  C10 UNL     1      -3.427  -0.847   1.371  1.00  0.00     0.167 C 
BRANCH   7   8
HETATM    8  N2  UNL     1      -4.455  -0.261   0.568  1.00  0.00    -0.349 N 
HETATM    9  C11 UNL     1      -5.020  -0.926  -0.450  1.00  0.00     0.096 A 
HETATM   10  C12 UNL     1      -6.008  -0.382  -1.238  1.00  0.00     0.065 A 
HETATM   11  C13 UNL     1      -6.434   0.898  -0.969  1.00  0.00     0.100 A 
HETATM   12  N4  UNL     1      -5.860   1.564   0.060  1.00  0.00    -0.339 N 
HETATM   13  C14 UNL     1      -4.900   0.991   0.800  1.00  0.00     0.184 A 
ATOM     14  H4  UNL     1      -6.162   2.514   0.275  1.00  0.00     0.168 HD
BRANCH  11  15
HETATM   15  N3  UNL     1      -7.368   1.433  -1.695  1.00  0.00    -0.385 N 
ATOM     16  H32 UNL     1      -7.801   0.931  -2.470  1.00  0.00     0.157 HD
ATOM     17  H31 UNL     1      -7.684   2.382  -1.496  1.00  0.00     0.157 HD
ENDBRANCH  11  15
ENDBRANCH   7   8
ENDBRANCH   4   7
BRANCH   1  18
HETATM   18  C5  UNL     1       1.911   0.403  -0.274  1.00  0.00     0.082 C 
BRANCH  18  19
HETATM   19  C4  UNL     1       2.984  -0.167   0.612  1.00  0.00     0.062 C 
BRANCH  19  20
HETATM   20  N1  UNL     1       4.313   0.159   0.279  1.00  0.00    -0.395 N 
HETATM   21  C1  UNL     1       4.773   1.476   0.424  1.00  0.00     0.148 C 
BRANCH  20  22
HETATM   22  C2  UNL     1       4.950  -0.672  -0.682  1.00  0.00     0.147 C 
BRANCH  22  23
HETATM   23  C3  UNL     1       6.366  -1.011  -0.290  1.00  0.00     0.183 C 
BRANCH  23  24
HETATM   24  O1  UNL     1       6.897  -1.822  -1.290  1.00  0.00    -0.399 OA
ATOM     25  H1  UNL     1       7.789  -2.036  -1.043  1.00  0.00     0.209 HD
ENDBRANCH  23  24
ENDBRANCH  22  23
ENDBRANCH  20  22
ENDBRANCH  19  20
ENDBRANCH  18  19
ENDBRANCH   1  18
TORSDOF 9
