REMARK  0 active torsions:
REMARK  status: ('A' for Active; 'I' for Inactive)
ROOT
HETATM    1  C1  UNL     1      -1.637  -1.426   1.072  1.00  0.00     0.015 C 
HETATM    2  C2  UNL     1      -1.004  -0.483   0.044  1.00  0.00    -0.040 C 
HETATM    3  C3  UNL     1      -1.164  -1.188  -1.291  1.00  0.00     0.015 C 
HETATM    4  C4  UNL     1      -1.688   0.841   0.040  1.00  0.00     0.046 C 
HETATM    5  C5  UNL     1      -0.949   1.995   0.554  1.00  0.00     0.171 C 
HETATM    6  F1  UNL     1      -1.277   2.275   1.891  1.00  0.00    -0.249 F 
HETATM    7  C6  UNL     1       0.532   1.961   0.476  1.00  0.00     0.044 C 
HETATM    8  C7  UNL     1       1.006   0.812  -0.349  1.00  0.00     0.020 C 
HETATM    9  C8  UNL     1       2.466   0.514  -0.232  1.00  0.00     0.237 C 
HETATM   10  N1  UNL     1       2.619  -0.927  -0.217  1.00  0.00    -0.074 N 
ATOM     11  H11 UNL     1       3.182  -1.262   0.565  1.00  0.00     0.277 HD
ATOM     12  H12 UNL     1       3.218  -1.274  -0.966  1.00  0.00     0.277 HD
HETATM   13  C9  UNL     1       1.283  -1.496  -0.244  1.00  0.00     0.238 C 
HETATM   14  C10 UNL     1       0.451  -0.430   0.370  1.00  0.00     0.025 C 
ENDROOT
TORSDOF 0
