REMARK  12 active torsions:
REMARK  status: ('A' for Active; 'I' for Inactive)
REMARK    1  A    between atoms: C2_2  and  C3_3 
REMARK    2  A    between atoms: C2_2  and  C4_6 
REMARK    3  A    between atoms: C3_3  and  O1_4 
REMARK    4  A    between atoms: C15_17  and  O2_18 
REMARK    5  A    between atoms: C18_22  and  C19_23 
REMARK    6  A    between atoms: C19_23  and  C20_25 
REMARK    7  A    between atoms: C20_25  and  O4_26 
REMARK    8  A    between atoms: C20_25  and  C21_28 
REMARK    9  A    between atoms: C21_28  and  O5_29 
REMARK   10  A    between atoms: C21_28  and  C22_31 
REMARK   11  A    between atoms: C22_31  and  C24_33 
REMARK   12  A    between atoms: C24_33  and  O6_35 
ROOT
HETATM    1  C24 UNL     1       7.276   0.036   1.021  1.00  0.00     0.148 C 
HETATM    2  C25 UNL     1       6.672   1.142   1.876  1.00  0.00     0.063 C 
HETATM    3  C26 UNL     1       8.658   0.438   0.746  1.00  0.00     0.097 C 
HETATM    4  N1  UNL     1       9.743   0.757   0.510  1.00  0.00    -0.194 NA
ENDROOT
BRANCH   1   5
HETATM    5  C22 UNL     1       6.495  -0.125  -0.270  1.00  0.00     0.062 C 
HETATM    6  C23 UNL     1       7.202  -1.147  -1.118  1.00  0.00     0.017 C 
BRANCH   5   7
HETATM    7  C21 UNL     1       5.054  -0.480   0.006  1.00  0.00     0.162 C 
BRANCH   7   8
HETATM    8  C20 UNL     1       4.224  -0.598  -1.251  1.00  0.00     0.217 C 
BRANCH   8   9
HETATM    9  C19 UNL     1       2.791  -0.861  -1.016  1.00  0.00     0.162 C 
HETATM   10  O3  UNL     1       2.409  -2.013  -1.277  1.00  0.00    -0.295 OA
BRANCH   9  11
HETATM   11  C18 UNL     1       1.892   0.116  -0.531  1.00  0.00     0.069 C 
HETATM   12  C16 UNL     1       0.432  -0.366  -0.346  1.00  0.00    -0.004 C 
HETATM   13  C15 UNL     1      -0.182  -0.831  -1.610  1.00  0.00     0.128 C 
HETATM   14  C17 UNL     1       0.357  -1.332   0.794  1.00  0.00     0.019 C 
HETATM   15  C29 UNL     1      -0.116   0.991  -0.009  1.00  0.00     0.001 C 
HETATM   16  C14 UNL     1      -1.690  -0.732  -1.503  1.00  0.00     0.038 C 
HETATM   17  C13 UNL     1      -2.182   0.648  -1.227  1.00  0.00     0.001 C 
HETATM   18  C7  UNL     1      -3.650   0.689  -1.185  1.00  0.00    -0.036 C 
HETATM   19  C12 UNL     1      -1.567   1.179   0.070  1.00  0.00    -0.005 C 
HETATM   20  C6  UNL     1      -4.294   1.952  -0.756  1.00  0.00     0.010 C 
HETATM   21  C8  UNL     1      -4.193   0.290  -2.544  1.00  0.00     0.016 C 
HETATM   22  C9  UNL     1      -4.144  -0.300  -0.140  1.00  0.00     0.002 C 
HETATM   23  C5  UNL     1      -5.400   1.595   0.256  1.00  0.00     0.010 C 
HETATM   24  C4  UNL     1      -5.590   0.133  -0.111  1.00  0.00     0.020 C 
HETATM   25  C10 UNL     1      -3.421  -0.185   1.154  1.00  0.00     0.006 C 
HETATM   26  C11 UNL     1      -2.301   0.771   1.275  1.00  0.00     0.006 C 
HETATM   27  C28 UNL     1       0.714   1.384   1.147  1.00  0.00     0.007 C 
HETATM   28  C27 UNL     1       2.095   0.825   0.749  1.00  0.00     0.013 C 
BRANCH  13  29
HETATM   29  O2  UNL     1       0.210   0.022  -2.646  1.00  0.00    -0.395 OA
ATOM     30  H2  UNL     1       1.156  -0.040  -2.713  1.00  0.00     0.210 HD
ENDBRANCH  13  29
BRANCH  24  31
HETATM   31  C2  UNL     1      -6.504  -0.622   0.699  1.00  0.00    -0.061 C 
HETATM   32  C1  UNL     1      -6.177  -1.682   1.395  1.00  0.00     0.017 C 
BRANCH  31  33
HETATM   33  C3  UNL     1      -7.928  -0.153   0.757  1.00  0.00     0.198 C 
BRANCH  33  34
HETATM   34  O1  UNL     1      -8.690  -0.975   1.586  1.00  0.00    -0.397 OA
ATOM     35  H1  UNL     1      -9.592  -0.678   1.623  1.00  0.00     0.209 HD
ENDBRANCH  33  34
ENDBRANCH  31  33
ENDBRANCH  24  31
ENDBRANCH   9  11
ENDBRANCH   8   9
BRANCH   8  36
HETATM   36  O4  UNL     1       4.825  -1.649  -1.975  1.00  0.00    -0.385 OA
ATOM     37  H4  UNL     1       5.747  -1.480  -2.126  1.00  0.00     0.210 HD
ENDBRANCH   8  36
ENDBRANCH   7   8
BRANCH   7  38
HETATM   38  O5  UNL     1       5.051  -1.669   0.737  1.00  0.00    -0.392 OA
ATOM     39  H5  UNL     1       5.573  -1.595   1.527  1.00  0.00     0.210 HD
ENDBRANCH   7  38
ENDBRANCH   5   7
ENDBRANCH   1   5
BRANCH   1  40
HETATM   40  O6  UNL     1       7.308  -1.111   1.781  1.00  0.00    -0.375 OA
ATOM     41  H6  UNL     1       7.797  -1.010   2.589  1.00  0.00     0.211 HD
ENDBRANCH   1  40
TORSDOF 12
