REMARK  9 active torsions:
REMARK  status: ('A' for Active; 'I' for Inactive)
REMARK    1  A    between atoms: C2_2  and  C4_4 
REMARK    2  A    between atoms: C4_4  and  C5_5 
REMARK    3  A    between atoms: C5_5  and  C6_6 
REMARK    4  A    between atoms: C21_25  and  C22_26 
REMARK    5  A    between atoms: C22_26  and  C23_27 
REMARK    6  A    between atoms: C23_27  and  C24_28 
REMARK    7  A    between atoms: C24_28  and  N1_29 
REMARK    8  A    between atoms: C26_34  and  O4_36 
REMARK    9  A    between atoms: C28_38  and  O5_39 
ROOT
HETATM    1  C5  UNL     1      -2.083  -1.524  -0.366  1.00  0.00     0.104 C 
HETATM    2  C7  UNL     1      -2.712  -0.134  -0.089  1.00  0.00    -0.036 A 
HETATM    3  C8  UNL     1      -2.369   0.607   1.021  1.00  0.00     0.011 A 
HETATM    4  C9  UNL     1      -2.908   1.896   1.252  1.00  0.00     0.037 A 
HETATM    5  C10 UNL     1      -3.790   2.495   0.411  1.00  0.00     0.068 A 
HETATM    6  C11 UNL     1      -4.142   1.764  -0.690  1.00  0.00     0.037 A 
HETATM    7  C12 UNL     1      -3.616   0.468  -0.944  1.00  0.00     0.011 A 
HETATM    8  O3  UNL     1      -4.294   3.795   0.668  1.00  0.00    -0.351 OA
HETATM    9  C13 UNL     1      -3.607   4.957   0.130  1.00  0.00     0.175 C 
HETATM   10  C14 UNL     1      -2.293   5.058   0.862  1.00  0.00     0.027 C 
HETATM   11  C15 UNL     1      -1.121   4.589  -0.010  1.00  0.00     0.002 C 
HETATM   12  C16 UNL     1       0.129   4.429   0.729  1.00  0.00     0.002 C 
HETATM   13  C17 UNL     1       0.735   3.084   0.920  1.00  0.00     0.021 C 
HETATM   14  C18 UNL     1       0.861   2.350  -0.360  1.00  0.00     0.090 C 
HETATM   15 CL1  UNL     1       1.475   3.613  -1.516  1.00  0.00    -0.124 Cl
HETATM   16  C19 UNL     1       1.858   1.218  -0.438  1.00  0.00     0.032 C 
HETATM   17  C20 UNL     1       2.981   1.707   0.503  1.00  0.00     0.016 C 
HETATM   18  C21 UNL     1       1.376  -0.131  -0.034  1.00  0.00    -0.042 C 
HETATM   19  C26 UNL     1       0.399  -0.850  -0.956  1.00  0.00     0.105 C 
HETATM   20  C27 UNL     1       0.035  -0.107  -2.175  1.00  0.00     0.053 C 
HETATM   21  C28 UNL     1      -0.592  -1.587  -0.178  1.00  0.00     0.180 C 
ENDROOT
BRANCH  18  22
HETATM   22  C22 UNL     1       2.426  -1.015   0.547  1.00  0.00    -0.019 C 
BRANCH  22  23
HETATM   23  C23 UNL     1       3.620  -1.416  -0.208  1.00  0.00     0.047 C 
BRANCH  23  24
HETATM   24  C24 UNL     1       4.495  -2.275   0.763  1.00  0.00     0.126 C 
BRANCH  24  25
HETATM   25  N1  UNL     1       5.674  -2.670   0.017  1.00  0.00    -0.367 N 
HETATM   26  C25 UNL     1       6.649  -1.892  -0.236  1.00  0.00     0.196 C 
HETATM   27  N2  UNL     1       7.752  -2.386  -0.976  1.00  0.00    -0.067 NA
HETATM   28  N3  UNL     1       6.663  -0.549   0.200  1.00  0.00    -0.067 NA
ATOM     29  H1  UNL     1       5.725  -3.629  -0.326  1.00  0.00     0.161 HD
ENDBRANCH  24  25
ENDBRANCH  23  24
ENDBRANCH  22  23
ENDBRANCH  18  22
BRANCH  19  30
HETATM   30  O4  UNL     1       1.292  -1.830  -1.551  1.00  0.00    -0.383 OA
ATOM     31  H4  UNL     1       0.683  -2.278  -2.126  1.00  0.00     0.211 HD
ENDBRANCH  19  30
BRANCH  21  32
HETATM   32  O5  UNL     1      -0.385  -1.485   1.226  1.00  0.00    -0.391 OA
ATOM     33  H5  UNL     1       0.557  -1.525   1.345  1.00  0.00     0.210 HD
ENDBRANCH  21  32
BRANCH   1  34
HETATM   34  C4  UNL     1      -2.788  -2.370   0.664  1.00  0.00     0.032 C 
BRANCH  34  35
HETATM   35  C2  UNL     1      -2.595  -3.746   0.939  1.00  0.00    -0.021 C 
HETATM   36  C1  UNL     1      -3.548  -4.091   2.154  1.00  0.00     0.009 C 
HETATM   37  C3  UNL     1      -3.175  -4.687  -0.114  1.00  0.00     0.009 C 
ENDBRANCH  34  35
ENDBRANCH   1  34
BRANCH   1  38
HETATM   38  C6  UNL     1      -2.411  -2.168  -1.621  1.00  0.00     0.189 C 
HETATM   39  O1  UNL     1      -1.595  -2.639  -2.419  1.00  0.00    -0.647 OA
HETATM   40  O2  UNL     1      -3.737  -2.336  -2.098  1.00  0.00    -0.647 OA
ENDBRANCH   1  38
TORSDOF 9
