REMARK  3 active torsions:
REMARK  status: ('A' for Active; 'I' for Inactive)
REMARK    1  A    between atoms: C3_5  and  N2_6 
REMARK       I    between atoms: N2_6  and  C4_8 
REMARK    2  A    between atoms: C18_28  and  C19_29 
REMARK    3  A    between atoms: C25_35  and  O4_36 
ROOT
HETATM    1  C1  UNL     1       1.736  -2.187   3.587  1.00  0.00     0.161 C 
HETATM    2  N1  UNL     1       1.178  -1.655   2.296  1.00  0.00    -0.303 N 
HETATM    3  C2  UNL     1       2.138  -1.664   1.248  1.00  0.00     0.248 C 
HETATM    4  O1  UNL     1       2.972  -2.653   1.253  1.00  0.00    -0.271 OA
HETATM    5  C3  UNL     1       2.351  -0.723   0.139  1.00  0.00     0.178 C 
HETATM    6  C5  UNL     1       3.717  -0.087   0.341  1.00  0.00     0.035 C 
HETATM    7  C6  UNL     1       3.621   1.245   1.040  1.00  0.00     0.002 C 
HETATM    8  C7  UNL     1       2.663   2.167   0.316  1.00  0.00     0.000 C 
HETATM    9  C8  UNL     1       3.173   3.574   0.296  1.00  0.00     0.000 C 
HETATM   10  C9  UNL     1       2.116   4.384  -0.471  1.00  0.00     0.002 C 
HETATM   11  C10 UNL     1       0.764   4.252   0.192  1.00  0.00     0.030 C 
HETATM   12  C11 UNL     1      -0.173   3.343  -0.594  1.00  0.00     0.273 C 
HETATM   13  N4  UNL     1      -1.247   2.853   0.248  1.00  0.00     0.102 N 
HETATM   14  C12 UNL     1      -2.321   3.765   0.172  1.00  0.00     0.273 C 
HETATM   15  C13 UNL     1      -3.544   3.340  -0.549  1.00  0.00     0.030 C 
HETATM   16  C14 UNL     1      -3.119   2.497  -1.725  1.00  0.00     0.004 C 
HETATM   17  C15 UNL     1      -2.451   1.273  -1.200  1.00  0.00     0.046 C 
HETATM   18  C16 UNL     1      -1.528   1.490  -0.038  1.00  0.00     0.314 C 
HETATM   19  C17 UNL     1      -2.123   0.840   1.154  1.00  0.00     0.252 C 
HETATM   20  O3  UNL     1      -2.534   1.698   2.029  1.00  0.00    -0.271 OA
HETATM   21  N5  UNL     1      -2.301  -0.495   1.459  1.00  0.00    -0.347 N 
ATOM     22  H5  UNL     1      -3.270  -0.751   1.651  1.00  0.00     0.163 HD
HETATM   23  C18 UNL     1      -1.363  -1.607   1.558  1.00  0.00     0.163 C 
HETATM   24  C25 UNL     1      -0.146  -1.235   2.279  1.00  0.00     0.143 C 
ENDROOT
BRANCH  23  25
HETATM   25  C19 UNL     1      -1.216  -2.317   0.249  1.00  0.00     0.016 C 
HETATM   26  C20 UNL     1      -0.420  -3.600   0.337  1.00  0.00     0.007 C 
HETATM   27  C21 UNL     1      -1.329  -4.839   0.165  1.00  0.00     0.000 C 
HETATM   28  C22 UNL     1      -1.930  -4.904  -1.211  1.00  0.00     0.000 C 
HETATM   29  C23 UNL     1      -2.299  -3.493  -1.599  1.00  0.00     0.000 C 
HETATM   30  C24 UNL     1      -2.577  -2.726  -0.315  1.00  0.00     0.007 C 
ENDBRANCH  23  25
BRANCH  24  31
HETATM   31  O4  UNL     1      -0.361  -0.259   3.126  1.00  0.00    -0.348 OA
ATOM     32  H4  UNL     1      -1.266   0.028   3.114  1.00  0.00     0.219 HD
ENDBRANCH  24  31
BRANCH   5  33
HETATM   33  N2  UNL     1       2.493  -1.530  -1.076  1.00  0.00    -0.332 N 
HETATM   34  C4  UNL     1       1.796  -1.276  -2.276  1.00  0.00     0.329 C 
HETATM   35  N3  UNL     1       1.984  -2.101  -3.409  1.00  0.00    -0.040 NA
HETATM   36  O2  UNL     1       1.001  -0.311  -2.344  1.00  0.00    -0.251 OA
ATOM     37  H2  UNL     1       3.134  -2.323  -1.053  1.00  0.00     0.164 HD
ENDBRANCH   5  33
TORSDOF 3
