REMARK  6 active torsions:
REMARK  status: ('A' for Active; 'I' for Inactive)
REMARK    1  A    between atoms: O1_1  and  C1_3 
REMARK    2  A    between atoms: C2_4  and  C3_5 
REMARK    3  A    between atoms: C4_8  and  O3_9 
REMARK    4  A    between atoms: C5_11  and  O4_12 
REMARK    5  A    between atoms: C5_11  and  C6_14 
REMARK    6  A    between atoms: C7_16  and  O5_17 
ROOT
HETATM    1  C1  UNL     1      -0.458   1.451   0.237  1.00  0.00     0.179 C 
HETATM    2  C2  UNL     1      -1.523   0.383   0.105  1.00  0.00     0.166 C 
HETATM    3  O2  UNL     1      -1.129  -0.459  -0.911  1.00  0.00    -0.350 OA
HETATM    4  C4  UNL     1      -0.185  -1.347  -0.367  1.00  0.00     0.295 C 
HETATM    5  C5  UNL     1       0.968  -0.618   0.257  1.00  0.00     0.144 C 
HETATM    6  C7  UNL     1       0.905   0.867   0.069  1.00  0.00     0.189 C 
ENDROOT
BRANCH   5   7
HETATM    7  O4  UNL     1       1.019  -0.925   1.624  1.00  0.00    -0.381 OA
ATOM      8  H4  UNL     1       1.749  -0.463   2.019  1.00  0.00     0.211 HD
ENDBRANCH   5   7
BRANCH   5   9
HETATM    9  C6  UNL     1       2.292  -1.123  -0.325  1.00  0.00     0.131 C 
HETATM   10  S2  UNL     1       3.704  -0.285   0.388  1.00  0.00    -0.094 SA
ENDBRANCH   5   9
BRANCH   4  11
HETATM   11  O3  UNL     1       0.232  -2.241  -1.359  1.00  0.00    -0.368 OA
ATOM     12  H3  UNL     1       0.870  -2.841  -0.991  1.00  0.00     0.212 HD
ENDBRANCH   4  11
BRANCH   6  13
HETATM   13  O5  UNL     1       1.754   1.439   1.028  1.00  0.00    -0.390 OA
ATOM     14  H5  UNL     1       2.622   1.067   0.921  1.00  0.00     0.210 HD
ENDBRANCH   6  13
BRANCH   1  15
HETATM   15  O1  UNL     1      -0.740   2.402  -0.771  1.00  0.00    -0.390 OA
ATOM     16  H1  UNL     1      -0.072   3.072  -0.688  1.00  0.00     0.210 HD
ENDBRANCH   1  15
BRANCH   2  17
HETATM   17  C3  UNL     1      -2.889   0.987  -0.138  1.00  0.00     0.120 C 
HETATM   18  S1  UNL     1      -4.064  -0.388  -0.277  1.00  0.00    -0.095 SA
ENDBRANCH   2  17
TORSDOF 6
