REMARK  4 active torsions:
REMARK  status: ('A' for Active; 'I' for Inactive)
REMARK    1  A    between atoms: N1_2  and  C2_4 
REMARK    2  A    between atoms: C2_4  and  C3_10 
REMARK    3  A    between atoms: N2_5  and  N3_7 
REMARK       I    between atoms: C3_10  and  N4_12 
REMARK       I    between atoms: C4_14  and  N6_16 
REMARK    4  A    between atoms: N6_16  and  N7_18 
ROOT
HETATM    1  C3  UNL     1      -0.529  -0.179   0.372  1.00  0.00     0.293 C 
HETATM    2  O1  UNL     1      -0.434  -1.337   0.858  1.00  0.00    -0.264 OA
HETATM    3  N4  UNL     1       0.623   0.570   0.061  1.00  0.00    -0.293 N 
ATOM      4  H4  UNL     1       0.554   1.587   0.092  1.00  0.00     0.172 HD
HETATM    5  C4  UNL     1       1.754   0.054  -0.259  1.00  0.00     0.209 C 
HETATM    6  N5  UNL     1       1.937  -1.337  -0.327  1.00  0.00    -0.062 NA
HETATM    7  N6  UNL     1       2.834   0.920  -0.549  1.00  0.00    -0.280 N 
ATOM      8  H6  UNL     1       2.751   1.638  -1.269  1.00  0.00     0.189 HD
ENDROOT
BRANCH   1   9
HETATM    9  C2  UNL     1      -1.883   0.369   0.140  1.00  0.00     0.184 C 
HETATM   10  N2  UNL     1      -2.043   1.549  -0.355  1.00  0.00    -0.288 N 
ATOM     11  H2  UNL     1      -3.000   1.875  -0.494  1.00  0.00     0.188 HD
BRANCH   9  12
HETATM   12  N1  UNL     1      -3.033  -0.395   0.457  1.00  0.00    -0.375 N 
HETATM   13  C1  UNL     1      -3.199  -1.718  -0.065  1.00  0.00     0.148 C 
ATOM     14  H1  UNL     1      -3.751   0.002   1.064  1.00  0.00     0.160 HD
ENDBRANCH   9  12
BRANCH  10  15
HETATM   15  N3  UNL     1      -1.015   2.411  -0.713  1.00  0.00    -0.343 N 
ATOM     16  H32 UNL     1      -0.065   2.069  -0.567  1.00  0.00     0.176 HD
ATOM     17  H31 UNL     1      -1.142   3.344  -1.105  1.00  0.00     0.176 HD
ENDBRANCH  10  15
ENDBRANCH   1   9
BRANCH   7  18
HETATM   18  N7  UNL     1       4.011   0.767   0.172  1.00  0.00    -0.343 N 
ATOM     19  H72 UNL     1       4.079   0.044   0.889  1.00  0.00     0.176 HD
ATOM     20  H71 UNL     1       4.790   1.392  -0.037  1.00  0.00     0.176 HD
ENDBRANCH   7  18
TORSDOF 4
