REMARK  7 active torsions:
REMARK  status: ('A' for Active; 'I' for Inactive)
REMARK    1  A    between atoms: C3_5  and  N2_6 
REMARK    2  A    between atoms: N2_6  and  C4_8 
REMARK    3  A    between atoms: N6_20  and  C8_22 
REMARK    4  A    between atoms: C8_22  and  C9_23 
REMARK    5  A    between atoms: C9_23  and  C10_24 
REMARK    6  A    between atoms: C10_24  and  N7_25 
REMARK    7  A    between atoms: N7_25  and  N8_26 
ROOT
HETATM    1  C1  UNL     1      -1.664  -3.924   1.043  1.00  0.00     0.088 C 
HETATM    2  C2  UNL     1      -1.068  -2.598   0.655  1.00  0.00     0.070 C 
HETATM    3  N1  UNL     1      -1.717  -1.760  -0.063  1.00  0.00    -0.354 N 
ATOM      4  H1  UNL     1      -2.655  -2.028  -0.361  1.00  0.00     0.163 HD
HETATM    5  C3  UNL     1      -1.230  -0.463  -0.487  1.00  0.00     0.248 C 
HETATM    6  C7  UNL     1       0.219  -0.368  -0.163  1.00  0.00     0.043 C 
HETATM    7  N6  UNL     1       1.000   0.173  -0.995  1.00  0.00    -0.392 N 
ATOM      8  H6  UNL     1       0.651   0.542  -1.880  1.00  0.00     0.159 HD
HETATM    9  C11 UNL     1       0.648  -0.932   1.154  1.00  0.00     0.177 C 
HETATM   10  N9  UNL     1       0.246  -2.324   1.122  1.00  0.00    -0.375 N 
ATOM     11  H9  UNL     1       0.875  -3.070   1.420  1.00  0.00     0.161 HD
ENDROOT
BRANCH   5  12
HETATM   12  N2  UNL     1      -1.929   0.576   0.219  1.00  0.00    -0.199 N 
ATOM     13  H2  UNL     1      -1.411   1.071   0.945  1.00  0.00     0.180 HD
BRANCH  12  14
HETATM   14  C4  UNL     1      -3.128   0.934   0.023  1.00  0.00     0.688 A 
HETATM   15  N3  UNL     1      -3.635   1.933   0.777  1.00  0.00    -0.141 N 
HETATM   16  C5  UNL     1      -4.906   2.341   0.597  1.00  0.00     0.342 A 
ATOM     17  H3  UNL     1      -3.053   2.380   1.485  1.00  0.00     0.189 HD
HETATM   18  O1  UNL     1      -5.443   3.263   1.262  1.00  0.00    -0.246 OA
HETATM   19  N4  UNL     1      -5.664   1.743  -0.340  1.00  0.00    -0.260 N 
HETATM   20  C6  UNL     1      -5.166   0.739  -1.102  1.00  0.00     0.342 A 
ATOM     21  H4  UNL     1      -6.627   2.050  -0.479  1.00  0.00     0.175 HD
HETATM   22  O2  UNL     1      -5.878   0.191  -1.970  1.00  0.00    -0.246 OA
HETATM   23  N5  UNL     1      -3.891   0.340  -0.913  1.00  0.00    -0.141 N 
ATOM     24  H5  UNL     1      -3.504  -0.414  -1.481  1.00  0.00     0.189 HD
ENDBRANCH  12  14
ENDBRANCH   5  12
BRANCH   7  25
HETATM   25  C8  UNL     1       2.396   0.253  -0.658  1.00  0.00     0.120 C 
BRANCH  25  26
HETATM   26  C9  UNL     1       3.202   0.879  -1.753  1.00  0.00     0.037 C 
BRANCH  26  27
HETATM   27  C10 UNL     1       4.648   0.913  -1.326  1.00  0.00     0.136 C 
BRANCH  27  28
HETATM   28  N7  UNL     1       4.836   1.686  -0.114  1.00  0.00    -0.148 NA
BRANCH  28  29
HETATM   29  N8  UNL     1       6.217   1.704   0.233  1.00  0.00    -0.348 N 
ATOM     30  H82 UNL     1       6.951   1.238  -0.301  1.00  0.00     0.172 HD
ATOM     31  H81 UNL     1       6.349   2.248   1.086  1.00  0.00     0.172 HD
ENDBRANCH  28  29
ENDBRANCH  27  28
ENDBRANCH  26  27
ENDBRANCH  25  26
ENDBRANCH   7  25
TORSDOF 7
