REMARK  6 active torsions:
REMARK  status: ('A' for Active; 'I' for Inactive)
REMARK    1  A    between atoms: O1_1  and  C1_3 
REMARK    2  A    between atoms: C2_5  and  C3_6 
REMARK    3  A    between atoms: C3_6  and  C4_7 
REMARK    4  A    between atoms: C5_9  and  C6_10 
REMARK    5  A    between atoms: C10_15  and  O4_16 
REMARK    6  A    between atoms: C11_18  and  O5_19 
ROOT
HETATM    1  C1  UNL     1      -2.751   0.151  -1.463  1.00  0.00     0.211 C 
HETATM    2  S1  UNL     1      -0.977   0.593  -1.248  1.00  0.00    -0.127 SA
HETATM    3  C2  UNL     1      -0.942   0.642   0.590  1.00  0.00     0.083 C 
HETATM    4  C10 UNL     1      -2.187  -0.142   0.889  1.00  0.00     0.164 C 
HETATM    5  C11 UNL     1      -3.253   0.428  -0.044  1.00  0.00     0.186 C 
ENDROOT
BRANCH   3   6
HETATM    6  C3  UNL     1       0.295   0.032   1.149  1.00  0.00     0.053 C 
BRANCH   6   7
HETATM    7  C4  UNL     1       0.478  -1.397   0.781  1.00  0.00     0.159 A 
HETATM    8  O2  UNL     1       0.560  -1.654  -0.592  1.00  0.00    -0.368 OA
HETATM    9  C5  UNL     1       1.762  -1.799   0.041  1.00  0.00     0.208 A 
BRANCH   9  10
HETATM   10  C6  UNL     1       2.787  -0.726   0.024  1.00  0.00     0.084 A 
HETATM   11  C7  UNL     1       3.231   0.051  -1.031  1.00  0.00     0.037 A 
HETATM   12  C8  UNL     1       4.209   0.921  -0.538  1.00  0.00     0.027 A 
HETATM   13  C9  UNL     1       4.296   0.611   0.802  1.00  0.00     0.142 A 
HETATM   14  O3  UNL     1       3.454  -0.352   1.091  1.00  0.00    -0.324 OA
ENDBRANCH   9  10
ENDBRANCH   6   7
ENDBRANCH   3   6
BRANCH   4  15
HETATM   15  O4  UNL     1      -2.054  -1.481   0.620  1.00  0.00    -0.392 OA
ATOM     16  H4  UNL     1      -2.842  -1.977   0.809  1.00  0.00     0.210 HD
ENDBRANCH   4  15
BRANCH   1  17
HETATM   17  O1  UNL     1      -3.356   0.987  -2.366  1.00  0.00    -0.383 OA
ATOM     18  H1  UNL     1      -4.272   0.759  -2.477  1.00  0.00     0.211 HD
ENDBRANCH   1  17
BRANCH   5  19
HETATM   19  O5  UNL     1      -3.355   1.789   0.099  1.00  0.00    -0.390 OA
ATOM     20  H5  UNL     1      -3.667   1.961   0.980  1.00  0.00     0.210 HD
ENDBRANCH   5  19
TORSDOF 6
