REMARK  6 active torsions:
REMARK  status: ('A' for Active; 'I' for Inactive)
REMARK    1  A    between atoms: O1_1  and  C1_3 
REMARK    2  A    between atoms: C1_3  and  C2_4 
REMARK    3  A    between atoms: C2_4  and  O2_5 
REMARK    4  A    between atoms: C3_8  and  C4_9 
REMARK    5  A    between atoms: C8_14  and  O4_15 
REMARK    6  A    between atoms: C9_18  and  O6_19 
ROOT
HETATM    1  C2  UNL     1      -1.493  -0.572   0.603  1.00  0.00     0.235 C 
HETATM    2  O3  UNL     1      -0.130  -0.709   0.586  1.00  0.00    -0.334 OA
HETATM    3  C3  UNL     1       0.519   0.073  -0.335  1.00  0.00     0.214 C 
HETATM    4  C8  UNL     1       0.120   1.520  -0.293  1.00  0.00     0.293 C 
HETATM    5  O5  UNL     1      -0.959   1.716   0.568  1.00  0.00    -0.323 OA
HETATM    6  C9  UNL     1      -1.944   0.809   0.201  1.00  0.00     0.325 C 
ENDROOT
BRANCH   1   7
HETATM    7  C1  UNL     1      -2.187  -1.643  -0.243  1.00  0.00     0.237 C 
BRANCH   7   8
HETATM    8  O1  UNL     1      -1.855  -1.543  -1.573  1.00  0.00    -0.395 OA
ATOM      9  H1  UNL     1      -2.286  -2.208  -2.098  1.00  0.00     0.209 HD
ENDBRANCH   7   8
ENDBRANCH   1   7
BRANCH   1  10
HETATM   10  O2  UNL     1      -1.926  -0.803   1.921  1.00  0.00    -0.360 OA
ATOM     11  H2  UNL     1      -1.495  -0.138   2.446  1.00  0.00     0.213 HD
ENDBRANCH   1  10
BRANCH   6  12
HETATM   12  O6  UNL     1      -3.186   1.137   0.702  1.00  0.00    -0.366 OA
ATOM     13  H6  UNL     1      -3.470   2.007   0.449  1.00  0.00     0.212 HD
ENDBRANCH   6  12
BRANCH   3  14
HETATM   14  C4  UNL     1       2.008  -0.078  -0.070  1.00  0.00    -0.018 A 
HETATM   15  C5  UNL     1       2.918  -0.272  -1.039  1.00  0.00     0.017 A 
HETATM   16  C6  UNL     1       4.229  -0.389  -0.666  1.00  0.00     0.050 A 
HETATM   17  S1  UNL     1       4.157  -0.225   1.030  1.00  0.00    -0.113 SA
HETATM   18  C7  UNL     1       2.477  -0.014   1.215  1.00  0.00     0.059 A 
ENDBRANCH   3  14
BRANCH   4  19
HETATM   19  O4  UNL     1       1.154   2.349   0.136  1.00  0.00    -0.368 OA
ATOM     20  H4  UNL     1       0.902   3.264   0.163  1.00  0.00     0.212 HD
ENDBRANCH   4  19
TORSDOF 6
