REMARK  2 active torsions:
REMARK  status: ('A' for Active; 'I' for Inactive)
REMARK    1  A    between atoms: O1_2  and  N1_3 
REMARK    2  A    between atoms: C2_5  and  C3_6 
ROOT
HETATM    1  C3  UNL     1      -0.089   0.544  -0.216  1.00  0.00     0.026 C 
HETATM    2  C4  UNL     1      -1.249   1.462   0.116  1.00  0.00     0.248 C 
HETATM    3  N2  UNL     1      -2.168   1.498  -1.011  1.00  0.00    -0.074 N 
ATOM      4  H21 UNL     1      -1.852   2.160  -1.720  1.00  0.00     0.277 HD
ATOM      5  H22 UNL     1      -3.049   1.942  -0.751  1.00  0.00     0.277 HD
HETATM    6  C5  UNL     1      -2.394   0.202  -1.582  1.00  0.00     0.237 C 
HETATM    7  C6  UNL     1      -1.088  -0.567  -1.655  1.00  0.00     0.022 C 
HETATM    8  C7  UNL     1       0.010   0.506  -1.750  1.00  0.00     0.024 C 
HETATM    9  C8  UNL     1      -0.550  -0.854  -0.285  1.00  0.00    -0.021 A 
HETATM   10  C9  UNL     1       0.084  -2.068   0.068  1.00  0.00     0.012 A 
HETATM   11  C10 UNL     1      -1.229  -1.591   0.746  1.00  0.00     0.012 A 
ENDROOT
BRANCH   1  12
HETATM   12  C2  UNL     1       1.175   0.834   0.461  1.00  0.00     0.099 C 
HETATM   13  N1  UNL     1       1.369   0.571   1.685  1.00  0.00    -0.281 N 
ATOM     14  H1  UNL     1       0.591   0.141   2.186  1.00  0.00     0.193 HD
BRANCH  13  15
HETATM   15  O1  UNL     1       2.490   0.797   2.398  1.00  0.00    -0.286 OA
HETATM   16  C1  UNL     1       3.750   0.224   2.141  1.00  0.00     0.237 C 
ENDBRANCH  13  15
ENDBRANCH   1  12
TORSDOF 2
