REMARK  4 active torsions:
REMARK  status: ('A' for Active; 'I' for Inactive)
REMARK    1  A    between atoms: N1_4  and  N2_5 
REMARK    2  A    between atoms: N5_12  and  C4_13 
REMARK    3  A    between atoms: C4_13  and  C5_14 
REMARK    4  A    between atoms: N6_15  and  N7_17 
ROOT
HETATM    1  C1  UNL     1      -0.027   1.516  -0.631  1.00  0.00     0.040 C 
HETATM    2  C2  UNL     1      -0.411   0.687   0.605  1.00  0.00     0.147 C 
HETATM    3  C3  UNL     1      -1.873   0.811   0.905  1.00  0.00     0.137 C 
HETATM    4  N1  UNL     1      -2.682  -0.261   0.499  1.00  0.00    -0.201 N 
HETATM    5  N3  UNL     1      -2.146  -1.459   0.250  1.00  0.00    -0.208 N 
ATOM      6  H3  UNL     1      -2.744  -2.227  -0.057  1.00  0.00     0.212 HD
HETATM    7  N4  UNL     1      -0.822  -1.662   0.401  1.00  0.00    -0.224 N 
ATOM      8  H4  UNL     1      -0.467  -2.613   0.502  1.00  0.00     0.210 HD
HETATM    9  N5  UNL     1       0.040  -0.625   0.421  1.00  0.00    -0.277 N 
ENDROOT
BRANCH   9  10
HETATM   10  C4  UNL     1       1.256  -0.863  -0.237  1.00  0.00     0.131 C 
BRANCH  10  11
HETATM   11  C5  UNL     1       2.471  -0.447   0.466  1.00  0.00     0.125 C 
HETATM   12  N6  UNL     1       3.539  -0.248  -0.231  1.00  0.00    -0.317 N 
ATOM     13  H6  UNL     1       3.472  -0.393  -1.238  1.00  0.00     0.185 HD
BRANCH  12  14
HETATM   14  N7  UNL     1       4.765   0.145   0.271  1.00  0.00    -0.345 N 
ATOM     15  H72 UNL     1       4.813   0.285   1.280  1.00  0.00     0.176 HD
ATOM     16  H71 UNL     1       5.609   0.302  -0.280  1.00  0.00     0.176 HD
ENDBRANCH  12  14
ENDBRANCH  10  11
ENDBRANCH   9  10
BRANCH   4  17
HETATM   17  N2  UNL     1      -3.949  -0.013   0.078  1.00  0.00    -0.324 N 
ATOM     18  H22 UNL     1      -4.358   0.902   0.268  1.00  0.00     0.179 HD
ATOM     19  H21 UNL     1      -4.537  -0.792  -0.217  1.00  0.00     0.179 HD
ENDBRANCH   4  17
TORSDOF 4
