REMARK  5 active torsions:
REMARK  status: ('A' for Active; 'I' for Inactive)
REMARK    1  A    between atoms: C2_2  and  O1_5 
REMARK    2  A    between atoms: O1_5  and  C5_6 
REMARK    3  A    between atoms: C5_6  and  N1_8 
REMARK    4  A    between atoms: N1_8  and  N2_10 
REMARK    5  A    between atoms: C11_17  and  O2_18 
ROOT
HETATM    1  N2  UNL     1       0.767   1.017  -0.096  1.00  0.00    -0.302 N 
ATOM      2  H2  UNL     1       0.634   2.024  -0.189  1.00  0.00     0.186 HD
HETATM    3  C6  UNL     1       1.949   0.658   0.161  1.00  0.00     0.052 C 
HETATM    4  C7  UNL     1       3.000   1.675   0.301  1.00  0.00     0.058 C 
HETATM    5  C8  UNL     1       4.115   1.313  -0.670  1.00  0.00     0.006 C 
HETATM    6  C9  UNL     1       4.528  -0.112  -0.380  1.00  0.00     0.005 C 
HETATM    7  C10 UNL     1       3.401  -1.051  -0.695  1.00  0.00     0.060 C 
HETATM    8  C11 UNL     1       2.285  -0.759   0.323  1.00  0.00     0.186 C 
HETATM    9  C12 UNL     1       2.794  -0.995   1.673  1.00  0.00     0.104 C 
HETATM   10  N3  UNL     1       3.176  -1.173   2.738  1.00  0.00    -0.194 NA
ENDROOT
BRANCH   8  11
HETATM   11  O2  UNL     1       1.205  -1.598   0.032  1.00  0.00    -0.370 OA
ATOM     12  H2  UNL     1       1.423  -2.517   0.137  1.00  0.00     0.212 HD
ENDBRANCH   8  11
BRANCH   1  13
HETATM   13  N1  UNL     1      -0.367   0.265  -0.270  1.00  0.00    -0.270 N 
ATOM     14  H1  UNL     1      -0.469  -0.236  -1.153  1.00  0.00     0.190 HD
BRANCH  13  15
HETATM   15  C5  UNL     1      -1.406   0.131   0.680  1.00  0.00     0.230 C 
HETATM   16  S1  UNL     1      -1.222   0.948   2.097  1.00  0.00    -0.032 SA
BRANCH  15  17
HETATM   17  O1  UNL     1      -2.501  -0.639   0.422  1.00  0.00    -0.316 OA
BRANCH  17  18
HETATM   18  C2  UNL     1      -3.647  -0.267  -0.275  1.00  0.00     0.059 C 
HETATM   19  C1  UNL     1      -3.365   0.153  -1.700  1.00  0.00     0.045 C 
HETATM   20  C3  UNL     1      -4.320   0.901   0.449  1.00  0.00     0.045 C 
HETATM   21  C4  UNL     1      -4.631  -1.419  -0.234  1.00  0.00     0.045 C 
ENDBRANCH  17  18
ENDBRANCH  15  17
ENDBRANCH  13  15
ENDBRANCH   1  13
TORSDOF 5
