REMARK  4 active torsions:
REMARK  status: ('A' for Active; 'I' for Inactive)
REMARK    1  A    between atoms: O1_2  and  N1_3 
REMARK    2  A    between atoms: N1_3  and  C2_4 
REMARK    3  A    between atoms: C2_4  and  C4_6 
REMARK    4  A    between atoms: C12_21  and  O2_22 
ROOT
HETATM    1  C4  UNL     1       0.888  -0.407  -0.518  1.00  0.00     0.049 A 
HETATM    2  C5  UNL     1       0.791  -0.535  -1.924  1.00  0.00     0.102 A 
HETATM    3  N2  UNL     1       1.788  -0.572  -2.935  1.00  0.00    -0.093 NA
HETATM    4  S1  UNL     1      -0.855  -0.651  -2.246  1.00  0.00    -0.075 SA
HETATM    5  C6  UNL     1      -1.446  -0.542  -0.640  1.00  0.00     0.030 A 
HETATM    6  C7  UNL     1      -0.300  -0.412   0.112  1.00  0.00     0.039 A 
HETATM    7  C8  UNL     1      -0.623  -0.215   1.543  1.00  0.00     0.107 C 
HETATM    8  N3  UNL     1       0.192  -0.058   2.497  1.00  0.00    -0.385 N 
ATOM      9  H31 UNL     1      -0.031   0.078   3.483  1.00  0.00     0.157 HD
ATOM     10  H32 UNL     1       1.166  -0.084   2.195  1.00  0.00     0.157 HD
HETATM   11  N4  UNL     1      -1.990  -0.179   1.967  1.00  0.00    -0.365 N 
ATOM     12  H4  UNL     1      -2.257  -0.497   2.899  1.00  0.00     0.162 HD
HETATM   13  C9  UNL     1      -2.980   0.317   1.045  1.00  0.00     0.055 C 
HETATM   14  C10 UNL     1      -4.383   0.161   1.599  1.00  0.00     0.041 C 
HETATM   15  C11 UNL     1      -2.663   1.740   0.704  1.00  0.00     0.041 C 
HETATM   16  C12 UNL     1      -2.863  -0.610  -0.131  1.00  0.00     0.186 C 
ENDROOT
BRANCH   1  17
HETATM   17  C2  UNL     1       2.270  -0.287  -0.037  1.00  0.00     0.127 C 
HETATM   18  C3  UNL     1       2.718  -0.231   1.378  1.00  0.00     0.089 C 
BRANCH  17  19
HETATM   19  N1  UNL     1       3.241  -0.271  -0.802  1.00  0.00    -0.286 NA
BRANCH  19  20
HETATM   20  O1  UNL     1       4.202  -0.255  -1.561  1.00  0.00    -0.214 OA
HETATM   21  C1  UNL     1       5.279   0.615  -1.777  1.00  0.00     0.255 C 
ENDBRANCH  19  20
ENDBRANCH  17  19
ENDBRANCH   1  17
BRANCH  16  22
HETATM   22  O2  UNL     1      -3.038  -1.923   0.300  1.00  0.00    -0.388 OA
ATOM     23  H2  UNL     1      -3.931  -1.966   0.621  1.00  0.00     0.210 HD
ENDBRANCH  16  22
TORSDOF 4
