REMARK  2 active torsions:
REMARK  status: ('A' for Active; 'I' for Inactive)
REMARK    1  A    between atoms: N1_1  and  C1_4 
REMARK    2  A    between atoms: C5_15  and  C6_16 
ROOT
HETATM    1  C1  UNL     1      -3.471   1.294  -0.154  1.00  0.00     0.144 A 
HETATM    2  N2  UNL     1      -3.479  -0.043  -0.189  1.00  0.00    -0.326 N 
ATOM      3  H2  UNL     1      -4.404  -0.470  -0.240  1.00  0.00     0.169 HD
HETATM    4  C2  UNL     1      -2.471  -0.891  -0.168  1.00  0.00     0.131 A 
HETATM    5  S1  UNL     1      -2.830  -2.510  -0.226  1.00  0.00    -0.058 SA
HETATM    6  C3  UNL     1      -1.116  -0.568  -0.100  1.00  0.00     0.091 A 
HETATM    7  N3  UNL     1      -0.003  -1.327  -0.071  1.00  0.00    -0.338 N 
ATOM      8  H3  UNL     1       0.004  -2.347  -0.097  1.00  0.00     0.167 HD
HETATM    9  C4  UNL     1       1.123  -0.540  -0.001  1.00  0.00     0.125 A 
HETATM   10  N4  UNL     1       2.409  -0.731   0.051  1.00  0.00    -0.330 N 
ATOM     11  H4  UNL     1       2.780  -1.681   0.043  1.00  0.00     0.168 HD
HETATM   12  C5  UNL     1       3.234   0.291   0.114  1.00  0.00     0.154 A 
HETATM   13  S2  UNL     1       2.145   1.624   0.101  1.00  0.00    -0.060 SA
HETATM   14  C7  UNL     1       0.680   0.755   0.014  1.00  0.00     0.070 A 
HETATM   15  C8  UNL     1      -0.695   0.735  -0.047  1.00  0.00     0.059 A 
HETATM   16  S3  UNL     1      -1.872   1.948  -0.066  1.00  0.00    -0.051 SA
ENDROOT
BRANCH   1  17
HETATM   17  N1  UNL     1      -4.524   2.020  -0.181  1.00  0.00    -0.380 N 
ATOM     18  H12 UNL     1      -5.467   1.634  -0.233  1.00  0.00     0.158 HD
ATOM     19  H11 UNL     1      -4.518   3.040  -0.154  1.00  0.00     0.158 HD
ENDBRANCH   1  17
BRANCH  12  20
HETATM   20  C6  UNL     1       4.710   0.292   0.179  1.00  0.00     0.234 C 
HETATM   21  O1  UNL     1       5.332   1.364   0.234  1.00  0.00    -0.642 OA
HETATM   22  O2  UNL     1       5.372  -0.905   0.176  1.00  0.00    -0.642 OA
ENDBRANCH  12  20
TORSDOF 2
