REMARK  4 active torsions:
REMARK  status: ('A' for Active; 'I' for Inactive)
REMARK    1  A    between atoms: N1_1  and  N2_4 
REMARK    2  A    between atoms: N2_4  and  N3_5 
REMARK    3  A    between atoms: N3_5  and  C1_7 
REMARK    4  A    between atoms: C2_10  and  N5_11 
ROOT
HETATM    1  C1  UNL     1       2.395   0.710  -0.428  1.00  0.00     0.162 A 
HETATM    2  N4  UNL     1       3.688   0.427  -0.201  1.00  0.00    -0.174 N 
ATOM      3  H4  UNL     1       4.362   1.168  -0.391  1.00  0.00     0.186 HD
HETATM    4  C2  UNL     1       4.171  -0.721   0.245  1.00  0.00     0.678 A 
HETATM    5  N6  UNL     1       3.260  -1.684   0.490  1.00  0.00    -0.185 N 
ATOM      6  H6  UNL     1       3.566  -2.593   0.837  1.00  0.00     0.185 HD
HETATM    7  C3  UNL     1       1.934  -1.453   0.278  1.00  0.00     0.105 A 
HETATM    8  S1  UNL     1       0.571  -2.443   0.487  1.00  0.00    -0.075 SA
HETATM    9  C4  UNL     1      -0.641  -1.338  -0.017  1.00  0.00    -0.008 A 
HETATM   10  C5  UNL     1       0.085  -0.218  -0.335  1.00  0.00    -0.026 A 
HETATM   11  C6  UNL     1       1.424  -0.273  -0.183  1.00  0.00     0.052 A 
HETATM   12  C7  UNL     1      -0.451   1.099  -0.849  1.00  0.00     0.068 C 
HETATM   13  C8  UNL     1      -1.942   1.091  -1.036  1.00  0.00     0.237 C 
HETATM   14  N7  UNL     1      -2.617   1.209   0.226  1.00  0.00    -0.075 N 
ATOM     15  H71 UNL     1      -3.062   2.119   0.346  1.00  0.00     0.277 HD
ATOM     16  H72 UNL     1      -1.968   1.264   1.011  1.00  0.00     0.277 HD
HETATM   17  C9  UNL     1      -3.567   0.099   0.362  1.00  0.00     0.232 C 
HETATM   18  C10 UNL     1      -2.806  -1.011   1.033  1.00  0.00     0.032 C 
HETATM   19  C11 UNL     1      -2.073  -1.790   0.001  1.00  0.00     0.048 C 
ENDROOT
BRANCH   1  20
HETATM   20  N3  UNL     1       2.134   2.013  -0.905  1.00  0.00    -0.198 N 
ATOM     21  H3  UNL     1       1.465   2.115  -1.668  1.00  0.00     0.205 HD
BRANCH  20  22
HETATM   22  N2  UNL     1       2.659   3.033  -0.462  1.00  0.00    -0.242 NA
BRANCH  22  23
HETATM   23  N1  UNL     1       3.043   3.912   0.314  1.00  0.00    -0.260 N 
ATOM     24  H12 UNL     1       2.646   3.485   1.151  1.00  0.00     0.193 HD
ATOM     25  H11 UNL     1       3.478   4.758   0.681  1.00  0.00     0.193 HD
ENDBRANCH  22  23
ENDBRANCH  20  22
ENDBRANCH   1  20
BRANCH   4  26
HETATM   26  N5  UNL     1       5.434  -0.861   0.420  1.00  0.00    -0.234 N 
ATOM     27  H52 UNL     1       6.123  -0.132   0.235  1.00  0.00     0.174 HD
ATOM     28  H51 UNL     1       5.806  -1.746   0.764  1.00  0.00     0.174 HD
ENDBRANCH   4  26
TORSDOF 4
