REMARK  2 active torsions:
REMARK  status: ('A' for Active; 'I' for Inactive)
REMARK    1  A    between atoms: C2_2  and  N1_4 
REMARK    2  A    between atoms: N1_4  and  C4_6 
ROOT
HETATM    1  C4  UNL     1       1.911   0.134   0.530  1.00  0.00     0.160 C 
HETATM    2  N2  UNL     1       1.512  -0.866   1.227  1.00  0.00    -0.283 N 
ATOM      3  H2  UNL     1       2.119  -1.183   1.983  1.00  0.00     0.188 HD
HETATM    4  N3  UNL     1       0.320  -1.552   1.036  1.00  0.00    -0.325 N 
ATOM      5  H3  UNL     1       0.436  -2.563   1.103  1.00  0.00     0.181 HD
HETATM    6  C5  UNL     1      -0.988  -1.184   0.776  1.00  0.00     0.134 C 
HETATM    7  C6  UNL     1      -1.747  -2.314   0.060  1.00  0.00     0.032 C 
HETATM    8  C7  UNL     1      -3.212  -2.108   0.370  1.00  0.00     0.007 C 
HETATM    9  C8  UNL     1      -3.551  -0.688   0.721  1.00  0.00     0.041 C 
HETATM   10  C9  UNL     1      -2.687   0.294   0.021  1.00  0.00    -0.024 A 
HETATM   11  C10 UNL     1      -3.251   1.366  -0.594  1.00  0.00     0.055 A 
HETATM   12  N4  UNL     1      -4.645   1.624  -0.612  1.00  0.00    -0.102 NA
HETATM   13  C11 UNL     1      -2.439   2.280  -1.250  1.00  0.00     0.055 A 
HETATM   14  C12 UNL     1      -1.079   2.086  -1.269  1.00  0.00     0.066 A 
HETATM   15  N5  UNL     1      -0.205   3.015  -1.941  1.00  0.00    -0.101 NA
HETATM   16  C13 UNL     1      -0.555   0.981  -0.630  1.00  0.00     0.041 A 
HETATM   17  C14 UNL     1      -1.306   0.040   0.038  1.00  0.00    -0.007 A 
HETATM   18  S1  UNL     1       1.236   1.026  -0.857  1.00  0.00    -0.051 SA
ENDROOT
BRANCH   1  19
HETATM   19  N1  UNL     1       3.177   0.661   0.932  1.00  0.00    -0.365 N 
ATOM     20  H1  UNL     1       3.199   1.419   1.614  1.00  0.00     0.162 HD
BRANCH  19  21
HETATM   21  C2  UNL     1       4.407   0.168   0.416  1.00  0.00     0.075 C 
HETATM   22  C1  UNL     1       4.600  -1.324   0.721  1.00  0.00     0.032 C 
HETATM   23  C3  UNL     1       4.541   0.305  -1.085  1.00  0.00     0.032 C 
ENDBRANCH  19  21
ENDBRANCH   1  19
TORSDOF 2
