REMARK  15 active torsions:
REMARK  status: ('A' for Active; 'I' for Inactive)
REMARK    1  A    between atoms: C2_2  and  C3_3 
REMARK    2  A    between atoms: C3_3  and  C4_4 
REMARK    3  A    between atoms: C4_4  and  O1_5 
REMARK    4  A    between atoms: O1_5  and  C5_6 
REMARK       I    between atoms: C5_6  and  N1_8 
REMARK    5  A    between atoms: N1_8  and  C6_10 
REMARK    6  A    between atoms: C6_10  and  C7_11 
REMARK       I    between atoms: C7_11  and  N2_13 
REMARK    7  A    between atoms: N2_13  and  C8_15 
REMARK    8  A    between atoms: C8_15  and  C10_18 
REMARK    9  A    between atoms: C10_18  and  C11_19 
REMARK   10  A    between atoms: C11_19  and  C12_20 
REMARK   11  A    between atoms: C12_20  and  C13_21 
REMARK   12  A    between atoms: C13_21  and  N4_22 
REMARK       I    between atoms: C14_24  and  N6_26 
REMARK       I    between atoms: N6_26  and  C16_28 
REMARK   13  A    between atoms: C16_28  and  O5_30 
REMARK   14  A    between atoms: O5_30  and  C17_31 
REMARK   15  A    between atoms: C17_31  and  C18_32 
ROOT
HETATM    1  C8  UNL     1      -1.582  -1.708  -1.393  1.00  0.00     0.192 C 
HETATM    2  C9  UNL     1      -0.981  -2.865  -0.765  1.00  0.00     0.084 C 
HETATM    3  N3  UNL     1      -0.486  -3.791  -0.242  1.00  0.00    -0.195 NA
ENDROOT
BRANCH   1   4
HETATM    4  N2  UNL     1      -2.239  -0.892  -0.361  1.00  0.00    -0.342 N 
HETATM    5  C7  UNL     1      -3.607  -0.550  -0.507  1.00  0.00     0.248 C 
HETATM    6  O3  UNL     1      -4.201  -0.983  -1.543  1.00  0.00    -0.271 OA
ATOM      7  H2  UNL     1      -1.714  -0.574   0.454  1.00  0.00     0.163 HD
BRANCH   5   8
HETATM    8  C6  UNL     1      -4.361   0.256   0.456  1.00  0.00     0.123 C 
HETATM    9  C23 UNL     1      -4.144  -0.325   1.834  1.00  0.00     0.042 C 
HETATM   10  C24 UNL     1      -3.981   0.834   2.789  1.00  0.00     0.004 C 
HETATM   11  C25 UNL     1      -4.427   2.048   2.003  1.00  0.00     0.012 C 
HETATM   12  C26 UNL     1      -3.911   1.678   0.604  1.00  0.00    -0.006 C 
HETATM   13  C27 UNL     1      -2.451   1.920   0.552  1.00  0.00     0.012 C 
HETATM   14  C30 UNL     1      -4.496   2.630  -0.406  1.00  0.00     0.012 C 
HETATM   15  C28 UNL     1      -2.386   3.458   0.486  1.00  0.00     0.001 C 
HETATM   16  C29 UNL     1      -3.631   3.871  -0.224  1.00  0.00     0.001 C 
BRANCH   8  17
HETATM   17  N1  UNL     1      -5.767   0.196   0.073  1.00  0.00    -0.318 N 
HETATM   18  C5  UNL     1      -6.515  -1.024   0.036  1.00  0.00     0.361 C 
HETATM   19  O2  UNL     1      -6.010  -2.143   0.336  1.00  0.00    -0.238 OA
ATOM     20  H1  UNL     1      -6.239   1.064  -0.180  1.00  0.00     0.166 HD
BRANCH  18  21
HETATM   21  O1  UNL     1      -7.850  -1.040  -0.335  1.00  0.00    -0.304 OA
BRANCH  21  22
HETATM   22  C4  UNL     1      -8.616  -2.193  -0.389  1.00  0.00     0.180 C 
BRANCH  22  23
HETATM   23  C3  UNL     1      -8.171  -3.254  -1.338  1.00  0.00     0.026 C 
BRANCH  23  24
HETATM   24  C2  UNL     1      -9.182  -4.404  -1.201  1.00  0.00    -0.002 C 
HETATM   25  C1  UNL     1      -8.847  -5.548  -2.110  1.00  0.00     0.005 C 
ENDBRANCH  23  24
ENDBRANCH  22  23
ENDBRANCH  21  22
ENDBRANCH  18  21
ENDBRANCH   8  17
ENDBRANCH   5   8
ENDBRANCH   1   4
BRANCH   1  26
HETATM   26  C10 UNL     1      -0.518  -0.853  -2.033  1.00  0.00     0.040 C 
BRANCH  26  27
HETATM   27  C11 UNL     1       0.477  -0.439  -0.980  1.00  0.00     0.004 C 
BRANCH  27  28
HETATM   28  C12 UNL     1       1.558   0.415  -1.623  1.00  0.00     0.020 C 
BRANCH  28  29
HETATM   29  C13 UNL     1       2.533   0.788  -0.482  1.00  0.00     0.122 C 
BRANCH  29  30
HETATM   30  N4  UNL     1       3.571   1.579  -0.976  1.00  0.00    -0.364 N 
HETATM   31  C14 UNL     1       4.688   1.902  -0.496  1.00  0.00     0.194 C 
HETATM   32  N5  UNL     1       5.478   2.766  -1.377  1.00  0.00    -0.063 NA
HETATM   33  N6  UNL     1       5.275   1.576   0.728  1.00  0.00    -0.272 N 
HETATM   34  C15 UNL     1       4.584   0.748   1.698  1.00  0.00     0.164 C 
HETATM   35  C16 UNL     1       6.596   2.062   1.057  1.00  0.00     0.369 C 
HETATM   36  O4  UNL     1       7.179   2.769   0.215  1.00  0.00    -0.238 OA
ATOM     37  H4  UNL     1       3.390   1.969  -1.901  1.00  0.00     0.162 HD
BRANCH  35  38
HETATM   38  O5  UNL     1       7.163   1.738   2.267  1.00  0.00    -0.301 OA
BRANCH  38  39
HETATM   39  C17 UNL     1       8.403   2.110   2.689  1.00  0.00     0.215 C 
BRANCH  39  40
HETATM   40  C18 UNL     1       9.618   1.567   2.043  1.00  0.00     0.200 A 
HETATM   41  N7  UNL     1       9.835   1.790   0.666  1.00  0.00    -0.355 N 
HETATM   42  C19 UNL     1      10.125   0.719   0.031  1.00  0.00     0.145 A 
ATOM     43  H7  UNL     1       9.768   2.707   0.225  1.00  0.00     0.162 HD
HETATM   44  S1  UNL     1      10.526   0.094  -1.591  1.00  0.00    -0.092 SA
HETATM   45  N8  UNL     1      10.107  -0.419   0.875  1.00  0.00    -0.296 N 
HETATM   46  C20 UNL     1      10.036  -1.653  -1.205  1.00  0.00     0.103 C 
HETATM   47  C21 UNL     1      10.436  -1.654   0.249  1.00  0.00     0.144 C 
HETATM   48  C22 UNL     1       9.747   0.094   2.183  1.00  0.00     0.250 A 
HETATM   49  O6  UNL     1       9.567  -0.529   3.251  1.00  0.00    -0.271 OA
ENDBRANCH  39  40
ENDBRANCH  38  39
ENDBRANCH  35  38
ENDBRANCH  29  30
ENDBRANCH  28  29
ENDBRANCH  27  28
ENDBRANCH  26  27
ENDBRANCH   1  26
TORSDOF 15
