REMARK  16 active torsions:
REMARK  status: ('A' for Active; 'I' for Inactive)
REMARK    1  A    between atoms: C2_2  and  C3_3 
REMARK    2  A    between atoms: C3_3  and  N1_4 
REMARK    3  A    between atoms: N1_4  and  C4_6 
REMARK    4  A    between atoms: C4_6  and  C5_7 
REMARK    5  A    between atoms: C4_6  and  C21_27 
REMARK    6  A    between atoms: C9_11  and  C10_12 
REMARK    7  A    between atoms: C10_12  and  O1_13 
REMARK    8  A    between atoms: O1_13  and  C11_14 
REMARK    9  A    between atoms: C11_14  and  C12_15 
REMARK   10  A    between atoms: C12_15  and  C13_16 
REMARK   11  A    between atoms: C13_16  and  C14_17 
REMARK   12  A    between atoms: C14_17  and  C15_18 
REMARK   13  A    between atoms: C26_32  and  C27_33 
REMARK   14  A    between atoms: C30_38  and  C31_39 
REMARK   15  A    between atoms: C33_41  and  O6_42 
REMARK   16  A    between atoms: C34_44  and  O7_46 
ROOT
HETATM    1  C4  UNL     1      -0.027  -0.630  -0.234  1.00  0.00     0.029 C 
ENDROOT
BRANCH   1   2
HETATM    2  N1  UNL     1       0.455  -0.814  -1.325  1.00  0.00    -0.370 N 
ATOM      3  H1  UNL     1       1.369  -1.228  -1.144  1.00  0.00     0.165 HD
BRANCH   2   4
HETATM    4  C3  UNL     1       0.366  -0.735  -2.673  1.00  0.00     0.087 C 
BRANCH   4   5
HETATM    5  C2  UNL     1      -0.118  -1.942  -3.385  1.00  0.00     0.007 C 
HETATM    6  C1  UNL     1      -0.504  -3.067  -2.819  1.00  0.00     0.012 C 
ENDBRANCH   4   5
ENDBRANCH   2   4
ENDBRANCH   1   2
BRANCH   1   7
HETATM    7  C5  UNL     1       0.720  -0.998   1.019  1.00  0.00     0.051 C 
HETATM    8  C6  UNL     1       0.983   0.203   1.870  1.00  0.00     0.012 C 
HETATM    9  C7  UNL     1       2.483   0.330   2.011  1.00  0.00     0.009 C 
HETATM   10  C8  UNL     1       3.039  -0.516   0.847  1.00  0.00     0.034 C 
HETATM   11  C9  UNL     1       4.430  -0.891   1.179  1.00  0.00     0.161 C 
HETATM   12  C19 UNL     1       2.024  -1.647   0.872  1.00  0.00     0.042 C 
HETATM   13  O2  UNL     1       4.617  -2.197   1.640  1.00  0.00    -0.307 OA
HETATM   14  C17 UNL     1       3.642  -2.772   2.441  1.00  0.00     0.330 C 
HETATM   15  O3  UNL     1       3.931  -3.613   3.351  1.00  0.00    -0.256 OA
HETATM   16  C18 UNL     1       2.272  -2.364   2.186  1.00  0.00     0.233 C 
HETATM   17  O4  UNL     1       1.358  -2.580   2.979  1.00  0.00    -0.286 OA
HETATM   18  C20 UNL     1       2.240  -2.653  -0.185  1.00  0.00     0.025 C 
BRANCH  11  19
HETATM   19  C10 UNL     1       5.344  -0.738  -0.046  1.00  0.00     0.200 C 
BRANCH  19  20
HETATM   20  O1  UNL     1       5.292   0.495  -0.623  1.00  0.00    -0.389 OA
BRANCH  20  21
HETATM   21  C11 UNL     1       5.653   1.569   0.130  1.00  0.00     0.167 C 
BRANCH  21  22
HETATM   22  C12 UNL     1       7.073   1.529   0.645  1.00  0.00     0.026 C 
BRANCH  22  23
HETATM   23  C13 UNL     1       8.030   1.474  -0.501  1.00  0.00     0.002 C 
BRANCH  23  24
HETATM   24  C14 UNL     1       9.427   1.437   0.052  1.00  0.00    -0.000 C 
BRANCH  24  25
HETATM   25  C15 UNL     1      10.471   1.383  -1.044  1.00  0.00    -0.005 C 
HETATM   26  C16 UNL     1      10.332   0.181  -1.915  1.00  0.00     0.005 C 
ENDBRANCH  24  25
ENDBRANCH  23  24
ENDBRANCH  22  23
ENDBRANCH  21  22
ENDBRANCH  20  21
ENDBRANCH  19  20
ENDBRANCH  11  19
ENDBRANCH   1   7
BRANCH   1  27
HETATM   27  C21 UNL     1      -1.375  -0.028  -0.037  1.00  0.00     0.127 A 
HETATM   28  C22 UNL     1      -2.180   0.418  -1.197  1.00  0.00     0.055 C 
HETATM   29  C23 UNL     1      -3.625   0.606  -0.667  1.00  0.00     0.032 C 
HETATM   30  C24 UNL     1      -3.622  -0.616   0.141  1.00  0.00     0.026 C 
HETATM   31  C34 UNL     1      -3.986   1.926  -0.278  1.00  0.00     0.085 C 
HETATM   32  C25 UNL     1      -4.829  -1.089   0.810  1.00  0.00     0.024 C 
HETATM   33  C36 UNL     1      -2.352  -0.665   0.953  1.00  0.00     0.168 A 
HETATM   34  C26 UNL     1      -6.002  -0.959  -0.152  1.00  0.00     0.080 C 
HETATM   35  C29 UNL     1      -6.479   0.447  -0.164  1.00  0.00     0.141 C 
HETATM   36  O5  UNL     1      -7.171   0.674  -1.156  1.00  0.00    -0.297 OA
HETATM   37  C30 UNL     1      -6.301   1.586   0.732  1.00  0.00     0.087 C 
HETATM   38  C33 UNL     1      -4.963   2.182   0.820  1.00  0.00     0.163 C 
HETATM   39  O8  UNL     1      -1.618   0.411   1.247  1.00  0.00    -0.362 OA
HETATM   40  C35 UNL     1      -2.873   2.939   0.040  1.00  0.00     0.049 C 
BRANCH  34  41
HETATM   41  C27 UNL     1      -7.144  -1.804   0.291  1.00  0.00    -0.000 C 
HETATM   42  C28 UNL     1      -7.583  -2.738  -0.523  1.00  0.00     0.096 C 
HETATM   43  N2  UNL     1      -8.671  -3.550  -0.113  1.00  0.00    -0.115 NA
ENDBRANCH  34  41
BRANCH  37  44
HETATM   44  C31 UNL     1      -7.419   2.590   0.409  1.00  0.00     0.010 C 
HETATM   45  C32 UNL     1      -8.755   1.957   0.628  1.00  0.00     0.006 C 
ENDBRANCH  37  44
BRANCH  38  46
HETATM   46  O6  UNL     1      -4.394   2.112   2.116  1.00  0.00    -0.392 OA
ATOM     47  H6  UNL     1      -3.528   2.498   2.173  1.00  0.00     0.210 HD
ENDBRANCH  38  46
BRANCH  31  48
HETATM   48  O7  UNL     1      -4.624   2.565  -1.401  1.00  0.00    -0.387 OA
ATOM     49  H7  UNL     1      -4.865   3.446  -1.141  1.00  0.00     0.210 HD
ENDBRANCH  31  48
ENDBRANCH   1  27
TORSDOF 16
