REMARK  18 active torsions:
REMARK  status: ('A' for Active; 'I' for Inactive)
REMARK    1  A    between atoms: O1_2  and  C2_3 
REMARK    2  A    between atoms: C2_3  and  C3_4 
REMARK    3  A    between atoms: C3_4  and  C4_5 
REMARK    4  A    between atoms: C4_5  and  N1_6 
REMARK    5  A    between atoms: N1_6  and  C5_8 
REMARK    6  A    between atoms: C6_11  and  N3_12 
REMARK    7  A    between atoms: N3_12  and  C7_14 
REMARK    8  A    between atoms: C7_14  and  C8_15 
REMARK    9  A    between atoms: C8_15  and  C9_16 
REMARK   10  A    between atoms: C11_18  and  N4_19 
REMARK       I    between atoms: N4_19  and  C12_21 
REMARK   11  A    between atoms: C12_21  and  C13_23 
REMARK   12  A    between atoms: C13_23  and  C14_24 
REMARK   13  A    between atoms: C14_24  and  C15_25 
REMARK   14  A    between atoms: C15_25  and  C16_26 
REMARK   15  A    between atoms: C16_26  and  C17_27 
REMARK   16  A    between atoms: C17_27  and  N5_28 
REMARK   17  A    between atoms: C25_40  and  C26_41 
REMARK   18  A    between atoms: C26_41  and  C27_43 
ROOT
HETATM    1  N3  UNL     1      -2.705  -0.421   1.060  1.00  0.00    -0.226 N 
ATOM      2  H3  UNL     1      -1.704  -0.557   0.920  1.00  0.00     0.177 HD
ENDROOT
BRANCH   1   3
HETATM    3  C6  UNL     1      -3.466  -0.294   0.026  1.00  0.00     0.680 A 
HETATM    4  N2  UNL     1      -4.813  -0.109   0.133  1.00  0.00    -0.176 N 
HETATM    5  C5  UNL     1      -5.616   0.022  -0.936  1.00  0.00     0.134 A 
ATOM      6  H2  UNL     1      -5.228  -0.068   1.064  1.00  0.00     0.186 HD
HETATM    7  C25 UNL     1      -5.096  -0.026  -2.212  1.00  0.00     0.094 A 
HETATM    8  C24 UNL     1      -3.737  -0.213  -2.339  1.00  0.00     0.137 A 
HETATM    9  N7  UNL     1      -2.988  -0.337  -1.230  1.00  0.00    -0.180 N 
HETATM   10 CL1  UNL     1      -3.076  -0.274  -3.957  1.00  0.00    -0.063 Cl
ATOM     11  H7  UNL     1      -1.984  -0.474  -1.350  1.00  0.00     0.185 HD
BRANCH   5  12
HETATM   12  N1  UNL     1      -6.874   0.191  -0.811  1.00  0.00    -0.375 N 
ATOM     13  H1  UNL     1      -7.404   0.281  -1.678  1.00  0.00     0.161 HD
BRANCH  12  14
HETATM   14  C4  UNL     1      -7.623   0.269   0.390  1.00  0.00     0.123 C 
BRANCH  14  15
HETATM   15  C3  UNL     1      -8.921  -0.516   0.163  1.00  0.00     0.046 C 
BRANCH  15  16
HETATM   16  C2  UNL     1      -9.630   0.157  -0.997  1.00  0.00     0.168 C 
BRANCH  16  17
HETATM   17  O1  UNL     1     -10.816  -0.486  -1.269  1.00  0.00    -0.396 OA
HETATM   18  C1  UNL     1     -10.654  -1.815  -1.607  1.00  0.00     0.201 C 
ENDBRANCH  16  17
ENDBRANCH  15  16
ENDBRANCH  14  15
ENDBRANCH  12  14
ENDBRANCH   5  12
BRANCH   7  19
HETATM   19  C26 UNL     1      -5.930   0.112  -3.426  1.00  0.00     0.176 C 
HETATM   20  O3  UNL     1      -6.130   1.253  -3.916  1.00  0.00    -0.291 OA
BRANCH  19  21
HETATM   21  C27 UNL     1      -6.537  -1.056  -4.081  1.00  0.00     0.169 C 
HETATM   22 BR1  UNL     1      -7.513  -0.458  -5.632  1.00  0.00    -0.088 Br
ENDBRANCH  19  21
ENDBRANCH   7  19
ENDBRANCH   1   3
BRANCH   1  23
HETATM   23  C7  UNL     1      -3.210  -0.379   2.385  1.00  0.00     0.142 C 
BRANCH  23  24
HETATM   24  C8  UNL     1      -2.230  -0.751   3.452  1.00  0.00     0.060 C 
BRANCH  24  25
HETATM   25  C9  UNL     1      -1.033   0.095   3.515  1.00  0.00    -0.037 A 
HETATM   26  C10 UNL     1       0.133  -0.196   2.788  1.00  0.00     0.057 A 
HETATM   27  C11 UNL     1       1.098   0.752   3.028  1.00  0.00     0.109 A 
HETATM   28  N6  UNL     1       0.514   1.627   3.909  1.00  0.00    -0.347 N 
HETATM   29  C22 UNL     1       1.135   2.797   4.459  1.00  0.00     0.157 C 
HETATM   30  C23 UNL     1      -0.735   1.239   4.192  1.00  0.00     0.099 A 
BRANCH  27  31
HETATM   31  N4  UNL     1       2.414   0.921   2.556  1.00  0.00    -0.313 N 
HETATM   32  C12 UNL     1       3.028   0.043   1.648  1.00  0.00     0.223 C 
HETATM   33  O2  UNL     1       2.406  -0.947   1.216  1.00  0.00    -0.273 OA
ATOM     34  H4  UNL     1       2.949   1.722   2.891  1.00  0.00     0.170 HD
BRANCH  32  35
HETATM   35  C13 UNL     1       4.452   0.303   1.194  1.00  0.00     0.103 C 
BRANCH  35  36
HETATM   36  C14 UNL     1       4.789  -0.802   0.223  1.00  0.00     0.009 C 
BRANCH  36  37
HETATM   37  C15 UNL     1       6.207  -0.668  -0.322  1.00  0.00     0.002 C 
BRANCH  37  38
HETATM   38  C16 UNL     1       6.409   0.613  -1.035  1.00  0.00     0.030 C 
BRANCH  38  39
HETATM   39  C17 UNL     1       7.742   0.795  -1.660  1.00  0.00     0.272 C 
BRANCH  39  40
HETATM   40  N5  UNL     1       8.875   0.705  -0.797  1.00  0.00     0.088 N 
HETATM   41  C18 UNL     1      10.032   1.386  -1.436  1.00  0.00     0.272 C 
HETATM   42  C19 UNL     1      10.536   0.430  -2.470  1.00  0.00     0.032 C 
HETATM   43  C20 UNL     1      10.056  -0.907  -2.014  1.00  0.00     0.032 C 
HETATM   44  C21 UNL     1       9.415  -0.645  -0.654  1.00  0.00     0.272 C 
ENDBRANCH  39  40
ENDBRANCH  38  39
ENDBRANCH  37  38
ENDBRANCH  36  37
ENDBRANCH  35  36
ENDBRANCH  32  35
ENDBRANCH  27  31
ENDBRANCH  24  25
ENDBRANCH  23  24
ENDBRANCH   1  23
TORSDOF 18
