REMARK  17 active torsions:
REMARK  status: ('A' for Active; 'I' for Inactive)
REMARK    1  A    between atoms: C2_2  and  C4_4 
REMARK    2  A    between atoms: C8_8  and  C9_9 
REMARK       I    between atoms: C9_9  and  N1_11 
REMARK    3  A    between atoms: N1_11  and  C10_13 
REMARK    4  A    between atoms: C10_13  and  C11_15 
REMARK    5  A    between atoms: C11_15  and  O2_16 
REMARK    6  A    between atoms: C11_15  and  N2_18 
REMARK    7  A    between atoms: N3_21  and  C14_22 
REMARK    8  A    between atoms: C14_22  and  C15_23 
REMARK    9  A    between atoms: C15_23  and  C16_24 
REMARK   10  A    between atoms: C16_24  and  C17_25 
REMARK   11  A    between atoms: C17_25  and  C18_26 
REMARK   12  A    between atoms: C18_26  and  C19_27 
REMARK   13  A    between atoms: C19_27  and  C20_28 
REMARK   14  A    between atoms: N4_32  and  C23_33 
REMARK   15  A    between atoms: C23_33  and  S1_34 
REMARK   16  A    between atoms: S1_34  and  C24_35 
REMARK   17  A    between atoms: C24_35  and  C25_36 
ROOT
HETATM    1  C9  UNL     1      -2.285   3.063  -0.473  1.00  0.00     0.243 C 
HETATM    2  O1  UNL     1      -2.128   4.216  -0.937  1.00  0.00    -0.271 OA
HETATM    3  N1  UNL     1      -1.296   2.102  -0.677  1.00  0.00    -0.325 N 
ATOM      4  H1  UNL     1      -1.455   1.174  -0.285  1.00  0.00     0.165 HD
ENDROOT
BRANCH   3   5
HETATM    5  C10 UNL     1      -0.063   2.315  -1.400  1.00  0.00     0.321 C 
HETATM    6  F1  UNL     1       0.002   1.456  -2.459  1.00  0.00    -0.222 F 
BRANCH   5   7
HETATM    7  C11 UNL     1       1.154   2.219  -0.559  1.00  0.00     0.277 C 
BRANCH   7   8
HETATM    8  O2  UNL     1       1.166   3.167   0.478  1.00  0.00    -0.372 OA
ATOM      9  H2  UNL     1       1.946   3.105   1.017  1.00  0.00     0.212 HD
ENDBRANCH   7   8
BRANCH   7  10
HETATM   10  N2  UNL     1       1.486   0.919  -0.116  1.00  0.00    -0.337 N 
HETATM   11  C12 UNL     1       1.849  -0.070  -1.046  1.00  0.00     0.086 C 
HETATM   12  C13 UNL     1       3.121  -0.852  -0.705  1.00  0.00     0.167 C 
HETATM   13  N3  UNL     1       3.135  -1.275   0.639  1.00  0.00    -0.384 N 
HETATM   14  C21 UNL     1       2.207  -0.696   1.511  1.00  0.00     0.103 C 
HETATM   15  C22 UNL     1       2.037   0.765   1.167  1.00  0.00     0.110 C 
BRANCH  13  16
HETATM   16  C14 UNL     1       4.402  -1.693   1.155  1.00  0.00     0.122 C 
BRANCH  16  17
HETATM   17  C15 UNL     1       5.408  -0.609   1.298  1.00  0.00     0.020 C 
BRANCH  17  18
HETATM   18  C16 UNL     1       6.696  -1.152   1.846  1.00  0.00     0.002 C 
BRANCH  18  19
HETATM   19  C17 UNL     1       7.284  -2.213   0.962  1.00  0.00     0.000 C 
BRANCH  19  20
HETATM   20  C18 UNL     1       7.545  -1.664  -0.416  1.00  0.00     0.001 C 
BRANCH  20  21
HETATM   21  C19 UNL     1       8.169  -2.722  -1.317  1.00  0.00     0.011 C 
BRANCH  21  22
HETATM   22  C20 UNL     1       8.423  -2.135  -2.708  1.00  0.00     0.085 C 
HETATM   23 BR1  UNL     1       9.618  -0.631  -2.582  1.00  0.00    -0.097 Br
ENDBRANCH  21  22
ENDBRANCH  20  21
ENDBRANCH  19  20
ENDBRANCH  18  19
ENDBRANCH  17  18
ENDBRANCH  16  17
ENDBRANCH  13  16
ENDBRANCH   7  10
ENDBRANCH   5   7
ENDBRANCH   3   5
BRANCH   1  24
HETATM   24  C8  UNL     1      -3.533   2.795   0.273  1.00  0.00     0.184 C 
HETATM   25  C7  UNL     1      -4.754   3.240  -0.481  1.00  0.00     0.035 C 
HETATM   26  C6  UNL     1      -4.809   2.806  -1.903  1.00  0.00     0.003 C 
HETATM   27  C5  UNL     1      -4.922   1.341  -2.125  1.00  0.00     0.014 C 
HETATM   28  C4  UNL     1      -5.453   0.560  -0.948  1.00  0.00     0.082 C 
HETATM   29  C26 UNL     1      -4.335   0.364   0.009  1.00  0.00     0.229 C 
HETATM   30  N4  UNL     1      -3.642   1.395   0.683  1.00  0.00    -0.308 N 
HETATM   31  O5  UNL     1      -3.945  -0.783   0.265  1.00  0.00    -0.273 OA
BRANCH  28  32
HETATM   32  C2  UNL     1      -6.038  -0.715  -1.457  1.00  0.00    -0.010 C 
HETATM   33  C1  UNL     1      -6.596  -1.569  -0.343  1.00  0.00     0.010 C 
HETATM   34  C3  UNL     1      -5.108  -1.483  -2.366  1.00  0.00     0.010 C 
ENDBRANCH  28  32
BRANCH  30  35
HETATM   35  C23 UNL     1      -2.967   1.069   1.898  1.00  0.00     0.140 C 
BRANCH  35  36
HETATM   36  S1  UNL     1      -3.920   1.251   3.394  1.00  0.00    -0.114 SA
BRANCH  36  37
HETATM   37  C24 UNL     1      -5.292   0.135   3.584  1.00  0.00     0.193 C 
BRANCH  37  38
HETATM   38  C25 UNL     1      -4.824  -1.247   3.743  1.00  0.00     0.182 C 
HETATM   39  O3  UNL     1      -3.573  -1.466   3.729  1.00  0.00    -0.647 OA
HETATM   40  O4  UNL     1      -5.730  -2.291   3.904  1.00  0.00    -0.647 OA
ENDBRANCH  37  38
ENDBRANCH  36  37
ENDBRANCH  35  36
ENDBRANCH  30  35
ENDBRANCH   1  24
TORSDOF 17
