REMARK  17 active torsions:
REMARK  status: ('A' for Active; 'I' for Inactive)
REMARK    1  A    between atoms: C2_2  and  C3_3 
REMARK    2  A    between atoms: C3_3  and  C4_4 
REMARK    3  A    between atoms: C4_4  and  C5_5 
REMARK    4  A    between atoms: C5_5  and  N1_6 
REMARK    5  A    between atoms: C5_5  and  C6_10 
REMARK       I    between atoms: C6_10  and  N2_12 
REMARK    6  A    between atoms: C10_16  and  C11_17 
REMARK       I    between atoms: C11_17  and  N3_19 
REMARK    7  A    between atoms: N3_19  and  C12_21 
REMARK    8  A    between atoms: C12_21  and  C13_22 
REMARK    9  A    between atoms: C13_22  and  C14_23 
REMARK   10  A    between atoms: C14_23  and  N4_24 
REMARK   11  A    between atoms: C14_23  and  C27_43 
REMARK   12  A    between atoms: N4_24  and  C15_26 
REMARK   13  A    between atoms: C15_26  and  C16_27 
REMARK   14  A    between atoms: C15_26  and  C20_31 
REMARK   15  A    between atoms: C16_27  and  C17_28 
REMARK   16  A    between atoms: C17_28  and  C18_29 
REMARK       I    between atoms: C20_31  and  N5_33 
REMARK       I    between atoms: N6_36  and  C23_37 
REMARK   17  A    between atoms: C23_37  and  O5_39 
ROOT
HETATM    1  C14 UNL     1       1.010   1.372  -1.260  1.00  0.00     0.086 C 
ENDROOT
BRANCH   1   2
HETATM    2  C13 UNL     1      -0.058   0.892  -0.317  1.00  0.00     0.045 C 
BRANCH   2   3
HETATM    3  C12 UNL     1      -0.549   1.803   0.718  1.00  0.00     0.124 C 
BRANCH   3   4
HETATM    4  N3  UNL     1      -1.545   1.121   1.535  1.00  0.00    -0.359 N 
HETATM    5  C11 UNL     1      -2.756   0.587   1.077  1.00  0.00     0.240 C 
HETATM    6  O2  UNL     1      -3.078   0.671  -0.128  1.00  0.00    -0.271 OA
ATOM      7  H3  UNL     1      -1.342   1.024   2.530  1.00  0.00     0.162 HD
BRANCH   5   8
HETATM    8  C10 UNL     1      -3.726  -0.107   1.986  1.00  0.00     0.179 C 
HETATM    9  N2  UNL     1      -4.869  -0.623   1.266  1.00  0.00    -0.337 N 
HETATM   10  C6  UNL     1      -5.852   0.114   0.576  1.00  0.00     0.251 C 
HETATM   11  C7  UNL     1      -4.858  -2.084   1.348  1.00  0.00     0.127 C 
HETATM   12  O1  UNL     1      -5.765   1.368   0.573  1.00  0.00    -0.271 OA
HETATM   13  C8  UNL     1      -3.374  -2.380   1.581  1.00  0.00     0.022 C 
HETATM   14  C9  UNL     1      -3.065  -1.319   2.620  1.00  0.00     0.037 C 
BRANCH  10  15
HETATM   15  C5  UNL     1      -6.997  -0.501  -0.159  1.00  0.00     0.275 C 
BRANCH  15  16
HETATM   16  C4  UNL     1      -8.015  -1.074   0.781  1.00  0.00     0.042 C 
BRANCH  16  17
HETATM   17  C3  UNL     1      -9.198  -1.723   0.183  1.00  0.00     0.002 C 
BRANCH  17  18
HETATM   18  C2  UNL     1     -10.079  -0.891  -0.690  1.00  0.00    -0.004 C 
HETATM   19  C1  UNL     1     -11.285  -1.766  -1.139  1.00  0.00     0.005 C 
ENDBRANCH  17  18
ENDBRANCH  16  17
ENDBRANCH  15  16
BRANCH  15  20
HETATM   20  N1  UNL     1      -7.620   0.546  -0.941  1.00  0.00    -0.067 N 
ATOM     21  H13 UNL     1      -8.459   0.224  -1.424  1.00  0.00     0.275 HD
ATOM     22  H12 UNL     1      -8.057   1.260  -0.358  1.00  0.00     0.275 HD
ATOM     23  H11 UNL     1      -6.927   0.936  -1.580  1.00  0.00     0.275 HD
ENDBRANCH  15  20
ENDBRANCH  10  15
ENDBRANCH   5   8
ENDBRANCH   3   4
ENDBRANCH   2   3
ENDBRANCH   1   2
BRANCH   1  24
HETATM   24  N4  UNL     1       2.204   1.771  -0.597  1.00  0.00    -0.404 N 
ATOM     25  H4  UNL     1       2.564   2.722  -0.677  1.00  0.00     0.154 HD
BRANCH  24  26
HETATM   26  C15 UNL     1       2.879   0.783   0.187  1.00  0.00     0.170 C 
BRANCH  26  27
HETATM   27  C16 UNL     1       3.382  -0.380  -0.620  1.00  0.00     0.034 C 
BRANCH  27  28
HETATM   28  C17 UNL     1       4.378  -0.024  -1.682  1.00  0.00     0.002 C 
BRANCH  28  29
HETATM   29  C18 UNL     1       4.746  -1.338  -2.377  1.00  0.00    -0.004 C 
HETATM   30  C19 UNL     1       5.740  -1.146  -3.474  1.00  0.00     0.005 C 
ENDBRANCH  28  29
ENDBRANCH  27  28
ENDBRANCH  26  27
BRANCH  26  31
HETATM   31  C20 UNL     1       3.985   1.435   0.943  1.00  0.00     0.242 C 
HETATM   32  O3  UNL     1       4.220   2.650   0.617  1.00  0.00    -0.271 OA
HETATM   33  N5  UNL     1       4.774   0.884   1.944  1.00  0.00    -0.347 N 
HETATM   34  C21 UNL     1       5.852   1.718   2.509  1.00  0.00     0.146 C 
HETATM   35  C26 UNL     1       4.667  -0.421   2.557  1.00  0.00     0.146 C 
HETATM   36  C22 UNL     1       7.114   0.909   2.715  1.00  0.00     0.148 C 
HETATM   37  N6  UNL     1       7.066  -0.401   2.158  1.00  0.00    -0.325 N 
HETATM   38  C23 UNL     1       8.163  -0.892   1.410  1.00  0.00     0.362 C 
HETATM   39  C25 UNL     1       5.912  -1.278   2.327  1.00  0.00     0.148 C 
HETATM   40  O4  UNL     1       9.201  -0.201   1.216  1.00  0.00    -0.238 OA
BRANCH  38  41
HETATM   41  O5  UNL     1       8.164  -2.170   0.842  1.00  0.00    -0.309 OA
HETATM   42  C24 UNL     1       9.225  -2.701   0.092  1.00  0.00     0.215 C 
ENDBRANCH  38  41
ENDBRANCH  26  31
ENDBRANCH  24  26
ENDBRANCH   1  24
BRANCH   1  43
HETATM   43  C27 UNL     1       0.526   2.326  -2.316  1.00  0.00    -0.031 C 
HETATM   44  C28 UNL     1       1.726   2.687  -3.204  1.00  0.00     0.016 C 
HETATM   45  C29 UNL     1      -0.465   1.633  -3.219  1.00  0.00     0.016 C 
HETATM   46  C30 UNL     1      -0.021   3.621  -1.835  1.00  0.00     0.016 C 
ENDBRANCH   1  43
TORSDOF 17
