REMARK  16 active torsions:
REMARK  status: ('A' for Active; 'I' for Inactive)
REMARK    1  A    between atoms: C2_2  and  C4_4 
REMARK    2  A    between atoms: C4_4  and  C5_5 
REMARK    3  A    between atoms: C5_5  and  N1_6 
REMARK    4  A    between atoms: C5_5  and  C23_33 
REMARK       I    between atoms: N1_6  and  C6_8 
REMARK    5  A    between atoms: C6_8  and  C7_10 
REMARK    6  A    between atoms: C7_10  and  N2_12 
REMARK       I    between atoms: N2_12  and  C9_14 
REMARK    7  A    between atoms: C9_14  and  C10_16 
REMARK    8  A    between atoms: C10_16  and  C11_17 
REMARK    9  A    between atoms: C10_16  and  N3_24 
REMARK   10  A    between atoms: C11_17  and  C12_18 
REMARK       I    between atoms: N3_24  and  C18_26 
REMARK   11  A    between atoms: C18_26  and  O4_28 
REMARK   12  A    between atoms: O4_28  and  C19_29 
REMARK   13  A    between atoms: C23_33  and  C24_35 
REMARK   14  A    between atoms: C24_35  and  S1_36 
REMARK   15  A    between atoms: S1_36  and  C25_37 
REMARK   16  A    between atoms: C25_37  and  C27_39 
REMARK       I    between atoms: C27_39  and  N4_41 
ROOT
HETATM    1  C7  UNL     1      -0.125   1.434   1.439  1.00  0.00     0.172 C 
HETATM    2  C8  UNL     1      -0.032   1.055   2.944  1.00  0.00     0.042 C 
ENDROOT
BRANCH   1   3
HETATM    3  C6  UNL     1       1.037   0.825   0.762  1.00  0.00     0.240 C 
HETATM    4  N1  UNL     1       2.344   1.252   1.077  1.00  0.00    -0.348 N 
ATOM      5  H1  UNL     1       2.457   1.990   1.771  1.00  0.00     0.163 HD
HETATM    6  O1  UNL     1       0.871  -0.071  -0.091  1.00  0.00    -0.271 OA
BRANCH   4   7
HETATM    7  C5  UNL     1       3.560   0.685   0.453  1.00  0.00     0.159 C 
BRANCH   7   8
HETATM    8  C4  UNL     1       4.385   0.191   1.620  1.00  0.00     0.037 C 
BRANCH   8   9
HETATM    9  C2  UNL     1       3.665  -0.845   2.428  1.00  0.00    -0.020 C 
HETATM   10  C1  UNL     1       4.574  -1.268   3.578  1.00  0.00     0.009 C 
HETATM   11  C3  UNL     1       3.341  -2.096   1.666  1.00  0.00     0.009 C 
ENDBRANCH   8   9
ENDBRANCH   7   8
BRANCH   7  12
HETATM   12  C23 UNL     1       4.305   1.756  -0.227  1.00  0.00     0.178 C 
HETATM   13  O5  UNL     1       3.738   2.893  -0.269  1.00  0.00    -0.290 OA
BRANCH  12  14
HETATM   14  C24 UNL     1       5.606   1.703  -0.850  1.00  0.00     0.098 C 
BRANCH  14  15
HETATM   15  S1  UNL     1       6.510   0.231  -1.068  1.00  0.00    -0.124 SA
BRANCH  15  16
HETATM   16  C25 UNL     1       6.114  -0.919  -2.334  1.00  0.00     0.139 C 
HETATM   17  C26 UNL     1       4.832  -1.629  -2.140  1.00  0.00     0.031 C 
BRANCH  16  18
HETATM   18  C27 UNL     1       7.195  -1.968  -2.445  1.00  0.00     0.232 C 
HETATM   19  O6  UNL     1       6.925  -3.153  -2.249  1.00  0.00    -0.272 OA
HETATM   20  N4  UNL     1       8.524  -1.591  -2.774  1.00  0.00    -0.360 N 
HETATM   21  C28 UNL     1       9.540  -2.603  -2.871  1.00  0.00     0.152 C 
HETATM   22  C29 UNL     1       8.871  -0.199  -3.014  1.00  0.00     0.152 C 
ENDBRANCH  16  18
ENDBRANCH  15  16
ENDBRANCH  14  15
ENDBRANCH  12  14
ENDBRANCH   7  12
ENDBRANCH   4   7
ENDBRANCH   1   3
BRANCH   1  23
HETATM   23  N2  UNL     1      -1.375   0.888   1.016  1.00  0.00    -0.346 N 
HETATM   24  C9  UNL     1      -2.560   1.653   0.838  1.00  0.00     0.241 C 
HETATM   25  O2  UNL     1      -2.484   2.887   1.072  1.00  0.00    -0.271 OA
ATOM     26  H2  UNL     1      -1.420  -0.114   0.830  1.00  0.00     0.163 HD
BRANCH  24  27
HETATM   27  C10 UNL     1      -3.834   1.026   0.401  1.00  0.00     0.179 C 
BRANCH  27  28
HETATM   28  C11 UNL     1      -4.084   1.143  -1.071  1.00  0.00     0.039 C 
BRANCH  28  29
HETATM   29  C12 UNL     1      -3.101   0.542  -1.978  1.00  0.00    -0.012 C 
HETATM   30  C13 UNL     1      -2.872  -0.924  -1.857  1.00  0.00     0.005 C 
HETATM   31  C14 UNL     1      -3.955  -1.776  -2.474  1.00  0.00     0.000 C 
HETATM   32  C15 UNL     1      -4.183  -1.386  -3.941  1.00  0.00     0.000 C 
HETATM   33  C16 UNL     1      -4.680   0.066  -3.872  1.00  0.00     0.000 C 
HETATM   34  C17 UNL     1      -3.516   0.883  -3.402  1.00  0.00     0.005 C 
ENDBRANCH  28  29
ENDBRANCH  27  28
BRANCH  27  35
HETATM   35  N3  UNL     1      -4.932   1.689   1.073  1.00  0.00    -0.324 N 
HETATM   36  C18 UNL     1      -5.814   0.971   1.956  1.00  0.00     0.362 C 
HETATM   37  O3  UNL     1      -5.632  -0.258   2.139  1.00  0.00    -0.238 OA
ATOM     38  H3  UNL     1      -5.084   2.686   0.918  1.00  0.00     0.165 HD
BRANCH  36  39
HETATM   39  O4  UNL     1      -6.851   1.585   2.607  1.00  0.00    -0.294 OA
BRANCH  39  40
HETATM   40  C19 UNL     1      -7.755   0.946   3.486  1.00  0.00     0.061 C 
HETATM   41  C20 UNL     1      -8.751   1.971   3.998  1.00  0.00     0.046 C 
HETATM   42  C21 UNL     1      -8.491  -0.206   2.888  1.00  0.00     0.046 C 
HETATM   43  C22 UNL     1      -7.016   0.418   4.723  1.00  0.00     0.046 C 
ENDBRANCH  39  40
ENDBRANCH  36  39
ENDBRANCH  27  35
ENDBRANCH  24  27
ENDBRANCH   1  23
TORSDOF 16
