REMARK  5 active torsions:
REMARK  status: ('A' for Active; 'I' for Inactive)
REMARK       I    between atoms: C1_2  and  N1_3 
REMARK    1  A    between atoms: C1_2  and  C17_23 
REMARK    2  A    between atoms: N1_3  and  C2_5 
REMARK    3  A    between atoms: C2_5  and  C3_6 
REMARK    4  A    between atoms: C6_9  and  N2_10 
REMARK       I    between atoms: N2_10  and  C7_12 
REMARK    5  A    between atoms: C7_12  and  C8_14 
REMARK       I    between atoms: C17_23  and  N3_25 
ROOT
HETATM    1  C3  UNL     1      -0.341   0.296  -0.713  1.00  0.00     0.003 C 
HETATM    2  C4  UNL     1      -0.169  -1.126  -0.301  1.00  0.00     0.008 C 
HETATM    3  C5  UNL     1       0.365  -1.302   1.097  1.00  0.00     0.026 C 
HETATM    4  C6  UNL     1       1.523  -0.373   1.338  1.00  0.00     0.084 C 
HETATM    5  C15 UNL     1       0.958   1.010   1.356  1.00  0.00     0.026 C 
HETATM    6  C16 UNL     1      -0.022   1.326   0.295  1.00  0.00     0.008 C 
ENDROOT
BRANCH   1   7
HETATM    7  C2  UNL     1      -1.780   0.490  -1.195  1.00  0.00     0.127 C 
BRANCH   7   8
HETATM    8  N1  UNL     1      -2.690   0.177  -0.137  1.00  0.00    -0.353 N 
HETATM    9  C1  UNL     1      -4.090   0.285  -0.364  1.00  0.00     0.309 C 
HETATM   10  O1  UNL     1      -4.522   0.650  -1.481  1.00  0.00    -0.262 OA
ATOM     11  H1  UNL     1      -2.338  -0.121   0.773  1.00  0.00     0.162 HD
BRANCH   9  12
HETATM   12  C17 UNL     1      -5.014  -0.031   0.709  1.00  0.00     0.311 C 
HETATM   13  O3  UNL     1      -4.584  -0.396   1.857  1.00  0.00    -0.262 OA
HETATM   14  N3  UNL     1      -6.409   0.060   0.502  1.00  0.00    -0.344 N 
HETATM   15  C18 UNL     1      -7.052   0.446  -0.730  1.00  0.00     0.126 C 
HETATM   16  C21 UNL     1      -7.442  -0.218   1.515  1.00  0.00     0.126 C 
HETATM   17  C19 UNL     1      -8.538   0.403  -0.447  1.00  0.00     0.021 C 
HETATM   18  C20 UNL     1      -8.597   0.651   1.044  1.00  0.00     0.021 C 
ENDBRANCH   9  12
ENDBRANCH   7   8
ENDBRANCH   1   7
BRANCH   4  19
HETATM   19  N2  UNL     1       2.551  -0.481   0.349  1.00  0.00    -0.356 N 
HETATM   20  C7  UNL     1       3.855  -0.880   0.740  1.00  0.00     0.222 C 
HETATM   21  O2  UNL     1       4.113  -1.141   1.952  1.00  0.00    -0.273 OA
ATOM     22  H2  UNL     1       2.348  -0.273  -0.629  1.00  0.00     0.162 HD
BRANCH  20  23
HETATM   23  C8  UNL     1       4.894  -0.982  -0.300  1.00  0.00     0.082 C 
HETATM   24  C9  UNL     1       6.223  -1.449   0.285  1.00  0.00     0.019 C 
HETATM   25  C10 UNL     1       7.154  -0.335  -0.078  1.00  0.00    -0.013 C 
HETATM   26  C11 UNL     1       7.301  -0.246  -1.593  1.00  0.00     0.005 C 
HETATM   27  C14 UNL     1       6.235   0.879   0.146  1.00  0.00     0.010 C 
HETATM   28  C12 UNL     1       5.948   0.286  -2.091  1.00  0.00     0.006 C 
HETATM   29  C13 UNL     1       5.147   0.409  -0.835  1.00  0.00    -0.001 C 
ENDBRANCH  20  23
ENDBRANCH   4  19
TORSDOF 5
