REMARK  4 active torsions:
REMARK  status: ('A' for Active; 'I' for Inactive)
REMARK    1  A    between atoms: C5_5  and  N1_6 
REMARK       I    between atoms: N1_6  and  C6_8 
REMARK       I    between atoms: C6_8  and  N2_10 
REMARK    2  A    between atoms: N2_10  and  C7_12 
REMARK    3  A    between atoms: N3_15  and  S1_16 
REMARK    4  A    between atoms: S1_16  and  N4_19 
ROOT
HETATM    1  C7  UNL     1      -0.625   0.201   0.151  1.00  0.00     0.088 C 
HETATM    2  C8  UNL     1      -1.345   0.792  -1.026  1.00  0.00     0.041 C 
HETATM    3  C9  UNL     1      -2.847   0.957  -0.787  1.00  0.00     0.110 C 
HETATM    4  N3  UNL     1      -3.111   0.518   0.545  1.00  0.00    -0.197 NA
HETATM    5  C14 UNL     1      -2.825  -0.910   0.590  1.00  0.00     0.110 C 
HETATM    6  C15 UNL     1      -1.318  -1.006   0.723  1.00  0.00     0.041 C 
ENDROOT
BRANCH   1   7
HETATM    7  N2  UNL     1       0.680  -0.226  -0.315  1.00  0.00    -0.338 N 
HETATM    8  C6  UNL     1       1.854   0.328   0.260  1.00  0.00     0.316 C 
HETATM    9  N1  UNL     1       3.128  -0.083  -0.190  1.00  0.00    -0.339 N 
HETATM   10  O1  UNL     1       1.777   1.183   1.169  1.00  0.00    -0.247 OA
ATOM     11  H1  UNL     1       3.215  -0.779  -0.930  1.00  0.00     0.164 HD
ATOM     12  H2  UNL     1       0.755  -0.924  -1.055  1.00  0.00     0.164 HD
BRANCH   9  13
HETATM   13  C5  UNL     1       4.308   0.497   0.413  1.00  0.00     0.086 C 
HETATM   14  C4  UNL     1       5.088  -0.642   1.057  1.00  0.00     0.026 C 
HETATM   15  C3  UNL     1       6.495  -0.188   1.374  1.00  0.00     0.006 C 
HETATM   16  C2  UNL     1       7.248   0.020   0.091  1.00  0.00    -0.019 C 
HETATM   17  C1  UNL     1       8.080  -1.194  -0.230  1.00  0.00     0.010 C 
HETATM   18  C17 UNL     1       6.283   0.276  -1.044  1.00  0.00     0.006 C 
HETATM   19  C16 UNL     1       5.167   1.212  -0.602  1.00  0.00     0.026 C 
ENDBRANCH   9  13
ENDBRANCH   1   7
BRANCH   4  20
HETATM   20  S1  UNL     1      -4.626   0.905   1.191  1.00  0.00     0.282 S 
HETATM   21  O2  UNL     1      -4.842   2.385   1.333  1.00  0.00    -0.194 OA
HETATM   22  O3  UNL     1      -4.714   0.296   2.585  1.00  0.00    -0.194 OA
BRANCH  20  23
HETATM   23  N4  UNL     1      -5.884   0.186   0.279  1.00  0.00    -0.198 NA
HETATM   24  C10 UNL     1      -5.969   0.599  -1.084  1.00  0.00     0.108 C 
HETATM   25  C11 UNL     1      -7.469   0.805  -1.344  1.00  0.00     0.017 C 
HETATM   26  C12 UNL     1      -8.141   0.041  -0.192  1.00  0.00     0.017 C 
HETATM   27  C13 UNL     1      -7.165   0.289   0.908  1.00  0.00     0.108 C 
ENDBRANCH  20  23
ENDBRANCH   4  20
TORSDOF 4
