REMARK  4 active torsions:
REMARK  status: ('A' for Active; 'I' for Inactive)
REMARK    1  A    between atoms: C3_3  and  N1_5 
REMARK       I    between atoms: N1_5  and  C5_7 
REMARK       I    between atoms: C5_7  and  N2_9 
REMARK       I    between atoms: N3_13  and  C9_14 
REMARK       I    between atoms: C9_14  and  N4_16 
REMARK    2  A    between atoms: N4_16  and  C10_18 
REMARK    3  A    between atoms: C10_18  and  C11_19 
REMARK    4  A    between atoms: C11_19  and  N5_20 
ROOT
HETATM    1  C1  UNL     1       3.027  -0.770   4.693  1.00  0.00     0.014 C 
HETATM    2  C2  UNL     1       3.629  -1.111   3.706  1.00  0.00    -0.092 C 
HETATM    3  C3  UNL     1       4.379  -1.529   2.521  1.00  0.00     0.161 C 
HETATM    4  C4  UNL     1       4.810  -2.968   2.696  1.00  0.00     0.046 C 
ENDROOT
BRANCH   3   5
HETATM    5  N1  UNL     1       3.544  -1.402   1.314  1.00  0.00    -0.327 N 
HETATM    6  C5  UNL     1       3.913  -0.568   0.264  1.00  0.00     0.338 C 
HETATM    7  O1  UNL     1       5.028   0.078   0.411  1.00  0.00    -0.245 OA
HETATM    8  N2  UNL     1       3.207  -0.359  -0.930  1.00  0.00    -0.229 N 
HETATM    9  C6  UNL     1       3.530   0.462  -2.129  1.00  0.00     0.140 A 
HETATM   10  N3  UNL     1       2.050  -0.684  -1.595  1.00  0.00    -0.229 N 
HETATM   11  C7  UNL     1       4.005  -0.357  -3.248  1.00  0.00     0.059 A 
HETATM   12  C8  UNL     1       2.582  -0.393  -2.925  1.00  0.00     0.140 A 
HETATM   13  C9  UNL     1       0.723  -1.120  -1.234  1.00  0.00     0.341 C 
HETATM   14  O2  UNL     1       0.433  -1.237  -0.027  1.00  0.00    -0.245 OA
HETATM   15  N4  UNL     1      -0.247  -1.415  -2.216  1.00  0.00    -0.317 N 
ATOM     16  H4  UNL     1       0.051  -1.335  -3.188  1.00  0.00     0.170 HD
ATOM     17  H1  UNL     1       2.678  -1.936   1.247  1.00  0.00     0.165 HD
BRANCH  15  18
HETATM   18  C10 UNL     1      -1.560  -1.801  -2.003  1.00  0.00     0.104 C 
BRANCH  18  19
HETATM   19  C11 UNL     1      -2.658  -0.958  -1.558  1.00  0.00     0.076 C 
BRANCH  19  20
HETATM   20  N5  UNL     1      -2.640  -0.181  -0.410  1.00  0.00    -0.291 NA
HETATM   21  C12 UNL     1      -1.916   1.039  -0.410  1.00  0.00     0.100 C 
HETATM   22  C13 UNL     1      -2.918   2.167  -0.276  1.00  0.00     0.004 C 
HETATM   23  C14 UNL     1      -2.686   2.924   1.034  1.00  0.00     0.006 C 
HETATM   24  C17 UNL     1      -4.257   1.516  -0.082  1.00  0.00     0.004 C 
HETATM   25  C15 UNL     1      -4.090   3.450   1.301  1.00  0.00     0.001 C 
HETATM   26  C16 UNL     1      -4.911   2.181   1.118  1.00  0.00     0.006 C 
HETATM   27  C18 UNL     1      -3.932   0.067   0.195  1.00  0.00     0.100 C 
ENDBRANCH  19  20
ENDBRANCH  18  19
ENDBRANCH  15  18
ENDBRANCH   3   5
TORSDOF 4
