REMARK  2 active torsions:
REMARK  status: ('A' for Active; 'I' for Inactive)
REMARK    1  A    between atoms: C7_15  and  C8_16 
REMARK    2  A    between atoms: C8_16  and  C9_17 
ROOT
HETATM    1  C1  UNL     1       0.356   2.954   0.061  1.00  0.00     0.068 C 
HETATM    2  C2  UNL     1      -0.366   1.634   0.012  1.00  0.00     0.014 A 
HETATM    3  N1  UNL     1      -1.705   1.531  -0.240  1.00  0.00    -0.345 N 
ATOM      4  H1  UNL     1      -2.314   2.321  -0.452  1.00  0.00     0.167 HD
HETATM    5  C3  UNL     1      -2.112   0.258  -0.172  1.00  0.00     0.126 A 
HETATM    6  N2  UNL     1      -3.317  -0.348  -0.323  1.00  0.00    -0.293 N 
ATOM      7  H2  UNL     1      -4.122   0.235  -0.551  1.00  0.00     0.172 HD
HETATM    8  C4  UNL     1      -3.510  -1.659  -0.191  1.00  0.00     0.328 A 
HETATM    9  O1  UNL     1      -4.672  -2.174  -0.345  1.00  0.00    -0.247 OA
HETATM   10  N3  UNL     1      -2.457  -2.421   0.109  1.00  0.00    -0.275 N 
ATOM     11  H3  UNL     1      -2.577  -3.428   0.217  1.00  0.00     0.173 HD
HETATM   12  C5  UNL     1      -1.219  -1.866   0.273  1.00  0.00     0.264 A 
HETATM   13  O2  UNL     1      -0.302  -2.639   0.553  1.00  0.00    -0.267 OA
HETATM   14  C6  UNL     1      -1.023  -0.517   0.134  1.00  0.00     0.084 A 
HETATM   15  C7  UNL     1       0.076   0.364   0.245  1.00  0.00    -0.014 A 
ENDROOT
BRANCH  15  16
HETATM   16  C8  UNL     1       1.437  -0.104   0.549  1.00  0.00     0.074 C 
BRANCH  16  17
HETATM   17  C9  UNL     1       2.424  -0.259  -0.530  1.00  0.00     0.076 C 
HETATM   18  C10 UNL     1       3.716  -0.820   0.157  1.00  0.00     0.040 C 
HETATM   19 BR1  UNL     1       3.082   1.417  -1.293  1.00  0.00    -0.073 Br
HETATM   20 BR2  UNL     1       1.955  -1.365  -2.005  1.00  0.00    -0.073 Br
ENDBRANCH  16  17
ENDBRANCH  15  16
TORSDOF 2
