REMARK  8 active torsions:
REMARK  status: ('A' for Active; 'I' for Inactive)
REMARK    1  A    between atoms: C4_7  and  C5_8 
REMARK    2  A    between atoms: C5_8  and  C6_9 
REMARK    3  A    between atoms: C7_12  and  N3_13 
REMARK    4  A    between atoms: N3_13  and  C8_15 
REMARK    5  A    between atoms: C8_15  and  N4_17 
REMARK    6  A    between atoms: N4_17  and  C9_18 
REMARK    7  A    between atoms: N4_17  and  C11_23 
REMARK    8  A    between atoms: C9_18  and  C10_19 
ROOT
HETATM    1  C6  UNL     1       1.134  -0.079  -0.104  1.00  0.00     0.076 A 
HETATM    2  N2  UNL     1       0.163  -1.062   0.077  1.00  0.00    -0.189 N 
ATOM      3  H2  UNL     1       0.320  -2.061  -0.055  1.00  0.00     0.184 HD
HETATM    4  C7  UNL     1      -0.976  -0.532   0.438  1.00  0.00     0.685 A 
HETATM    5  N5  UNL     1      -0.847   0.760   0.521  1.00  0.00    -0.190 N 
ATOM      6  H5  UNL     1      -1.576   1.424   0.780  1.00  0.00     0.184 HD
HETATM    7  C14 UNL     1       0.469   1.068   0.192  1.00  0.00     0.067 A 
HETATM    8  C15 UNL     1       0.902   2.289   0.415  1.00  0.00     0.046 C 
ENDROOT
BRANCH   4   9
HETATM    9  N3  UNL     1      -2.092  -1.174   0.686  1.00  0.00    -0.166 N 
ATOM     10  H3  UNL     1      -2.141  -2.190   0.607  1.00  0.00     0.186 HD
BRANCH   9  11
HETATM   11  C8  UNL     1      -3.261  -0.395   1.078  1.00  0.00     0.189 C 
HETATM   12  S1  UNL     1      -3.205   0.224   2.586  1.00  0.00    -0.040 SA
BRANCH  11  13
HETATM   13  N4  UNL     1      -4.301  -0.281   0.154  1.00  0.00    -0.344 N 
BRANCH  13  14
HETATM   14  C9  UNL     1      -4.114  -0.983  -1.128  1.00  0.00     0.243 C 
BRANCH  14  15
HETATM   15  C10 UNL     1      -5.038  -2.143  -1.303  1.00  0.00     0.403 C 
HETATM   16  F1  UNL     1      -4.730  -2.691  -2.558  1.00  0.00    -0.169 F 
HETATM   17  F2  UNL     1      -4.742  -3.146  -0.392  1.00  0.00    -0.169 F 
HETATM   18  F3  UNL     1      -6.361  -1.809  -1.260  1.00  0.00    -0.169 F 
ENDBRANCH  14  15
ENDBRANCH  13  14
BRANCH  13  19
HETATM   19  C11 UNL     1      -5.500   0.457   0.329  1.00  0.00     0.087 A 
HETATM   20  C12 UNL     1      -6.319   0.318   1.566  1.00  0.00     0.027 A 
HETATM   21  C13 UNL     1      -5.679   1.627   1.267  1.00  0.00     0.027 A 
ENDBRANCH  13  19
ENDBRANCH  11  13
ENDBRANCH   9  11
ENDBRANCH   4   9
BRANCH   1  22
HETATM   22  C5  UNL     1       2.346  -0.450  -0.354  1.00  0.00     0.051 C 
BRANCH  22  23
HETATM   23  C4  UNL     1       3.639   0.053  -0.640  1.00  0.00     0.056 A 
HETATM   24  C3  UNL     1       4.101   1.330  -1.120  1.00  0.00     0.259 A 
HETATM   25  N1  UNL     1       5.454   1.778  -1.091  1.00  0.00    -0.309 N 
HETATM   26  O1  UNL     1       3.260   2.134  -1.639  1.00  0.00    -0.267 OA
HETATM   27  C2  UNL     1       6.412   0.902  -0.559  1.00  0.00     0.098 A 
ATOM     28  H1  UNL     1       5.715   2.699  -1.443  1.00  0.00     0.170 HD
HETATM   29  C1  UNL     1       7.670   1.251  -0.502  1.00  0.00     0.063 C 
HETATM   30  N6  UNL     1       6.010  -0.376  -0.080  1.00  0.00    -0.346 N 
HETATM   31  C16 UNL     1       4.658  -0.761  -0.134  1.00  0.00     0.022 A 
ATOM     32  H6  UNL     1       6.705  -1.016   0.304  1.00  0.00     0.167 HD
HETATM   33  C17 UNL     1       4.305  -2.100   0.389  1.00  0.00     0.069 C 
ENDBRANCH  22  23
ENDBRANCH   1  22
TORSDOF 8
