REMARK  8 active torsions:
REMARK  status: ('A' for Active; 'I' for Inactive)
REMARK    1  A    between atoms: O1_2  and  C2_3 
REMARK    2  A    between atoms: C2_3  and  C3_4 
REMARK    3  A    between atoms: C5_6  and  O2_7 
REMARK    4  A    between atoms: N1_10  and  C7_11 
REMARK    5  A    between atoms: C7_11  and  C8_12 
REMARK    6  A    between atoms: C8_12  and  N2_13 
REMARK       I    between atoms: N2_13  and  C9_15 
REMARK       I    between atoms: C9_15  and  N3_17 
REMARK    7  A    between atoms: N3_17  and  C10_19 
REMARK    8  A    between atoms: C10_19  and  C11_20 
ROOT
HETATM    1  N2  UNL     1      -0.167  -0.017   0.686  1.00  0.00    -0.341 N 
ATOM      2  H2  UNL     1       0.057  -0.459  -0.206  1.00  0.00     0.164 HD
HETATM    3  C9  UNL     1      -1.496   0.388   0.990  1.00  0.00     0.316 C 
HETATM    4  O3  UNL     1      -1.762   0.936   2.097  1.00  0.00    -0.247 OA
HETATM    5  N3  UNL     1      -2.492   0.157   0.017  1.00  0.00    -0.340 N 
ATOM      6  H3  UNL     1      -2.254  -0.286  -0.870  1.00  0.00     0.164 HD
ENDROOT
BRANCH   1   7
HETATM    7  C8  UNL     1       0.859   0.218   1.683  1.00  0.00     0.154 C 
BRANCH   7   8
HETATM    8  C7  UNL     1       2.202  -0.238   1.272  1.00  0.00     0.292 C 
BRANCH   8   9
HETATM    9  N1  UNL     1       2.746   0.350   0.103  1.00  0.00     0.099 N 
HETATM   10  C3  UNL     1       4.065  -0.134  -0.241  1.00  0.00     0.249 C 
HETATM   11  C4  UNL     1       4.957   0.776   0.555  1.00  0.00     0.071 C 
HETATM   12  C5  UNL     1       4.280   2.121   0.459  1.00  0.00     0.148 C 
HETATM   13  C6  UNL     1       2.880   1.757   0.087  1.00  0.00     0.304 C 
BRANCH  10  14
HETATM   14  C2  UNL     1       4.255  -1.583   0.107  1.00  0.00     0.203 C 
BRANCH  14  15
HETATM   15  O1  UNL     1       5.485  -2.082  -0.203  1.00  0.00    -0.394 OA
HETATM   16  C1  UNL     1       5.840  -2.031  -1.523  1.00  0.00     0.201 C 
ENDBRANCH  14  15
ENDBRANCH  10  14
BRANCH  12  17
HETATM   17  O2  UNL     1       4.907   2.918  -0.518  1.00  0.00    -0.394 OA
ATOM     18  H2  UNL     1       4.481   3.765  -0.578  1.00  0.00     0.210 HD
ENDBRANCH  12  17
ENDBRANCH   8   9
ENDBRANCH   7   8
ENDBRANCH   1   7
BRANCH   5  19
HETATM   19  C10 UNL     1      -3.847   0.554   0.291  1.00  0.00     0.167 C 
BRANCH  19  20
HETATM   20  C11 UNL     1      -4.743   0.214  -0.883  1.00  0.00     0.119 C 
HETATM   21  F1  UNL     1      -4.283   0.879  -1.979  1.00  0.00    -0.241 F 
HETATM   22  C12 UNL     1      -4.911  -1.258  -1.066  1.00  0.00     0.045 C 
HETATM   23  C13 UNL     1      -6.398  -1.531  -0.902  1.00  0.00     0.004 C 
HETATM   24  C14 UNL     1      -7.030  -0.198  -1.242  1.00  0.00     0.004 C 
HETATM   25  C15 UNL     1      -6.128   0.770  -0.524  1.00  0.00     0.045 C 
ENDBRANCH  19  20
ENDBRANCH   5  19
TORSDOF 8
