REMARK  3 active torsions:
REMARK  status: ('A' for Active; 'I' for Inactive)
REMARK    1  A    between atoms: C1_2  and  N1_3 
REMARK    2  A    between atoms: N1_3  and  C2_5 
REMARK    3  A    between atoms: C2_5  and  C3_6 
ROOT
HETATM    1  C3  UNL     1       0.311  -0.805   0.227  1.00  0.00     0.029 C 
HETATM    2  C4  UNL     1       0.079   0.486   0.953  1.00  0.00     0.009 C 
HETATM    3  C5  UNL     1      -1.023   1.315   0.333  1.00  0.00     0.028 C 
HETATM    4  C6  UNL     1      -2.281   0.552   0.094  1.00  0.00     0.232 C 
HETATM    5  N2  UNL     1      -2.095  -0.859  -0.090  1.00  0.00    -0.075 N 
ATOM      6  H21 UNL     1      -2.870  -1.299  -0.586  1.00  0.00     0.277 HD
ATOM      7  H22 UNL     1      -2.175  -1.385   0.780  1.00  0.00     0.277 HD
HETATM    8  C7  UNL     1      -0.822  -1.056  -0.751  1.00  0.00     0.238 C 
ENDROOT
BRANCH   1   9
HETATM    9  C2  UNL     1       1.599  -0.815  -0.567  1.00  0.00     0.126 C 
BRANCH   9  10
HETATM   10  N1  UNL     1       2.763  -0.613   0.260  1.00  0.00    -0.390 N 
ATOM     11  H1  UNL     1       2.825  -1.114   1.147  1.00  0.00     0.159 HD
BRANCH  10  12
HETATM   12  C1  UNL     1       3.725   0.171  -0.073  1.00  0.00     0.165 C 
HETATM   13  S1  UNL     1       4.459   1.629  -0.134  1.00  0.00    -0.075 SA
ENDBRANCH  10  12
ENDBRANCH   9  10
ENDBRANCH   1   9
TORSDOF 3
