REMARK  3 active torsions:
REMARK  status: ('A' for Active; 'I' for Inactive)
REMARK       I    between atoms: C1_4  and  N3_6 
REMARK    1  A    between atoms: N3_6  and  C2_8 
REMARK    2  A    between atoms: C3_13  and  C4_14 
REMARK    3  A    between atoms: C5_15  and  C6_16 
ROOT
HETATM    1  C2  UNL     1       1.785  -0.841   0.058  1.00  0.00     0.702 A 
HETATM    2  N4  UNL     1       1.065   0.298  -0.012  1.00  0.00    -0.131 N 
ATOM      3  H4  UNL     1       1.520   1.210  -0.050  1.00  0.00     0.205 HD
HETATM    4  N5  UNL     1      -0.233   0.188  -0.029  1.00  0.00    -0.281 N 
ATOM      5  H5  UNL     1      -0.760   1.060  -0.082  1.00  0.00     0.187 HD
HETATM    6  C3  UNL     1      -0.951  -0.935   0.015  1.00  0.00     0.117 A 
HETATM    7  C7  UNL     1      -0.146  -2.098   0.087  1.00  0.00     0.287 A 
HETATM    8  O2  UNL     1      -0.685  -3.217   0.134  1.00  0.00    -0.265 OA
HETATM    9  N7  UNL     1       1.192  -2.042   0.107  1.00  0.00    -0.153 N 
ATOM     10  H7  UNL     1       1.748  -2.896   0.158  1.00  0.00     0.187 HD
ENDROOT
BRANCH   1  11
HETATM   11  N3  UNL     1       3.069  -0.786   0.077  1.00  0.00    -0.162 N 
HETATM   12  C1  UNL     1       3.810   0.414   0.030  1.00  0.00     0.200 C 
HETATM   13  N1  UNL     1       4.298   0.854  -1.062  1.00  0.00    -0.373 N 
HETATM   14  N2  UNL     1       4.018   1.148   1.222  1.00  0.00    -0.063 NA
ATOM     15  H12 UNL     1       4.834   1.721  -1.096  1.00  0.00     0.158 HD
ATOM     16  H11 UNL     1       4.148   0.325  -1.921  1.00  0.00     0.158 HD
ATOM     17  H3  UNL     1       3.585  -1.665   0.129  1.00  0.00     0.187 HD
ENDBRANCH   1  11
BRANCH   6  18
HETATM   18  C4  UNL     1      -2.386  -1.057  -0.004  1.00  0.00     0.042 C 
HETATM   19  C5  UNL     1      -3.336  -0.200  -0.063  1.00  0.00     0.073 C 
BRANCH  19  20
HETATM   20  C6  UNL     1      -3.296   1.216  -0.133  1.00  0.00     0.254 C 
HETATM   21  N6  UNL     1      -4.554   1.973  -0.193  1.00  0.00    -0.058 NA
HETATM   22  O1  UNL     1      -2.304   1.967  -0.153  1.00  0.00    -0.272 OA
ENDBRANCH  19  20
ENDBRANCH   6  18
TORSDOF 3
