REMARK  2 active torsions:
REMARK  status: ('A' for Active; 'I' for Inactive)
REMARK    1  A    between atoms: N1_1  and  C1_4 
REMARK    2  A    between atoms: N5_16  and  N6_18 
ROOT
HETATM    1  C1  UNL     1      -0.273   1.268   0.054  1.00  0.00     0.149 C 
HETATM    2  N2  UNL     1      -1.624   1.147  -0.006  1.00  0.00    -0.292 N 
ATOM      3  H2  UNL     1      -2.156   2.008   0.124  1.00  0.00     0.172 HD
HETATM    4  C2  UNL     1      -2.345   0.039  -0.214  1.00  0.00     0.329 C 
HETATM    5  O1  UNL     1      -3.594   0.106  -0.149  1.00  0.00    -0.246 OA
HETATM    6  N3  UNL     1      -1.908  -1.209  -0.498  1.00  0.00    -0.260 N 
ATOM      7  H3  UNL     1      -2.631  -1.875  -0.772  1.00  0.00     0.175 HD
HETATM    8  C3  UNL     1      -0.649  -1.698  -0.470  1.00  0.00     0.329 C 
HETATM    9  O2  UNL     1      -0.523  -2.949  -0.499  1.00  0.00    -0.246 OA
HETATM   10  N4  UNL     1       0.491  -0.994  -0.415  1.00  0.00    -0.290 N 
ATOM     11  H4  UNL     1       1.335  -1.538  -0.593  1.00  0.00     0.172 HD
HETATM   12  C4  UNL     1       0.710   0.324  -0.162  1.00  0.00     0.168 C 
HETATM   13  N5  UNL     1       1.902   0.760  -0.113  1.00  0.00    -0.289 N 
ATOM     14  H5  UNL     1       2.019   1.755   0.080  1.00  0.00     0.188 HD
ENDROOT
BRANCH   1  15
HETATM   15  N1  UNL     1       0.106   2.452   0.361  1.00  0.00    -0.382 N 
ATOM     16  H12 UNL     1      -0.621   3.150   0.521  1.00  0.00     0.157 HD
ATOM     17  H11 UNL     1       1.121   2.543   0.406  1.00  0.00     0.157 HD
ENDBRANCH   1  15
BRANCH  13  18
HETATM   18  N6  UNL     1       3.050   0.025  -0.294  1.00  0.00    -0.344 N 
ATOM     19  H62 UNL     1       2.913  -0.967  -0.486  1.00  0.00     0.176 HD
ATOM     20  H61 UNL     1       4.007   0.375  -0.255  1.00  0.00     0.176 HD
ENDBRANCH  13  18
TORSDOF 2
