REMARK  15 active torsions:
REMARK  status: ('A' for Active; 'I' for Inactive)
REMARK    1  A    between atoms: O1_2  and  C2_3 
REMARK    2  A    between atoms: C2_3  and  C3_5 
REMARK    3  A    between atoms: C3_5  and  N1_6 
REMARK    4  A    between atoms: C3_5  and  C17_43 
REMARK       I    between atoms: N1_6  and  C4_8 
REMARK    5  A    between atoms: C4_8  and  C5_10 
REMARK    6  A    between atoms: C8_13  and  N2_14 
REMARK    7  A    between atoms: N2_14  and  S1_16 
REMARK    8  A    between atoms: S1_16  and  N3_18 
REMARK    9  A    between atoms: S1_16  and  S2_22 
REMARK   10  A    between atoms: N3_18  and  O5_20 
REMARK   11  A    between atoms: S2_22  and  C9_23 
REMARK   12  A    between atoms: C9_23  and  C10_24 
REMARK       I    between atoms: C10_24  and  N4_26 
REMARK   13  A    between atoms: C11_27  and  N5_28 
REMARK   14  A    between atoms: C12_34  and  N7_35 
REMARK   15  A    between atoms: C13_38  and  C14_39 
ROOT
HETATM    1  N2  UNL     1      -1.639   0.368  -0.995  1.00  0.00    -0.290 N 
ATOM      2  H2  UNL     1      -2.341  -0.343  -0.790  1.00  0.00     0.178 HD
ENDROOT
BRANCH   1   3
HETATM    3  C8  UNL     1      -0.340   0.146  -0.501  1.00  0.00     0.055 A 
HETATM    4  C7  UNL     1       0.702   0.566  -1.312  1.00  0.00     0.032 A 
HETATM    5  C6  UNL     1       2.027   0.352  -0.913  1.00  0.00     0.019 A 
HETATM    6  C5  UNL     1       2.328  -0.265   0.268  1.00  0.00     0.033 A 
HETATM    7  C16 UNL     1       1.266  -0.666   1.046  1.00  0.00     0.034 A 
HETATM    8  C13 UNL     1      -0.064  -0.472   0.686  1.00  0.00     0.037 A 
BRANCH   6   9
HETATM    9  C4  UNL     1       3.692  -0.530   0.704  1.00  0.00     0.252 C 
HETATM   10  N1  UNL     1       4.733  -0.571  -0.230  1.00  0.00    -0.334 N 
ATOM     11  H1  UNL     1       4.500  -0.411  -1.210  1.00  0.00     0.164 HD
HETATM   12  O3  UNL     1       3.917  -0.719   1.912  1.00  0.00    -0.268 OA
BRANCH  10  13
HETATM   13  C3  UNL     1       6.122  -0.826   0.102  1.00  0.00     0.286 C 
BRANCH  13  14
HETATM   14  C2  UNL     1       6.924   0.394  -0.142  1.00  0.00     0.292 C 
HETATM   15  O2  UNL     1       6.358   1.437  -0.545  1.00  0.00    -0.262 OA
BRANCH  14  16
HETATM   16  O1  UNL     1       8.308   0.446   0.056  1.00  0.00    -0.324 OA
HETATM   17  C1  UNL     1       9.006   1.640  -0.188  1.00  0.00     0.213 C 
ENDBRANCH  14  16
ENDBRANCH  13  14
BRANCH  13  18
HETATM   18  C17 UNL     1       6.666  -1.989  -0.617  1.00  0.00     0.206 C 
HETATM   19  O8  UNL     1       5.947  -2.678  -1.387  1.00  0.00    -0.646 OA
HETATM   20  O9  UNL     1       7.990  -2.376  -0.479  1.00  0.00    -0.646 OA
ENDBRANCH  13  18
ENDBRANCH  10  13
ENDBRANCH   6   9
BRANCH   8  21
HETATM   21  C14 UNL     1      -1.103  -0.870   1.611  1.00  0.00     0.158 C 
HETATM   22  C15 UNL     1      -0.778  -1.584   2.851  1.00  0.00     0.097 C 
HETATM   23  O7  UNL     1      -2.301  -0.609   1.362  1.00  0.00    -0.293 OA
ENDBRANCH   8  21
ENDBRANCH   1   3
BRANCH   1  24
HETATM   24  S1  UNL     1      -2.139   1.697  -1.891  1.00  0.00     0.187 S 
HETATM   25  O4  UNL     1      -1.406   2.956  -1.649  1.00  0.00    -0.215 OA
BRANCH  24  26
HETATM   26  N3  UNL     1      -1.901   1.369  -3.407  1.00  0.00    -0.202 N 
ATOM     27  H3  UNL     1      -1.565   0.448  -3.689  1.00  0.00     0.206 HD
BRANCH  26  28
HETATM   28  O5  UNL     1      -2.149   2.330  -4.342  1.00  0.00    -0.281 OA
ATOM     29  H5  UNL     1      -2.005   2.131  -5.260  1.00  0.00     0.245 HD
ENDBRANCH  26  28
ENDBRANCH  24  26
BRANCH  24  30
HETATM   30  S2  UNL     1      -3.991   2.229  -1.296  1.00  0.00    -0.026 SA
BRANCH  30  31
HETATM   31  C9  UNL     1      -5.209   1.012  -1.124  1.00  0.00     0.194 C 
BRANCH  31  32
HETATM   32  C10 UNL     1      -5.789   0.967   0.216  1.00  0.00     0.243 C 
HETATM   33  O6  UNL     1      -5.345   1.781   1.064  1.00  0.00    -0.272 OA
HETATM   34  N4  UNL     1      -6.845   0.047   0.596  1.00  0.00    -0.230 N 
HETATM   35  C11 UNL     1      -7.285  -0.908  -0.189  1.00  0.00     0.195 A 
HETATM   36  C12 UNL     1      -7.449   0.238   1.781  1.00  0.00     0.170 A 
HETATM   37  N6  UNL     1      -8.378  -1.636   0.322  1.00  0.00    -0.295 N 
HETATM   38  S3  UNL     1      -8.659  -0.943   1.785  1.00  0.00     0.025 SA
ATOM     39  H6  UNL     1      -8.877  -2.411  -0.114  1.00  0.00     0.177 HD
BRANCH  35  40
HETATM   40  N5  UNL     1      -6.893  -1.304  -1.331  1.00  0.00    -0.370 N 
ATOM     41  H52 UNL     1      -6.102  -0.777  -1.701  1.00  0.00     0.159 HD
ATOM     42  H51 UNL     1      -7.235  -2.046  -1.941  1.00  0.00     0.159 HD
ENDBRANCH  35  40
BRANCH  36  43
HETATM   43  N7  UNL     1      -7.166   1.139   2.703  1.00  0.00    -0.378 N 
ATOM     44  H72 UNL     1      -6.436   1.851   2.701  1.00  0.00     0.158 HD
ATOM     45  H71 UNL     1      -7.624   1.284   3.603  1.00  0.00     0.158 HD
ENDBRANCH  36  43
ENDBRANCH  31  32
ENDBRANCH  30  31
ENDBRANCH  24  30
ENDBRANCH   1  24
TORSDOF 15
