REMARK  2 active torsions:
REMARK  status: ('A' for Active; 'I' for Inactive)
REMARK       I    between atoms: C1_2  and  N2_4 
REMARK    1  A    between atoms: N2_4  and  C2_6 
REMARK    2  A    between atoms: C2_6  and  C3_8 
ROOT
HETATM    1  C3  UNL     1      -0.735  -0.107  -0.429  1.00  0.00     0.014 A 
HETATM    2  C4  UNL     1      -1.206  -0.449   0.827  1.00  0.00     0.013 A 
HETATM    3  C5  UNL     1      -2.380   0.070   1.335  1.00  0.00     0.001 A 
HETATM    4  C6  UNL     1      -3.059   0.952   0.517  1.00  0.00     0.003 A 
HETATM    5  C7  UNL     1      -2.597   1.300  -0.738  1.00  0.00     0.043 A 
HETATM    6  C8  UNL     1      -1.426   0.770  -1.223  1.00  0.00     0.125 A 
HETATM    7  F1  UNL     1      -0.938   1.090  -2.458  1.00  0.00    -0.205 F 
ENDROOT
BRANCH   1   8
HETATM    8  C2  UNL     1       0.530  -0.706  -0.902  1.00  0.00     0.194 C 
HETATM    9 BR1  UNL     1       0.137  -2.578  -1.304  1.00  0.00    -0.063 Br
BRANCH   8  10
HETATM   10  N2  UNL     1       1.572  -0.704   0.070  1.00  0.00    -0.327 N 
HETATM   11  C1  UNL     1       2.875  -0.172  -0.115  1.00  0.00     0.329 C 
HETATM   12  N1  UNL     1       3.885  -0.176   0.844  1.00  0.00    -0.040 NA
HETATM   13  O1  UNL     1       3.111   0.344  -1.261  1.00  0.00    -0.251 OA
ATOM     14  H2  UNL     1       1.364  -1.121   0.977  1.00  0.00     0.165 HD
ENDBRANCH   8  10
ENDBRANCH   1   8
TORSDOF 2
