REMARK  8 active torsions:
REMARK  status: ('A' for Active; 'I' for Inactive)
REMARK    1  A    between atoms: C2_2  and  C3_3 
REMARK    2  A    between atoms: C3_3  and  C4_4 
REMARK    3  A    between atoms: C8_8  and  O1_9 
REMARK    4  A    between atoms: C9_12  and  C10_13 
REMARK    5  A    between atoms: C13_20  and  C14_21 
REMARK    6  A    between atoms: C15_22  and  O4_23 
REMARK    7  A    between atoms: C18_26  and  O5_27 
REMARK    8  A    between atoms: C20_30  and  O6_31 
ROOT
HETATM    1  C4  UNL     1      -0.004   2.272   0.088  1.00  0.00    -0.017 C 
HETATM    2  C5  UNL     1      -0.634   1.116  -0.072  1.00  0.00    -0.045 A 
HETATM    3  C6  UNL     1      -1.736   1.063  -1.068  1.00  0.00     0.083 A 
HETATM    4  C7  UNL     1      -2.369  -0.257  -1.158  1.00  0.00     0.040 A 
HETATM    5  C8  UNL     1      -3.416  -0.686  -1.919  1.00  0.00     0.193 A 
HETATM    6  O2  UNL     1      -3.639  -1.951  -1.671  1.00  0.00    -0.283 OA
HETATM    7  C9  UNL     1      -2.788  -2.384  -0.779  1.00  0.00     0.134 A 
HETATM    8  C12 UNL     1      -1.960  -1.343  -0.422  1.00  0.00     0.117 A 
HETATM    9  O3  UNL     1      -0.910  -1.218   0.448  1.00  0.00    -0.333 OA
HETATM   10  C13 UNL     1      -0.211  -0.039   0.738  1.00  0.00     0.197 A 
ENDROOT
BRANCH  10  11
HETATM   11  C14 UNL     1       1.277  -0.259   0.674  1.00  0.00     0.042 A 
HETATM   12  C15 UNL     1       2.004  -0.519   1.817  1.00  0.00     0.082 A 
HETATM   13  C17 UNL     1       3.361  -0.717   1.734  1.00  0.00     0.074 A 
HETATM   14  C18 UNL     1       4.041  -0.664   0.520  1.00  0.00     0.071 A 
HETATM   15  C19 UNL     1       3.319  -0.405  -0.617  1.00  0.00     0.074 A 
HETATM   16  C20 UNL     1       1.941  -0.203  -0.543  1.00  0.00     0.082 A 
BRANCH  12  17
HETATM   17  O4  UNL     1       1.376  -0.583   3.052  1.00  0.00    -0.355 OA
HETATM   18  C16 UNL     1       2.105  -0.849   4.235  1.00  0.00     0.210 C 
ENDBRANCH  12  17
BRANCH  14  19
HETATM   19  O5  UNL     1       5.409  -0.859   0.406  1.00  0.00    -0.361 OA
ATOM     20  H5  UNL     1       5.873  -0.823  -0.422  1.00  0.00     0.217 HD
ENDBRANCH  14  19
BRANCH  16  21
HETATM   21  O6  UNL     1       1.227   0.057  -1.701  1.00  0.00    -0.355 OA
HETATM   22  C21 UNL     1       1.884   0.117  -2.947  1.00  0.00     0.210 C 
ENDBRANCH  16  21
ENDBRANCH  10  11
BRANCH   1  23
HETATM   23  C3  UNL     1      -0.369   3.487  -0.690  1.00  0.00     0.053 C 
BRANCH  23  24
HETATM   24  C2  UNL     1      -0.792   4.601   0.191  1.00  0.00    -0.033 C 
HETATM   25  C1  UNL     1      -1.984   5.177   0.147  1.00  0.00     0.007 C 
ENDBRANCH  23  24
ENDBRANCH   1  23
BRANCH   7  26
HETATM   26  C10 UNL     1      -2.743  -3.739  -0.266  1.00  0.00     0.036 C 
HETATM   27  C11 UNL     1      -1.739  -4.136   0.746  1.00  0.00     0.070 C 
HETATM   28  N1  UNL     1      -3.574  -4.631  -0.677  1.00  0.00    -0.400 N 
ATOM     29  H12 UNL     1      -4.266  -4.357  -1.375  1.00  0.00     0.156 HD
ATOM     30  H11 UNL     1      -3.542  -5.584  -0.316  1.00  0.00     0.156 HD
ENDBRANCH   7  26
BRANCH   5  31
HETATM   31  O1  UNL     1      -4.153   0.073  -2.826  1.00  0.00    -0.340 OA
ATOM     32  H1  UNL     1      -4.882  -0.226  -3.356  1.00  0.00     0.220 HD
ENDBRANCH   5  31
TORSDOF 8
