REMARK  14 active torsions:
REMARK  status: ('A' for Active; 'I' for Inactive)
REMARK    1  A    between atoms: C2_2  and  C3_3 
REMARK    2  A    between atoms: C3_3  and  C4_4 
REMARK    3  A    between atoms: C4_4  and  C5_5 
REMARK    4  A    between atoms: C5_5  and  C6_6 
REMARK    5  A    between atoms: C6_6  and  N1_7 
REMARK    6  A    between atoms: N1_7  and  C7_9 
REMARK    7  A    between atoms: C7_9  and  N2_11 
REMARK    8  A    between atoms: N2_11  and  C8_13 
REMARK    9  A    between atoms: C8_13  and  C9_14 
REMARK   10  A    between atoms: C9_14  and  C10_15 
REMARK   11  A    between atoms: C10_15  and  C11_16 
REMARK   12  A    between atoms: C11_16  and  N3_17 
REMARK   13  A    between atoms: N3_17  and  S2_19 
REMARK   14  A    between atoms: S2_19  and  C12_22 
ROOT
HETATM    1  C10 UNL     1      -0.879  -1.951  -1.139  1.00  0.00     0.022 C 
ENDROOT
BRANCH   1   2
HETATM    2  C9  UNL     1       0.178  -2.470  -0.243  1.00  0.00     0.021 C 
BRANCH   2   3
HETATM    3  C8  UNL     1       0.703  -1.544   0.803  1.00  0.00     0.122 C 
BRANCH   3   4
HETATM    4  N2  UNL     1       1.804  -2.167   1.552  1.00  0.00    -0.367 N 
ATOM      5  H2  UNL     1       1.616  -2.463   2.510  1.00  0.00     0.161 HD
BRANCH   4   6
HETATM    6  C7  UNL     1       3.099  -2.385   1.045  1.00  0.00     0.167 C 
HETATM    7  S1  UNL     1       4.199  -3.152   1.996  1.00  0.00    -0.041 SA
BRANCH   6   8
HETATM    8  N1  UNL     1       3.494  -1.993  -0.251  1.00  0.00    -0.367 N 
ATOM      9  H1  UNL     1       2.793  -1.530  -0.830  1.00  0.00     0.161 HD
BRANCH   8  10
HETATM   10  C6  UNL     1       4.794  -2.187  -0.828  1.00  0.00     0.122 C 
BRANCH  10  11
HETATM   11  C5  UNL     1       5.795  -1.293  -0.190  1.00  0.00     0.020 C 
BRANCH  11  12
HETATM   12  C4  UNL     1       5.377   0.153  -0.386  1.00  0.00     0.005 C 
BRANCH  12  13
HETATM   13  C3  UNL     1       6.384   1.070   0.255  1.00  0.00     0.026 C 
BRANCH  13  14
HETATM   14  C2  UNL     1       5.915   2.459   0.026  1.00  0.00    -0.037 C 
HETATM   15  C1  UNL     1       6.683   3.308  -0.640  1.00  0.00     0.007 C 
ENDBRANCH  13  14
ENDBRANCH  12  13
ENDBRANCH  11  12
ENDBRANCH  10  11
ENDBRANCH   8  10
ENDBRANCH   6   8
ENDBRANCH   4   6
ENDBRANCH   3   4
ENDBRANCH   2   3
ENDBRANCH   1   2
BRANCH   1  16
HETATM   16  C11 UNL     1      -2.135  -1.529  -0.479  1.00  0.00     0.132 C 
BRANCH  16  17
HETATM   17  N3  UNL     1      -1.920  -0.427   0.409  1.00  0.00    -0.319 N 
ATOM     18  H3  UNL     1      -1.023   0.027   0.580  1.00  0.00     0.172 HD
BRANCH  17  19
HETATM   19  S2  UNL     1      -3.417   0.012   1.143  1.00  0.00     0.230 S 
HETATM   20  O1  UNL     1      -3.936  -1.177   1.903  1.00  0.00    -0.206 OA
HETATM   21  O2  UNL     1      -3.228   1.162   2.093  1.00  0.00    -0.206 OA
BRANCH  19  22
HETATM   22  C12 UNL     1      -4.625   0.536  -0.055  1.00  0.00     0.129 C 
HETATM   23  C13 UNL     1      -5.916   0.734   0.702  1.00  0.00     0.027 C 
HETATM   24  C14 UNL     1      -6.967   1.456  -0.060  1.00  0.00     0.080 C 
HETATM   25  C15 UNL     1      -6.419   2.402  -1.102  1.00  0.00     0.243 C 
HETATM   26  F1  UNL     1      -6.211   1.650  -2.253  1.00  0.00    -0.206 F 
HETATM   27  F2  UNL     1      -7.240   3.452  -1.363  1.00  0.00    -0.206 F 
HETATM   28  C16 UNL     1      -5.074   2.932  -0.619  1.00  0.00     0.080 C 
HETATM   29  C17 UNL     1      -4.110   1.746  -0.748  1.00  0.00     0.027 C 
ENDBRANCH  19  22
ENDBRANCH  17  19
ENDBRANCH  16  17
ENDBRANCH   1  16
TORSDOF 14
