REMARK  6 active torsions:
REMARK  status: ('A' for Active; 'I' for Inactive)
REMARK    1  A    between atoms: C5_7  and  N2_8 
REMARK    2  A    between atoms: N2_8  and  C6_10 
REMARK    3  A    between atoms: C6_10  and  C7_11 
REMARK    4  A    between atoms: C7_11  and  C8_12 
REMARK    5  A    between atoms: C8_12  and  N3_13 
REMARK    6  A    between atoms: C8_12  and  C9_17 
ROOT
HETATM    1  C6  UNL     1       0.468  -1.160   0.060  1.00  0.00     0.140 C 
ENDROOT
BRANCH   1   2
HETATM    2  N2  UNL     1       1.228  -0.040  -0.401  1.00  0.00    -0.226 N 
ATOM      3  H2  UNL     1       0.776   0.740  -0.878  1.00  0.00     0.177 HD
BRANCH   2   4
HETATM    4  C5  UNL     1       2.510  -0.045  -0.195  1.00  0.00     0.678 A 
HETATM    5  N1  UNL     1       3.126  -1.061   0.432  1.00  0.00    -0.202 N 
HETATM    6  C4  UNL     1       4.449  -1.111   0.668  1.00  0.00     0.108 A 
ATOM      7  H1  UNL     1       2.554  -1.844   0.749  1.00  0.00     0.183 HD
HETATM    8  C3  UNL     1       5.230  -0.057   0.244  1.00  0.00     0.042 A 
HETATM    9  C2  UNL     1       4.627   0.994  -0.398  1.00  0.00     0.024 A 
HETATM   10  C1  UNL     1       5.469   2.145  -0.862  1.00  0.00     0.068 C 
HETATM   11  N4  UNL     1       3.298   0.975  -0.599  1.00  0.00    -0.196 N 
ATOM     12  H4  UNL     1       2.866   1.765  -1.077  1.00  0.00     0.184 HD
ENDBRANCH   2   4
ENDBRANCH   1   2
BRANCH   1  13
HETATM   13  C7  UNL     1      -0.992  -1.067  -0.224  1.00  0.00     0.058 C 
BRANCH  13  14
HETATM   14  C8  UNL     1      -1.647   0.132   0.411  1.00  0.00     0.218 C 
BRANCH  14  15
HETATM   15  N3  UNL     1      -1.509   0.109   1.856  1.00  0.00    -0.071 N 
ATOM     16  H33 UNL     1      -1.862  -0.763   2.251  1.00  0.00     0.275 HD
ATOM     17  H32 UNL     1      -0.532   0.025   2.137  1.00  0.00     0.275 HD
ATOM     18  H31 UNL     1      -1.952   0.921   2.286  1.00  0.00     0.275 HD
ENDBRANCH  14  15
BRANCH  14  19
HETATM   19  C9  UNL     1      -3.078   0.131   0.061  1.00  0.00    -0.028 A 
HETATM   20  C10 UNL     1      -3.609   0.976  -0.909  1.00  0.00     0.009 A 
HETATM   21  C11 UNL     1      -4.966   0.925  -1.192  1.00  0.00     0.001 A 
HETATM   22  C12 UNL     1      -5.799   0.059  -0.536  1.00  0.00     0.000 A 
HETATM   23  C13 UNL     1      -5.291  -0.780   0.424  1.00  0.00     0.001 A 
HETATM   24  C14 UNL     1      -3.936  -0.729   0.706  1.00  0.00     0.009 A 
ENDBRANCH  14  19
ENDBRANCH  13  14
ENDBRANCH   1  13
TORSDOF 6
