REMARK  3 active torsions:
REMARK  status: ('A' for Active; 'I' for Inactive)
REMARK    1  A    between atoms: C2_2  and  C3_3 
REMARK    2  A    between atoms: C3_3  and  C4_4 
REMARK    3  A    between atoms: C6_7  and  C7_8 
ROOT
HETATM    1  C4  UNL     1      -2.281  -0.576  -0.880  1.00  0.00     0.063 C 
HETATM    2  C5  UNL     1      -1.639  -1.476  -1.920  1.00  0.00     0.046 C 
HETATM    3  O1  UNL     1      -2.911   0.370  -1.788  1.00  0.00    -0.363 OA
HETATM    4  C6  UNL     1      -2.617   1.620  -1.403  1.00  0.00     0.231 C 
HETATM    5  C8  UNL     1      -1.424   1.606  -0.527  1.00  0.00    -0.001 C 
HETATM    6  C9  UNL     1      -1.454   2.652   0.546  1.00  0.00     0.019 C 
HETATM    7  C10 UNL     1      -0.237   1.938  -1.400  1.00  0.00     0.013 C 
HETATM    8  C11 UNL     1       1.092   1.614  -0.752  1.00  0.00     0.007 C 
HETATM    9  C12 UNL     1       1.062   0.139  -0.515  1.00  0.00    -0.001 C 
HETATM   10  C13 UNL     1      -0.069  -0.312   0.366  1.00  0.00    -0.002 C 
HETATM   11  C14 UNL     1       0.229  -0.122   1.838  1.00  0.00     0.006 C 
HETATM   12  C15 UNL     1       1.620   0.241   2.176  1.00  0.00     0.006 C 
HETATM   13  C16 UNL     1       2.667  -0.423   1.333  1.00  0.00     0.001 C 
HETATM   14  C17 UNL     1       3.980   0.312   1.641  1.00  0.00     0.083 C 
HETATM   15  C18 UNL     1       5.091  -0.248   0.827  1.00  0.00     0.127 C 
HETATM   16  O4  UNL     1       6.150  -0.571   1.292  1.00  0.00    -0.298 OA
HETATM   17  C19 UNL     1       4.824  -0.395  -0.641  1.00  0.00     0.079 C 
HETATM   18  C20 UNL     1       3.484   0.197  -0.916  1.00  0.00     0.017 C 
HETATM   19  C21 UNL     1       2.361  -0.469  -0.122  1.00  0.00    -0.036 C 
HETATM   20  C22 UNL     1       2.342  -1.926  -0.571  1.00  0.00     0.016 C 
HETATM   21  C23 UNL     1      -1.425   0.186   0.002  1.00  0.00     0.035 C 
ENDROOT
BRANCH   1  22
HETATM   22  C3  UNL     1      -3.483  -1.292  -0.355  1.00  0.00     0.038 C 
BRANCH  22  23
HETATM   23  C2  UNL     1      -3.385  -2.611   0.258  1.00  0.00    -0.002 C 
HETATM   24  C1  UNL     1      -2.582  -2.667   1.510  1.00  0.00     0.005 C 
ENDBRANCH  22  23
ENDBRANCH   1  22
BRANCH   4  25
HETATM   25  C7  UNL     1      -3.797   2.341  -0.935  1.00  0.00     0.204 C 
HETATM   26  O2  UNL     1      -4.909   1.760  -0.985  1.00  0.00    -0.646 OA
HETATM   27  O3  UNL     1      -3.842   3.630  -0.427  1.00  0.00    -0.646 OA
ENDBRANCH   4  25
TORSDOF 3
