REMARK  3 active torsions:
REMARK  status: ('A' for Active; 'I' for Inactive)
REMARK    1  A    between atoms: C9_15  and  C10_16 
REMARK    2  A    between atoms: C11_17  and  C12_18 
REMARK    3  A    between atoms: C12_18  and  O5_19 
ROOT
HETATM    1  O1  UNL     1      -2.537  -2.627   0.887  1.00  0.00    -0.217 OA
HETATM    2  S1  UNL     1      -2.171  -1.628  -0.190  1.00  0.00     0.209 S 
HETATM    3  O2  UNL     1      -2.399  -2.332  -1.517  1.00  0.00    -0.217 OA
HETATM    4  C1  UNL     1      -3.287  -0.294  -0.115  1.00  0.00     0.086 A 
HETATM    5  C2  UNL     1      -4.474  -0.374  -0.767  1.00  0.00     0.025 A 
HETATM    6  C3  UNL     1      -5.331   0.719  -0.675  1.00  0.00     0.002 A 
HETATM    7  C4  UNL     1      -4.974   1.835   0.054  1.00  0.00     0.002 A 
HETATM    8  C5  UNL     1      -3.746   1.900   0.720  1.00  0.00     0.025 A 
HETATM    9  C6  UNL     1      -2.914   0.808   0.615  1.00  0.00     0.086 A 
HETATM   10  S2  UNL     1      -1.374   0.848   1.430  1.00  0.00     0.209 S 
HETATM   11  O3  UNL     1      -0.927   2.302   1.483  1.00  0.00    -0.217 OA
HETATM   12  O4  UNL     1      -1.588   0.372   2.848  1.00  0.00    -0.217 OA
HETATM   13  C7  UNL     1      -0.161  -0.044   0.596  1.00  0.00     0.086 A 
HETATM   14  C8  UNL     1       1.152   0.356   0.660  1.00  0.00     0.036 A 
HETATM   15  C9  UNL     1       2.135  -0.373  -0.020  1.00  0.00    -0.035 A 
HETATM   16  C13 UNL     1       1.787  -1.486  -0.750  1.00  0.00     0.013 A 
HETATM   17  C14 UNL     1       0.449  -1.862  -0.793  1.00  0.00     0.026 A 
HETATM   18  C15 UNL     1      -0.516  -1.156  -0.132  1.00  0.00     0.086 A 
ENDROOT
BRANCH  15  19
HETATM   19  C10 UNL     1       3.532   0.070   0.060  1.00  0.00     0.009 C 
HETATM   20  C11 UNL     1       4.515  -0.537  -0.533  1.00  0.00    -0.000 C 
BRANCH  20  21
HETATM   21  C12 UNL     1       5.900   0.000  -0.384  1.00  0.00     0.191 C 
BRANCH  21  22
HETATM   22  O5  UNL     1       5.897   1.142   0.425  1.00  0.00    -0.397 OA
ATOM     23  H5  UNL     1       6.778   1.484   0.520  1.00  0.00     0.209 HD
ENDBRANCH  21  22
ENDBRANCH  20  21
ENDBRANCH  15  19
TORSDOF 3
