REMARK  4 active torsions:
REMARK  status: ('A' for Active; 'I' for Inactive)
REMARK    1  A    between atoms: O1_2  and  C2_3 
REMARK    2  A    between atoms: C2_3  and  C3_5 
REMARK    3  A    between atoms: C3_5  and  O3_6 
REMARK    4  A    between atoms: C16_21  and  O5_22 
ROOT
HETATM    1  C3  UNL     1       1.453  -0.260  -0.274  1.00  0.00     0.220 C 
HETATM    2  C4  UNL     1       0.321   0.713  -0.123  1.00  0.00    -0.017 C 
HETATM    3  C5  UNL     1      -0.759   0.147  -0.338  1.00  0.00    -0.033 C 
HETATM    4  C6  UNL     1      -2.009   0.881  -0.243  1.00  0.00     0.030 C 
HETATM    5  C7  UNL     1      -1.515   1.934   0.737  1.00  0.00     0.023 C 
HETATM    6  C8  UNL     1      -0.032   2.110   0.228  1.00  0.00    -0.020 C 
HETATM    7  C9  UNL     1       0.804   2.700   1.303  1.00  0.00     0.019 C 
HETATM    8  C10 UNL     1      -0.075   2.976  -0.987  1.00  0.00     0.019 C 
HETATM    9  C11 UNL     1      -2.496  -0.483   0.338  1.00  0.00    -0.005 C 
HETATM   10  C12 UNL     1      -3.863  -0.763  -0.194  1.00  0.00     0.019 C 
HETATM   11  C13 UNL     1      -2.320  -0.663   1.783  1.00  0.00     0.019 C 
HETATM   12  C14 UNL     1      -1.347  -1.154  -0.512  1.00  0.00     0.092 C 
HETATM   13  C15 UNL     1      -1.761  -1.667  -1.820  1.00  0.00     0.052 C 
HETATM   14  O4  UNL     1      -0.387  -1.909   0.222  1.00  0.00    -0.341 OA
HETATM   15  C16 UNL     1       0.894  -1.643  -0.321  1.00  0.00     0.309 C 
ENDROOT
BRANCH   1  16
HETATM   16  C2  UNL     1       2.423  -0.176   0.816  1.00  0.00     0.303 C 
HETATM   17  O2  UNL     1       2.115  -0.449   2.004  1.00  0.00    -0.261 OA
BRANCH  16  18
HETATM   18  O1  UNL     1       3.729   0.213   0.563  1.00  0.00    -0.324 OA
HETATM   19  C1  UNL     1       4.703   0.304   1.608  1.00  0.00     0.213 C 
ENDBRANCH  16  18
ENDBRANCH   1  16
BRANCH   1  20
HETATM   20  O3  UNL     1       2.078   0.101  -1.480  1.00  0.00    -0.371 OA
ATOM     21  H3  UNL     1       1.447   0.046  -2.189  1.00  0.00     0.211 HD
ENDBRANCH   1  20
BRANCH  15  22
HETATM   22  O5  UNL     1       0.831  -2.154  -1.616  1.00  0.00    -0.362 OA
HETATM   23  C17 UNL     1       1.566  -3.294  -1.802  1.00  0.00     0.205 C 
ENDBRANCH  15  22
TORSDOF 4
