REMARK  4 active torsions:
REMARK  status: ('A' for Active; 'I' for Inactive)
REMARK    1  A    between atoms: O1_2  and  C2_3 
REMARK       I    between atoms: C2_3  and  N1_5 
REMARK    2  A    between atoms: N1_5  and  C3_7 
REMARK    3  A    between atoms: C11_15  and  C12_16 
REMARK       I    between atoms: C12_16  and  N2_18 
REMARK    4  A    between atoms: N2_18  and  C13_20 
ROOT
HETATM    1  C3  UNL     1       2.914   0.167  -0.480  1.00  0.00     0.091 C 
HETATM    2  C4  UNL     1       2.864   1.274  -1.497  1.00  0.00     0.030 C 
HETATM    3  C5  UNL     1       1.494   1.774  -1.790  1.00  0.00    -0.011 C 
HETATM    4  C6  UNL     1       0.938   1.091  -3.048  1.00  0.00     0.010 C 
HETATM    5  C7  UNL     1       0.522  -0.254  -2.468  1.00  0.00     0.004 C 
HETATM    6  C8  UNL     1       1.777  -1.091  -2.334  1.00  0.00     0.012 C 
HETATM    7  C9  UNL     1       2.147  -1.048  -0.884  1.00  0.00     0.010 C 
HETATM    8  C10 UNL     1       0.795  -0.996  -0.206  1.00  0.00     0.026 C 
HETATM    9  C11 UNL     1       0.058   0.003  -1.071  1.00  0.00     0.045 C 
HETATM   10  C19 UNL     1       0.461   1.421  -0.778  1.00  0.00     0.024 C 
ENDROOT
BRANCH   9  11
HETATM   11  C12 UNL     1      -1.392  -0.221  -0.935  1.00  0.00     0.227 C 
HETATM   12  O3  UNL     1      -2.060  -0.584  -1.942  1.00  0.00    -0.273 OA
HETATM   13  N2  UNL     1      -2.086  -0.045   0.293  1.00  0.00    -0.356 N 
ATOM     14  H2  UNL     1      -1.564   0.249   1.119  1.00  0.00     0.162 HD
BRANCH  13  15
HETATM   15  C13 UNL     1      -3.516  -0.271   0.406  1.00  0.00     0.084 C 
HETATM   16  C14 UNL     1      -3.736  -1.346   1.405  1.00  0.00     0.025 C 
HETATM   17  C15 UNL     1      -5.090  -1.402   2.030  1.00  0.00     0.002 C 
HETATM   18  C16 UNL     1      -5.969  -0.228   1.671  1.00  0.00     0.000 C 
HETATM   19  C17 UNL     1      -5.107   1.011   1.875  1.00  0.00     0.002 C 
HETATM   20  C18 UNL     1      -4.155   1.047   0.726  1.00  0.00     0.025 C 
ENDBRANCH  13  15
ENDBRANCH   9  11
BRANCH   1  21
HETATM   21  N1  UNL     1       4.266  -0.197  -0.207  1.00  0.00    -0.332 N 
HETATM   22  C2  UNL     1       4.923  -0.043   1.021  1.00  0.00     0.360 C 
HETATM   23  O2  UNL     1       4.309   0.454   1.998  1.00  0.00    -0.239 OA
ATOM     24  H1  UNL     1       4.802  -0.605  -0.973  1.00  0.00     0.165 HD
BRANCH  22  25
HETATM   25  O1  UNL     1       6.242  -0.418   1.217  1.00  0.00    -0.309 OA
HETATM   26  C1  UNL     1       6.913  -0.273   2.432  1.00  0.00     0.215 C 
ENDBRANCH  22  25
ENDBRANCH   1  21
TORSDOF 4
