REMARK  8 active torsions:
REMARK  status: ('A' for Active; 'I' for Inactive)
REMARK    1  A    between atoms: C2_2  and  C4_4 
REMARK    2  A    between atoms: C4_4  and  O2_6 
REMARK    3  A    between atoms: O2_6  and  C5_7 
REMARK    4  A    between atoms: C7_10  and  O4_12 
REMARK    5  A    between atoms: O4_12  and  C9_13 
REMARK    6  A    between atoms: C9_13  and  C10_15 
REMARK    7  A    between atoms: C10_15  and  C12_17 
REMARK    8  A    between atoms: C20_27  and  O8_28 
ROOT
HETATM    1  C5  UNL     1      -1.433  -0.090   0.012  1.00  0.00     0.199 C 
HETATM    2  C6  UNL     1      -1.436  -0.040   1.550  1.00  0.00     0.082 C 
HETATM    3  O3  UNL     1      -0.192   0.014  -0.388  1.00  0.00    -0.316 OA
HETATM    4  C7  UNL     1       0.732  -0.841  -0.672  1.00  0.00     0.178 C 
HETATM    5  C8  UNL     1       1.077  -0.741  -2.148  1.00  0.00     0.080 C 
HETATM    6  C14 UNL     1       0.648  -2.268  -0.260  1.00  0.00     0.074 C 
HETATM    7  C15 UNL     1       1.556  -2.611   0.932  1.00  0.00     0.018 C 
HETATM    8  C16 UNL     1      -0.686  -2.811   0.042  1.00  0.00     0.148 C 
HETATM    9  O6  UNL     1      -0.622  -4.239  -0.105  1.00  0.00    -0.315 OA
HETATM   10  C17 UNL     1      -1.808  -4.706  -0.621  1.00  0.00     0.259 C 
HETATM   11  O7  UNL     1      -2.059  -5.888  -0.920  1.00  0.00    -0.265 OA
HETATM   12  C18 UNL     1      -2.735  -3.553  -0.758  1.00  0.00     0.121 C 
HETATM   13  C19 UNL     1      -1.721  -2.410  -0.940  1.00  0.00     0.059 C 
HETATM   14  C20 UNL     1      -2.339  -1.121  -0.500  1.00  0.00     0.187 C 
ENDROOT
BRANCH   4  15
HETATM   15  O4  UNL     1       1.936  -0.371  -0.014  1.00  0.00    -0.283 OA
BRANCH  15  16
HETATM   16  C9  UNL     1       2.506   0.845  -0.270  1.00  0.00     0.265 C 
HETATM   17  O5  UNL     1       1.984   1.608  -1.108  1.00  0.00    -0.265 OA
BRANCH  16  18
HETATM   18  C10 UNL     1       3.742   1.192   0.482  1.00  0.00     0.081 C 
HETATM   19  C11 UNL     1       3.529   1.213   1.969  1.00  0.00     0.020 C 
BRANCH  18  20
HETATM   20  C12 UNL     1       4.322   2.512   0.007  1.00  0.00     0.010 C 
HETATM   21  C13 UNL     1       5.568   2.780   0.824  1.00  0.00     0.006 C 
ENDBRANCH  18  20
ENDBRANCH  16  18
ENDBRANCH  15  16
ENDBRANCH   4  15
BRANCH   1  22
HETATM   22  O2  UNL     1      -2.030   1.176  -0.363  1.00  0.00    -0.277 OA
BRANCH  22  23
HETATM   23  C4  UNL     1      -3.278   1.574   0.011  1.00  0.00     0.290 C 
HETATM   24  O1  UNL     1      -3.953   0.817   0.718  1.00  0.00    -0.260 OA
BRANCH  23  25
HETATM   25  C2  UNL     1      -3.811   2.850  -0.404  1.00  0.00     0.004 C 
HETATM   26  C1  UNL     1      -5.012   3.217  -0.036  1.00  0.00     0.024 C 
HETATM   27  C3  UNL     1      -3.000   3.747  -1.248  1.00  0.00     0.054 C 
ENDBRANCH  23  25
ENDBRANCH  22  23
ENDBRANCH   1  22
BRANCH  14  28
HETATM   28  O8  UNL     1      -3.131  -0.683  -1.588  1.00  0.00    -0.390 OA
ATOM     29  H8  UNL     1      -3.719  -1.352  -1.920  1.00  0.00     0.210 HD
ENDBRANCH  14  28
TORSDOF 8
