REMARK  6 active torsions:
REMARK  status: ('A' for Active; 'I' for Inactive)
REMARK    1  A    between atoms: C2_2  and  C3_3 
REMARK    2  A    between atoms: C3_3  and  N1_4 
REMARK    3  A    between atoms: N1_4  and  C4_5 
REMARK    4  A    between atoms: N1_4  and  C8_14 
REMARK    5  A    between atoms: C4_5  and  C5_6 
REMARK    6  A    between atoms: C8_14  and  C9_15 
ROOT
HETATM    1  N1  UNL     1      -0.901   0.090  -0.827  1.00  0.00    -0.384 N 
ENDROOT
BRANCH   1   2
HETATM    2  C3  UNL     1      -1.487   1.190  -0.165  1.00  0.00     0.122 C 
BRANCH   2   3
HETATM    3  C2  UNL     1      -1.376   2.517  -0.900  1.00  0.00     0.015 C 
HETATM    4  C1  UNL     1      -2.029   3.623  -0.083  1.00  0.00     0.006 C 
ENDBRANCH   2   3
ENDBRANCH   1   2
BRANCH   1   5
HETATM    5  C4  UNL     1      -1.245  -1.195  -0.310  1.00  0.00     0.181 C 
BRANCH   5   6
HETATM    6  C5  UNL     1      -2.705  -1.567  -0.463  1.00  0.00     0.058 A 
HETATM    7  N2  UNL     1      -3.586  -0.842  -1.067  1.00  0.00    -0.296 N 
HETATM    8  N3  UNL     1      -4.813  -1.239  -1.186  1.00  0.00    -0.269 N 
ATOM      9  H2  UNL     1      -3.311   0.059  -1.457  1.00  0.00     0.187 HD
HETATM   10  S1  UNL     1      -4.813  -2.735  -0.418  1.00  0.00    -0.002 SA
ATOM     11  H3  UNL     1      -5.592  -0.760  -1.637  1.00  0.00     0.195 HD
HETATM   12  C6  UNL     1      -3.177  -2.784   0.037  1.00  0.00     0.022 A 
HETATM   13  C7  UNL     1      -2.367  -3.820   0.778  1.00  0.00     0.060 C 
ENDBRANCH   5   6
ENDBRANCH   1   5
BRANCH   1  14
HETATM   14  C8  UNL     1       0.411   0.191  -1.327  1.00  0.00     0.088 C 
BRANCH  14  15
HETATM   15  C9  UNL     1       1.603   0.232  -0.481  1.00  0.00    -0.065 C 
HETATM   16  C10 UNL     1       1.814  -0.968   0.427  1.00  0.00     0.035 C 
HETATM   17  C11 UNL     1       3.329  -1.218   0.513  1.00  0.00     0.004 C 
HETATM   18  C12 UNL     1       3.984   0.120   0.686  1.00  0.00     0.001 C 
HETATM   19  C13 UNL     1       3.035   1.124   1.295  1.00  0.00     0.004 C 
HETATM   20  C14 UNL     1       1.987   1.459   0.239  1.00  0.00     0.035 C 
ENDBRANCH  14  15
ENDBRANCH   1  14
TORSDOF 6
