REMARK  6 active torsions:
REMARK  status: ('A' for Active; 'I' for Inactive)
REMARK    1  A    between atoms: C2_2  and  N1_4 
REMARK    2  A    between atoms: N3_8  and  C5_9 
REMARK    3  A    between atoms: C5_9  and  C6_10 
REMARK    4  A    between atoms: C6_10  and  C7_11 
REMARK    5  A    between atoms: C7_11  and  C8_12 
REMARK    6  A    between atoms: C8_12  and  C9_13 
ROOT
HETATM    1  N1  UNL     1       4.203  -0.358  -0.087  1.00  0.00    -0.262 N 
HETATM    2  N2  UNL     1       4.110  -1.204   0.943  1.00  0.00    -0.291 N 
ATOM      3  H2  UNL     1       4.863  -1.804   1.279  1.00  0.00     0.188 HD
HETATM    4  C4  UNL     1       2.872  -1.145   1.472  1.00  0.00     0.202 A 
HETATM    5  N3  UNL     1       2.170  -0.248   0.768  1.00  0.00    -0.318 N 
HETATM    6  C14 UNL     1       2.997   0.224  -0.181  1.00  0.00     0.196 A 
HETATM    7  S1  UNL     1       2.553   1.364  -1.292  1.00  0.00    -0.039 SA
ENDROOT
BRANCH   5   8
HETATM    8  C5  UNL     1       0.792   0.148   0.973  1.00  0.00     0.132 C 
BRANCH   8   9
HETATM    9  C6  UNL     1      -0.154  -0.738   0.161  1.00  0.00     0.020 C 
BRANCH   9  10
HETATM   10  C7  UNL     1      -1.542  -0.231   0.455  1.00  0.00     0.002 C 
BRANCH  10  11
HETATM   11  C8  UNL     1      -2.609  -1.008  -0.278  1.00  0.00     0.005 C 
BRANCH  11  12
HETATM   12  C9  UNL     1      -3.946  -0.371   0.128  1.00  0.00    -0.014 C 
HETATM   13  C10 UNL     1      -3.965   1.085  -0.272  1.00  0.00     0.004 C 
HETATM   14  C11 UNL     1      -5.426   1.417  -0.334  1.00  0.00     0.000 C 
HETATM   15  C12 UNL     1      -6.163   0.112  -0.537  1.00  0.00     0.000 C 
HETATM   16  C13 UNL     1      -5.098  -0.967  -0.618  1.00  0.00     0.004 C 
ENDBRANCH  11  12
ENDBRANCH  10  11
ENDBRANCH   9  10
ENDBRANCH   8   9
ENDBRANCH   5   8
BRANCH   1  17
HETATM   17  C2  UNL     1       5.379  -0.127  -0.923  1.00  0.00     0.102 C 
HETATM   18  C1  UNL     1       5.492   1.392  -1.086  1.00  0.00     0.034 C 
HETATM   19  C3  UNL     1       6.616  -0.549  -0.142  1.00  0.00     0.034 C 
ENDBRANCH   1  17
TORSDOF 6
