REMARK  12 active torsions:
REMARK  status: ('A' for Active; 'I' for Inactive)
REMARK    1  A    between atoms: C2_5  and  N3_6 
REMARK    2  A    between atoms: N3_6  and  C3_8 
REMARK    3  A    between atoms: N5_12  and  C5_14 
REMARK    4  A    between atoms: C5_14  and  C6_15 
REMARK    5  A    between atoms: C6_15  and  N6_16 
REMARK    6  A    between atoms: N8_25  and  C12_27 
REMARK    7  A    between atoms: C12_27  and  C13_28 
REMARK    8  A    between atoms: C13_28  and  C14_29 
REMARK    9  A    between atoms: C14_29  and  C15_30 
REMARK   10  A    between atoms: C15_30  and  N9_31 
REMARK   11  A    between atoms: C16_37  and  C17_38 
REMARK   12  A    between atoms: C20_47  and  N15_48 
ROOT
HETATM    1  C3  UNL     1      -0.402  -1.658   0.348  1.00  0.00     0.152 A 
HETATM    2  N4  UNL     1       0.932  -1.524   0.584  1.00  0.00    -0.174 N 
ATOM      3  H4  UNL     1       1.476  -2.359   0.801  1.00  0.00     0.186 HD
HETATM    4  C4  UNL     1       1.563  -0.338   0.543  1.00  0.00     0.680 A 
HETATM    5  N5  UNL     1       2.802  -0.159   0.754  1.00  0.00    -0.224 N 
ATOM      6  H5  UNL     1       3.130   0.804   0.685  1.00  0.00     0.177 HD
HETATM    7  N7  UNL     1       0.809   0.746   0.252  1.00  0.00    -0.186 N 
ATOM      8  H7  UNL     1       1.266   1.657   0.215  1.00  0.00     0.184 HD
HETATM    9  C10 UNL     1      -0.511   0.684   0.009  1.00  0.00     0.123 A 
HETATM   10  C11 UNL     1      -1.223   1.836  -0.280  1.00  0.00     0.132 A 
HETATM   11  N8  UNL     1      -0.567   2.938  -0.305  1.00  0.00    -0.374 N 
ATOM     12  H8  UNL     1       0.433   2.884  -0.110  1.00  0.00     0.161 HD
HETATM   13  N10 UNL     1      -2.531   1.693  -0.507  1.00  0.00    -0.330 N 
ATOM     14  H10 UNL     1      -3.066   2.535  -0.721  1.00  0.00     0.168 HD
HETATM   15  C16 UNL     1      -3.188   0.545  -0.476  1.00  0.00     0.098 A 
HETATM   16  N16 UNL     1      -2.483  -0.574  -0.193  1.00  0.00    -0.340 N 
ATOM     17  H16 UNL     1      -2.970  -1.470  -0.165  1.00  0.00     0.167 HD
HETATM   18  C21 UNL     1      -1.158  -0.544   0.053  1.00  0.00     0.110 A 
ENDROOT
BRANCH  15  19
HETATM   19  C17 UNL     1      -4.662   0.502  -0.742  1.00  0.00     0.168 A 
HETATM   20  C18 UNL     1      -5.389  -0.157   0.334  1.00  0.00     0.110 A 
HETATM   21  N11 UNL     1      -5.273   0.363   1.647  1.00  0.00    -0.086 NA
HETATM   22  N12 UNL     1      -6.120  -1.179   0.145  1.00  0.00    -0.322 N 
HETATM   23  C19 UNL     1      -6.312  -1.789  -1.115  1.00  0.00     0.191 A 
ATOM     24  H12 UNL     1      -6.597  -1.583   0.951  1.00  0.00     0.169 HD
HETATM   25  N13 UNL     1      -7.152  -2.938  -1.261  1.00  0.00    -0.063 NA
HETATM   26  N14 UNL     1      -5.708  -1.274  -2.114  1.00  0.00    -0.336 N 
HETATM   27  C20 UNL     1      -4.849  -0.135  -2.099  1.00  0.00     0.302 A 
ATOM     28  H14 UNL     1      -5.855  -1.724  -3.018  1.00  0.00     0.164 HD
BRANCH  27  29
HETATM   29  N15 UNL     1      -5.310   0.842  -3.081  1.00  0.00    -0.057 N 
ATOM     30 3H15 UNL     1      -6.158   1.316  -2.769  1.00  0.00     0.276 HD
ATOM     31 2H15 UNL     1      -4.688   1.649  -3.128  1.00  0.00     0.276 HD
ATOM     32 1H15 UNL     1      -5.436   0.412  -3.997  1.00  0.00     0.276 HD
ENDBRANCH  27  29
ENDBRANCH  15  19
BRANCH  11  33
HETATM   33  C12 UNL     1      -1.106   4.240  -0.582  1.00  0.00     0.121 C 
BRANCH  33  34
HETATM   34  C13 UNL     1       0.030   5.174  -0.850  1.00  0.00     0.021 C 
BRANCH  34  35
HETATM   35  C14 UNL     1       1.037   5.323   0.229  1.00  0.00     0.029 C 
BRANCH  35  36
HETATM   36  C15 UNL     1       0.518   5.844   1.534  1.00  0.00     0.229 C 
BRANCH  36  37
HETATM   37  N9  UNL     1      -0.461   5.026   2.166  1.00  0.00    -0.079 N 
ATOM     38  H93 UNL     1      -1.235   4.847   1.526  1.00  0.00     0.274 HD
ATOM     39  H92 UNL     1      -0.104   4.078   2.284  1.00  0.00     0.274 HD
ATOM     40  H91 UNL     1      -0.814   5.381   3.055  1.00  0.00     0.274 HD
ENDBRANCH  36  37
ENDBRANCH  35  36
ENDBRANCH  34  35
ENDBRANCH  33  34
ENDBRANCH  11  33
BRANCH   1  41
HETATM   41  N3  UNL     1      -0.976  -2.806   0.398  1.00  0.00    -0.321 N 
ATOM     42  H3  UNL     1      -1.978  -2.866   0.215  1.00  0.00     0.169 HD
BRANCH  41  43
HETATM   43  C2  UNL     1      -0.261  -3.990   0.699  1.00  0.00     0.194 A 
HETATM   44  N2  UNL     1       0.048  -4.406   1.937  1.00  0.00    -0.264 N 
HETATM   45  N1  UNL     1       0.714  -5.542   1.842  1.00  0.00    -0.234 N 
ATOM     46  H2  UNL     1      -0.191  -3.926   2.805  1.00  0.00     0.190 HD
HETATM   47  C1  UNL     1       1.223  -6.309   2.949  1.00  0.00     0.200 C 
HETATM   48  N17 UNL     1       0.838  -5.860   0.569  1.00  0.00    -0.247 N 
HETATM   49  C22 UNL     1       0.244  -4.919  -0.180  1.00  0.00     0.306 A 
ATOM     50  H17 UNL     1       1.311  -6.690   0.210  1.00  0.00     0.192 HD
HETATM   51  O2  UNL     1       0.183  -4.923  -1.442  1.00  0.00    -0.262 OA
ENDBRANCH  41  43
ENDBRANCH   1  41
BRANCH   5  52
HETATM   52  C5  UNL     1       3.792  -1.131   1.075  1.00  0.00     0.168 C 
BRANCH  52  53
HETATM   53  C6  UNL     1       4.500  -1.541  -0.215  1.00  0.00     0.295 C 
BRANCH  53  54
HETATM   54  N6  UNL     1       5.100  -0.337  -0.763  1.00  0.00     0.115 N 
HETATM   55  C7  UNL     1       6.175   0.160   0.037  1.00  0.00     0.301 C 
HETATM   56  C8  UNL     1       7.278   0.362  -0.983  1.00  0.00     0.200 C 
HETATM   57  O1  UNL     1       6.618   0.389  -2.212  1.00  0.00    -0.361 OA
HETATM   58  C9  UNL     1       5.606  -0.552  -2.102  1.00  0.00     0.440 C 
ENDBRANCH  53  54
ENDBRANCH  52  53
ENDBRANCH   5  52
TORSDOF 12
