REMARK  2 active torsions:
REMARK  status: ('A' for Active; 'I' for Inactive)
REMARK    1  A    between atoms: C3_3  and  O1_4 
REMARK    2  A    between atoms: C6_8  and  O2_10 
ROOT
HETATM    1  C1  UNL     1       2.691   1.856   0.369  1.00  0.00     0.015 C 
HETATM    2  C2  UNL     1       1.316   1.444   0.761  1.00  0.00     0.040 C 
HETATM    3  C3  UNL     1       0.354   2.512   0.210  1.00  0.00     0.124 C 
HETATM    4  C4  UNL     1      -0.986   2.438   0.849  1.00  0.00     0.035 C 
HETATM    5  C5  UNL     1      -2.132   2.130  -0.020  1.00  0.00     0.046 C 
HETATM    6  C6  UNL     1      -2.170   0.889  -0.818  1.00  0.00     0.111 C 
HETATM    7  C7  UNL     1      -1.678   1.197  -2.230  1.00  0.00     0.051 C 
HETATM    8  C8  UNL     1      -1.434  -0.292  -0.302  1.00  0.00     0.210 C 
HETATM    9  O3  UNL     1      -1.181  -1.143  -1.410  1.00  0.00    -0.317 OA
HETATM   10  C9  UNL     1      -1.676  -2.328  -0.851  1.00  0.00     0.313 C 
HETATM   11  O4  UNL     1      -0.522  -3.078  -0.546  1.00  0.00    -0.206 OA
HETATM   12  O5  UNL     1       0.260  -2.296   0.044  1.00  0.00    -0.229 OA
HETATM   13  C10 UNL     1       1.572  -2.293  -0.013  1.00  0.00     0.214 A 
HETATM   14  C11 UNL     1       2.500  -1.582  -0.873  1.00  0.00     0.142 A 
HETATM   15  C12 UNL     1       3.980  -1.893  -0.781  1.00  0.00     0.055 C 
HETATM   16  F1  UNL     1       2.169  -1.091  -2.121  1.00  0.00    -0.239 F 
HETATM   17  C13 UNL     1       1.975  -0.825   0.342  1.00  0.00     0.053 A 
HETATM   18  C14 UNL     1       2.850  -0.708   1.539  1.00  0.00     0.024 C 
HETATM   19  C15 UNL     1       0.885   0.145   0.031  1.00  0.00     0.145 C 
HETATM   20  O6  UNL     1      -0.347  -0.058   0.455  1.00  0.00    -0.345 OA
HETATM   21  C16 UNL     1      -2.148  -1.454   0.296  1.00  0.00     0.065 C 
HETATM   22  C17 UNL     1      -1.628  -1.883   1.679  1.00  0.00     0.026 C 
HETATM   23  C18 UNL     1      -3.642  -1.513   0.337  1.00  0.00     0.026 C 
ENDROOT
BRANCH   6  24
HETATM   24  O2  UNL     1      -3.559   0.640  -1.008  1.00  0.00    -0.385 OA
ATOM     25  H2  UNL     1      -3.583  -0.159  -1.522  1.00  0.00     0.210 HD
ENDBRANCH   6  24
BRANCH   3  26
HETATM   26  O1  UNL     1       1.028   3.729   0.486  1.00  0.00    -0.395 OA
ATOM     27  H1  UNL     1       0.434   4.388   0.146  1.00  0.00     0.210 HD
ENDBRANCH   3  26
TORSDOF 2
