REMARK  5 active torsions:
REMARK  status: ('A' for Active; 'I' for Inactive)
REMARK    1  A    between atoms: C3_3  and  O1_4 
REMARK    2  A    between atoms: C3_3  and  C4_6 
REMARK    3  A    between atoms: C4_6  and  C5_7 
REMARK    4  A    between atoms: C6_10  and  C8_13 
REMARK       I    between atoms: C8_13  and  N3_15 
REMARK    5  A    between atoms: N3_15  and  N4_17 
ROOT
HETATM    1  C1  UNL     1      -1.132  -1.803  -1.623  1.00  0.00     0.029 C 
HETATM    2  C2  UNL     1      -1.255  -1.386  -0.193  1.00  0.00     0.141 C 
HETATM    3  C3  UNL     1      -0.600  -0.085   0.135  1.00  0.00     0.113 C 
HETATM    4  C6  UNL     1       0.869  -0.201  -0.060  1.00  0.00     0.176 C 
HETATM    5  C7  UNL     1       1.247   0.056  -1.472  1.00  0.00     0.083 C 
HETATM    6  N2  UNL     1       1.553   0.250  -2.573  1.00  0.00    -0.196 NA
HETATM    7  C9  UNL     1       1.332  -1.562   0.383  1.00  0.00     0.178 C 
HETATM    8  S1  UNL     1      -0.152  -2.461   0.747  1.00  0.00     0.153 S 
HETATM    9  O4  UNL     1      -0.500  -2.329   2.193  1.00  0.00    -0.227 OA
HETATM   10  O5  UNL     1      -0.154  -3.837   0.238  1.00  0.00    -0.227 OA
ENDROOT
BRANCH   4  11
HETATM   11  C8  UNL     1       1.635   0.785   0.735  1.00  0.00     0.262 C 
HETATM   12  O3  UNL     1       1.081   1.621   1.481  1.00  0.00    -0.270 OA
HETATM   13  N3  UNL     1       3.042   0.792   0.656  1.00  0.00    -0.275 N 
ATOM     14  H3  UNL     1       3.509   0.116   0.051  1.00  0.00     0.189 HD
BRANCH  13  15
HETATM   15  N4  UNL     1       3.826   1.714   1.396  1.00  0.00    -0.343 N 
ATOM     16  H42 UNL     1       3.343   2.383   1.996  1.00  0.00     0.176 HD
ATOM     17  H41 UNL     1       4.844   1.719   1.339  1.00  0.00     0.176 HD
ENDBRANCH  13  15
ENDBRANCH   4  11
BRANCH   3  18
HETATM   18  O1  UNL     1      -0.820   0.115   1.519  1.00  0.00    -0.386 OA
ATOM     19  H1  UNL     1      -0.403   0.943   1.728  1.00  0.00     0.210 HD
ENDBRANCH   3  18
BRANCH   3  20
HETATM   20  C4  UNL     1      -1.112   1.074  -0.668  1.00  0.00     0.141 C 
BRANCH  20  21
HETATM   21  C5  UNL     1      -2.546   1.335  -0.501  1.00  0.00     0.234 C 
HETATM   22  N1  UNL     1      -3.072   2.418   0.254  1.00  0.00    -0.062 NA
HETATM   23  O2  UNL     1      -3.373   0.567  -1.051  1.00  0.00    -0.277 OA
ENDBRANCH  20  21
ENDBRANCH   3  20
TORSDOF 5
