REMARK  4 active torsions:
REMARK  status: ('A' for Active; 'I' for Inactive)
REMARK    1  A    between atoms: C2_5  and  C3_6 
REMARK    2  A    between atoms: C2_5  and  C4_9 
REMARK    3  A    between atoms: C4_9  and  C5_14 
REMARK    4  A    between atoms: N2_10  and  O4_12 
ROOT
HETATM    1  O1  UNL     1       4.277  -0.155   0.236  1.00  0.00    -0.246 OA
HETATM    2  C1  UNL     1       3.062   0.282   0.317  1.00  0.00     0.331 C 
HETATM    3  N1  UNL     1       2.010  -0.467  -0.245  1.00  0.00    -0.311 N 
ATOM      4  H1  UNL     1       2.180  -1.468  -0.344  1.00  0.00     0.166 HD
HETATM    5  C2  UNL     1       0.728  -0.002  -0.697  1.00  0.00     0.242 C 
HETATM    6  C8  UNL     1       0.430   1.401  -0.306  1.00  0.00     0.307 C 
HETATM    7  O5  UNL     1      -0.308   2.111  -0.913  1.00  0.00    -0.275 OA
HETATM    8  S1  UNL     1       1.211   2.029   1.125  1.00  0.00     0.303 S 
HETATM    9  O6  UNL     1       0.661   1.376   2.362  1.00  0.00    -0.197 OA
HETATM   10  O7  UNL     1       1.136   3.537   1.193  1.00  0.00    -0.197 OA
HETATM   11  N3  UNL     1       2.844   1.507   0.977  1.00  0.00    -0.229 N 
ATOM     12  H3  UNL     1       3.617   2.058   1.349  1.00  0.00     0.183 HD
ENDROOT
BRANCH   5  13
HETATM   13  C3  UNL     1       0.737  -0.142  -2.175  1.00  0.00     0.218 C 
HETATM   14  O2  UNL     1       1.841  -0.135  -2.822  1.00  0.00    -0.645 OA
HETATM   15  O3  UNL     1      -0.406  -0.282  -2.893  1.00  0.00    -0.645 OA
ENDBRANCH   5  13
BRANCH   5  16
HETATM   16  C4  UNL     1      -0.385  -0.814  -0.070  1.00  0.00     0.061 C 
HETATM   17  N2  UNL     1      -0.049  -1.847   0.648  1.00  0.00    -0.274 N 
ATOM     18  H2  UNL     1       0.942  -2.065   0.757  1.00  0.00     0.193 HD
BRANCH  17  19
HETATM   19  O4  UNL     1      -0.950  -2.637   1.250  1.00  0.00    -0.290 OA
ATOM     20  H4  UNL     1      -0.705  -3.391   1.774  1.00  0.00     0.244 HD
ENDBRANCH  17  19
BRANCH  16  21
HETATM   21  C5  UNL     1      -1.766  -0.359  -0.328  1.00  0.00     0.037 A 
HETATM   22  C6  UNL     1      -2.986  -0.983   0.157  1.00  0.00     0.011 A 
HETATM   23  C7  UNL     1      -2.481   0.283   0.850  1.00  0.00     0.011 A 
ENDBRANCH  16  21
ENDBRANCH   5  16
TORSDOF 4
