REMARK  5 active torsions:
REMARK  status: ('A' for Active; 'I' for Inactive)
REMARK    1  A    between atoms: C4_4  and  C5_5 
REMARK    2  A    between atoms: C5_5  and  C6_6 
REMARK    3  A    between atoms: C8_10  and  N2_11 
REMARK    4  A    between atoms: N2_11  and  C9_13 
REMARK    5  A    between atoms: C19_25  and  C20_26 
ROOT
HETATM    1  C6  UNL     1      -1.565  -0.146   1.217  1.00  0.00    -0.010 A 
HETATM    2  C7  UNL     1      -0.441   0.747   1.243  1.00  0.00     0.116 A 
HETATM    3  N1  UNL     1       0.678   0.359   0.632  1.00  0.00    -0.201 N 
ATOM      4  H1  UNL     1       1.483   0.985   0.646  1.00  0.00     0.183 HD
HETATM    5  C8  UNL     1       0.794  -0.826  -0.004  1.00  0.00     0.683 A 
HETATM    6  N3  UNL     1      -0.268  -1.638  -0.010  1.00  0.00    -0.190 N 
ATOM      7  H3  UNL     1      -0.187  -2.535  -0.488  1.00  0.00     0.184 HD
HETATM    8  C19 UNL     1      -1.465  -1.327   0.595  1.00  0.00     0.067 A 
ENDROOT
BRANCH   5   9
HETATM    9  N2  UNL     1       1.877  -1.202  -0.598  1.00  0.00    -0.192 N 
ATOM     10  H2  UNL     1       1.860  -2.117  -1.048  1.00  0.00     0.184 HD
BRANCH   9  11
HETATM   11  C9  UNL     1       3.073  -0.479  -0.686  1.00  0.00     0.050 A 
HETATM   12  C10 UNL     1       3.397   0.185  -1.848  1.00  0.00     0.031 A 
HETATM   13  C11 UNL     1       4.580   0.905  -1.959  1.00  0.00     0.014 A 
HETATM   14  C12 UNL     1       5.454   0.963  -0.891  1.00  0.00    -0.026 A 
HETATM   15  C13 UNL     1       6.646   1.682  -0.983  1.00  0.00     0.012 A 
HETATM   16  C17 UNL     1       5.153   0.310   0.275  1.00  0.00    -0.024 A 
HETATM   17  C14 UNL     1       7.527   1.753   0.065  1.00  0.00     0.001 A 
HETATM   18  C15 UNL     1       7.217   1.095   1.228  1.00  0.00     0.001 A 
HETATM   19  C16 UNL     1       6.043   0.387   1.322  1.00  0.00     0.012 A 
HETATM   20  C18 UNL     1       3.964  -0.402   0.361  1.00  0.00     0.042 A 
ENDBRANCH   9  11
ENDBRANCH   5   9
BRANCH   8  21
HETATM   21  C20 UNL     1      -2.500  -2.329   0.464  1.00  0.00    -0.006 A 
HETATM   22  C21 UNL     1      -3.443  -2.697   1.354  1.00  0.00     0.030 A 
HETATM   23  C22 UNL     1      -4.451  -3.604   1.126  1.00  0.00     0.088 A 
HETATM   24  N4  UNL     1      -4.502  -4.175  -0.088  1.00  0.00    -0.375 N 
HETATM   25  C23 UNL     1      -3.576  -3.847  -1.032  1.00  0.00     0.088 A 
ATOM     26  H4  UNL     1      -5.233  -4.853  -0.303  1.00  0.00     0.164 HD
HETATM   27  C24 UNL     1      -2.576  -2.949  -0.812  1.00  0.00     0.030 A 
ENDBRANCH   8  21
BRANCH   1  28
HETATM   28  C5  UNL     1      -2.796   0.425   1.754  1.00  0.00     0.080 C 
BRANCH  28  29
HETATM   29  C4  UNL     1      -3.595   1.187   0.752  1.00  0.00    -0.054 A 
HETATM   30  C3  UNL     1      -3.283   2.545   0.600  1.00  0.00     0.007 A 
HETATM   31  C2  UNL     1      -3.960   3.355  -0.286  1.00  0.00     0.001 A 
HETATM   32  C1  UNL     1      -4.982   2.839  -1.060  1.00  0.00     0.000 A 
HETATM   33  C26 UNL     1      -5.296   1.520  -0.922  1.00  0.00     0.001 A 
HETATM   34  C25 UNL     1      -4.602   0.714  -0.022  1.00  0.00     0.007 A 
ENDBRANCH  28  29
ENDBRANCH   1  28
TORSDOF 5
