REMARK  5 active torsions:
REMARK  status: ('A' for Active; 'I' for Inactive)
REMARK    1  A    between atoms: C3_5  and  C4_6 
REMARK    2  A    between atoms: C13_15  and  C14_16 
REMARK    3  A    between atoms: C14_16  and  C15_17 
REMARK    4  A    between atoms: C16_18  and  C17_19 
REMARK    5  A    between atoms: C20_22  and  O1_23 
ROOT
HETATM    1  C15 UNL     1       1.161   1.736   1.714  1.00  0.00     0.063 A 
HETATM    2  C16 UNL     1       2.402   1.768   1.132  1.00  0.00     0.074 A 
HETATM    3  N2  UNL     1       2.945   2.968   1.458  1.00  0.00    -0.296 N 
ATOM      4  H2  UNL     1       3.868   3.293   1.171  1.00  0.00     0.187 HD
HETATM    5  N3  UNL     1       2.100   3.648   2.200  1.00  0.00    -0.265 N 
ATOM      6  H3  UNL     1       2.277   4.581   2.573  1.00  0.00     0.190 HD
HETATM    7  C24 UNL     1       0.985   2.955   2.398  1.00  0.00     0.272 A 
HETATM    8  O2  UNL     1      -0.037   3.299   3.060  1.00  0.00    -0.266 OA
ENDROOT
BRANCH   1   9
HETATM    9  C14 UNL     1       0.178   0.694   1.714  1.00  0.00     0.033 C 
BRANCH   9  10
HETATM   10  C13 UNL     1      -0.879   0.395   1.037  1.00  0.00    -0.003 A 
HETATM   11  C2  UNL     1      -1.429   1.064  -0.003  1.00  0.00     0.034 A 
HETATM   12  C1  UNL     1      -0.931   2.124  -0.543  1.00  0.00     0.044 C 
HETATM   13  N1  UNL     1      -2.594   0.623  -0.590  1.00  0.00    -0.355 N 
HETATM   14  C3  UNL     1      -3.267  -0.461  -0.209  1.00  0.00     0.043 A 
ATOM     15  H1  UNL     1      -2.967   1.164  -1.370  1.00  0.00     0.166 HD
HETATM   16  C10 UNL     1      -2.743  -1.166   0.837  1.00  0.00     0.038 A 
HETATM   17  C11 UNL     1      -1.587  -0.767   1.454  1.00  0.00    -0.047 A 
HETATM   18  C12 UNL     1      -1.087  -1.593   2.584  1.00  0.00     0.049 C 
BRANCH  14  19
HETATM   19  C4  UNL     1      -4.510  -0.863  -0.894  1.00  0.00    -0.009 A 
HETATM   20  C5  UNL     1      -4.999  -0.112  -1.952  1.00  0.00     0.013 A 
HETATM   21  C6  UNL     1      -6.156  -0.484  -2.591  1.00  0.00     0.001 A 
HETATM   22  C7  UNL     1      -6.860  -1.603  -2.207  1.00  0.00     0.000 A 
HETATM   23  C8  UNL     1      -6.384  -2.356  -1.158  1.00  0.00     0.001 A 
HETATM   24  C9  UNL     1      -5.203  -1.974  -0.508  1.00  0.00     0.013 A 
ENDBRANCH  14  19
ENDBRANCH   9  10
ENDBRANCH   1   9
BRANCH   2  25
HETATM   25  C17 UNL     1       3.096   0.775   0.291  1.00  0.00    -0.007 A 
HETATM   26  C18 UNL     1       4.285   1.166  -0.329  1.00  0.00     0.016 A 
HETATM   27  C19 UNL     1       4.980   0.266  -1.099  1.00  0.00     0.037 A 
HETATM   28  C20 UNL     1       4.569  -1.024  -1.302  1.00  0.00     0.068 A 
HETATM   29  C22 UNL     1       3.408  -1.418  -0.702  1.00  0.00     0.037 A 
HETATM   30  C23 UNL     1       2.696  -0.503   0.085  1.00  0.00     0.016 A 
BRANCH  28  31
HETATM   31  O1  UNL     1       5.293  -1.912  -2.087  1.00  0.00    -0.356 OA
HETATM   32  C21 UNL     1       6.496  -1.464  -2.695  1.00  0.00     0.210 C 
ENDBRANCH  28  31
ENDBRANCH   2  25
TORSDOF 5
