REMARK  1 active torsions:
REMARK  status: ('A' for Active; 'I' for Inactive)
REMARK    1  A    between atoms: O1_1  and  C1_3 
ROOT
HETATM    1  C1  UNL     1       1.404   0.863   0.173  1.00  0.00     0.143 C 
HETATM    2  C2  UNL     1       1.858  -0.429  -0.501  1.00  0.00     0.202 C 
HETATM    3  O2  UNL     1       0.841  -0.906  -1.364  1.00  0.00    -0.355 OA
HETATM    4  C3  UNL     1      -0.156  -1.361  -0.555  1.00  0.00     0.312 C 
HETATM    5  O3  UNL     1      -1.293  -1.824  -1.148  1.00  0.00    -0.204 OA
HETATM    6  O4  UNL     1      -2.283  -1.706  -0.324  1.00  0.00    -0.204 OA
HETATM    7  C4  UNL     1      -2.059  -0.621   0.526  1.00  0.00     0.312 C 
HETATM    8  O5  UNL     1      -2.633   0.574   0.079  1.00  0.00    -0.356 OA
HETATM    9  C5  UNL     1      -1.509   0.784  -0.747  1.00  0.00     0.191 C 
HETATM   10  C6  UNL     1      -0.745  -0.135   0.145  1.00  0.00     0.089 C 
HETATM   11  C7  UNL     1       0.202   0.492   1.058  1.00  0.00     0.055 C 
ENDROOT
BRANCH   1  12
HETATM   12  O1  UNL     1       2.420   1.434   0.873  1.00  0.00    -0.393 OA
ATOM     13  H1  UNL     1       2.137   2.238   1.293  1.00  0.00     0.210 HD
ENDBRANCH   1  12
TORSDOF 1
