REMARK  5 active torsions:
REMARK  status: ('A' for Active; 'I' for Inactive)
REMARK       I    between atoms: N1_2  and  C2_4 
REMARK    1  A    between atoms: C2_4  and  C3_6 
REMARK    2  A    between atoms: C9_12  and  N2_13 
REMARK       I    between atoms: N2_13  and  C10_15 
REMARK    3  A    between atoms: C10_15  and  C11_17 
REMARK    4  A    between atoms: C11_17  and  N3_19 
REMARK       I    between atoms: N3_19  and  C13_21 
REMARK       I    between atoms: C13_21  and  N4_23 
REMARK    5  A    between atoms: N4_23  and  C14_25 
ROOT
HETATM    1  C3  UNL     1      -3.596   0.303  -1.136  1.00  0.00     0.042 C 
HETATM    2  C4  UNL     1      -4.141  -1.111  -1.060  1.00  0.00     0.024 C 
HETATM    3  C5  UNL     1      -3.134  -1.980  -0.388  1.00  0.00    -0.013 C 
HETATM    4  C6  UNL     1      -1.846  -1.999  -1.179  1.00  0.00     0.011 C 
HETATM    5  C7  UNL     1      -1.303  -0.610  -1.272  1.00  0.00     0.010 C 
HETATM    6  C8  UNL     1      -2.339   0.288  -1.967  1.00  0.00     0.026 C 
HETATM    7  C9  UNL     1      -1.079   0.047   0.069  1.00  0.00     0.092 C 
HETATM    8  C17 UNL     1      -2.322  -0.036   0.920  1.00  0.00     0.010 C 
HETATM    9  C18 UNL     1      -2.832  -1.461   0.999  1.00  0.00     0.011 C 
HETATM   10  C19 UNL     1      -3.355   0.856   0.228  1.00  0.00     0.026 C 
ENDROOT
BRANCH   7  11
HETATM   11  N2  UNL     1       0.000  -0.510   0.833  1.00  0.00    -0.354 N 
HETATM   12  C10 UNL     1       1.216   0.225   0.901  1.00  0.00     0.240 C 
HETATM   13  O2  UNL     1       1.407   1.313   0.326  1.00  0.00    -0.271 OA
ATOM     14  H2  UNL     1      -0.102  -1.405   1.312  1.00  0.00     0.162 HD
BRANCH  12  15
HETATM   15  C11 UNL     1       2.287  -0.385   1.725  1.00  0.00     0.174 C 
HETATM   16  C12 UNL     1       1.767  -0.371   3.168  1.00  0.00     0.042 C 
BRANCH  15  17
HETATM   17  N3  UNL     1       3.479   0.434   1.618  1.00  0.00    -0.330 N 
HETATM   18  C13 UNL     1       4.755  -0.144   1.568  1.00  0.00     0.317 C 
HETATM   19  O3  UNL     1       4.841  -1.410   1.653  1.00  0.00    -0.247 OA
HETATM   20  N4  UNL     1       5.898   0.670   1.424  1.00  0.00    -0.339 N 
ATOM     21  H4  UNL     1       5.803   1.682   1.342  1.00  0.00     0.164 HD
ATOM     22  H3  UNL     1       3.387   1.449   1.578  1.00  0.00     0.165 HD
BRANCH  20  23
HETATM   23  C14 UNL     1       7.216   0.048   1.393  1.00  0.00     0.086 A 
HETATM   24  C15 UNL     1       8.418   0.896   1.483  1.00  0.00     0.027 A 
HETATM   25  C16 UNL     1       8.005   0.384   0.134  1.00  0.00     0.027 A 
ENDBRANCH  20  23
ENDBRANCH  15  17
ENDBRANCH  12  15
ENDBRANCH   7  11
BRANCH   1  26
HETATM   26  C2  UNL     1      -4.584   1.221  -1.810  1.00  0.00     0.226 C 
HETATM   27  N1  UNL     1      -5.005   0.975  -3.132  1.00  0.00    -0.365 N 
HETATM   28  C1  UNL     1      -5.942   1.849  -3.772  1.00  0.00     0.149 C 
ATOM     29  H1  UNL     1      -4.639   0.168  -3.637  1.00  0.00     0.161 HD
HETATM   30  O1  UNL     1      -5.060   2.230  -1.208  1.00  0.00    -0.273 OA
ENDBRANCH   1  26
TORSDOF 5
