REMARK  9 active torsions:
REMARK  status: ('A' for Active; 'I' for Inactive)
REMARK    1  A    between atoms: C2_2  and  C3_3 
REMARK    2  A    between atoms: C3_3  and  C4_4 
REMARK    3  A    between atoms: C4_4  and  N1_5 
REMARK    4  A    between atoms: C11_12  and  N2_13 
REMARK    5  A    between atoms: N2_13  and  C12_15 
REMARK    6  A    between atoms: C12_15  and  N3_17 
REMARK    7  A    between atoms: N3_17  and  C13_19 
REMARK    8  A    between atoms: C16_22  and  C17_23 
REMARK    9  A    between atoms: C17_23  and  C18_25 
ROOT
HETATM    1  N3  UNL     1       1.448  -0.202  -0.583  1.00  0.00    -0.363 N 
ATOM      2  H3  UNL     1       1.602   0.782  -0.802  1.00  0.00     0.162 HD
ENDROOT
BRANCH   1   3
HETATM    3  C12 UNL     1       0.174  -0.601  -0.156  1.00  0.00     0.168 C 
HETATM    4  S1  UNL     1      -0.106  -2.172   0.163  1.00  0.00    -0.041 SA
BRANCH   3   5
HETATM    5  N2  UNL     1      -0.872   0.346  -0.008  1.00  0.00    -0.363 N 
ATOM      6  H2  UNL     1      -0.670   1.323  -0.220  1.00  0.00     0.162 HD
BRANCH   5   7
HETATM    7  C11 UNL     1      -2.205   0.005   0.425  1.00  0.00     0.088 C 
HETATM    8  C10 UNL     1      -2.997  -0.772  -0.552  1.00  0.00     0.061 C 
HETATM    9  C9  UNL     1      -4.407  -0.982  -0.034  1.00  0.00     0.225 C 
HETATM   10  N1  UNL     1      -5.101   0.236   0.165  1.00  0.00     0.098 N 
HETATM   11  C8  UNL     1      -4.403  -1.853   1.186  1.00  0.00     0.036 C 
HETATM   12  C5  UNL     1      -4.369   0.996   1.157  1.00  0.00     0.225 C 
HETATM   13  C6  UNL     1      -4.556   0.313   2.464  1.00  0.00     0.036 C 
HETATM   14  C26 UNL     1      -2.954   1.264   0.791  1.00  0.00     0.061 C 
HETATM   15  C7  UNL     1      -4.401  -1.157   2.481  1.00  0.00     0.004 C 
BRANCH  10  16
HETATM   16  C4  UNL     1      -5.389   1.008  -1.008  1.00  0.00     0.273 C 
BRANCH  16  17
HETATM   17  C3  UNL     1      -6.327   0.236  -1.897  1.00  0.00     0.030 C 
BRANCH  17  18
HETATM   18  C2  UNL     1      -7.622  -0.052  -1.115  1.00  0.00    -0.003 C 
HETATM   19  C1  UNL     1      -8.161   1.333  -0.752  1.00  0.00     0.005 C 
ENDBRANCH  17  18
ENDBRANCH  16  17
ENDBRANCH  10  16
ENDBRANCH   5   7
ENDBRANCH   3   5
ENDBRANCH   1   3
BRANCH   1  20
HETATM   20  C13 UNL     1       2.553  -1.120  -0.727  1.00  0.00     0.083 C 
HETATM   21  C14 UNL     1       3.743  -0.452  -1.367  1.00  0.00     0.026 C 
HETATM   22  C15 UNL     1       5.073  -0.964  -0.838  1.00  0.00     0.014 C 
HETATM   23  C16 UNL     1       5.284  -0.663   0.619  1.00  0.00     0.061 C 
HETATM   24  C24 UNL     1       3.877  -0.403   1.186  1.00  0.00     0.014 C 
HETATM   25  C25 UNL     1       3.041  -1.577   0.651  1.00  0.00     0.026 C 
BRANCH  23  26
HETATM   26  C17 UNL     1       6.111   0.532   0.882  1.00  0.00     0.166 C 
HETATM   27  O1  UNL     1       5.570   1.526   1.502  1.00  0.00    -0.292 OA
BRANCH  26  28
HETATM   28  C18 UNL     1       7.502   0.704   0.501  1.00  0.00     0.049 A 
HETATM   29  C19 UNL     1       8.006   2.016   0.465  1.00  0.00     0.021 A 
HETATM   30  C20 UNL     1       9.304   2.246   0.076  1.00  0.00     0.043 A 
HETATM   31  C21 UNL     1      10.126   1.212  -0.281  1.00  0.00     0.119 A 
HETATM   32  F1  UNL     1      11.393   1.527  -0.650  1.00  0.00    -0.206 F 
HETATM   33  C22 UNL     1       9.638  -0.055  -0.245  1.00  0.00     0.085 A 
HETATM   34  C23 UNL     1       8.338  -0.314   0.143  1.00  0.00     0.133 A 
HETATM   35  F2  UNL     1       7.899  -1.592   0.189  1.00  0.00    -0.205 F 
ENDBRANCH  26  28
ENDBRANCH  23  26
ENDBRANCH   1  20
TORSDOF 9
