REMARK  1 active torsions:
REMARK  status: ('A' for Active; 'I' for Inactive)
REMARK    1  A    between atoms: C14_18  and  C15_19 
ROOT
HETATM    1  C1  UNL     1       3.895  -1.139   0.583  1.00  0.00     0.015 C 
HETATM    2  C2  UNL     1       2.699  -0.654   0.258  1.00  0.00    -0.082 C 
HETATM    3  C3  UNL     1       1.826  -0.069   1.319  1.00  0.00     0.040 C 
HETATM    4  C4  UNL     1       0.645   0.640   0.814  1.00  0.00     0.013 C 
HETATM    5  C5  UNL     1      -0.688   0.036   1.189  1.00  0.00     0.069 C 
HETATM    6  C6  UNL     1      -0.810  -1.299   0.497  1.00  0.00     0.125 C 
HETATM    7  C7  UNL     1      -1.226  -2.384   1.463  1.00  0.00     0.040 C 
HETATM    8  O1  UNL     1       0.382  -1.718  -0.103  1.00  0.00    -0.379 OA
HETATM    9  C8  UNL     1       0.744  -0.862  -1.149  1.00  0.00     0.141 C 
HETATM   10  C9  UNL     1       2.207  -0.483  -1.131  1.00  0.00     0.044 C 
HETATM   11  C10 UNL     1       1.715   0.968  -1.361  1.00  0.00     0.026 C 
HETATM   12  C11 UNL     1       0.480   0.544  -0.683  1.00  0.00     0.028 C 
HETATM   13  C12 UNL     1      -0.845   1.124  -0.914  1.00  0.00     0.178 A 
HETATM   14  C13 UNL     1      -1.550   1.039  -2.220  1.00  0.00     0.051 C 
HETATM   15  N1  UNL     1      -1.121   2.252  -0.077  1.00  0.00    -0.041 N 
ATOM     16  H11 UNL     1      -1.601   3.133  -0.263  1.00  0.00     0.280 HD
ATOM     17  H12 UNL     1      -0.512   2.969   0.317  1.00  0.00     0.280 HD
HETATM   18  C14 UNL     1      -1.584   1.021   0.444  1.00  0.00     0.253 A 
ENDROOT
BRANCH  18  19
HETATM   19  C15 UNL     1      -3.024   0.770   0.426  1.00  0.00     0.214 C 
HETATM   20  O2  UNL     1      -3.656   0.023  -0.401  1.00  0.00    -0.646 OA
HETATM   21  O3  UNL     1      -3.805   1.424   1.366  1.00  0.00    -0.646 OA
ENDBRANCH  18  19
TORSDOF 1
