REMARK  5 active torsions:
REMARK  status: ('A' for Active; 'I' for Inactive)
REMARK    1  A    between atoms: O1_1  and  C1_3 
REMARK    2  A    between atoms: C3_6  and  O3_7 
REMARK    3  A    between atoms: O3_7  and  C4_8 
REMARK    4  A    between atoms: C4_8  and  C5_9 
REMARK    5  A    between atoms: C7_12  and  O5_13 
ROOT
HETATM    1  C1  UNL     1      -2.574   0.347  -0.227  1.00  0.00     0.175 C 
HETATM    2  C2  UNL     1      -2.192   1.176   0.968  1.00  0.00     0.205 C 
HETATM    3  O2  UNL     1      -0.820   1.406   0.884  1.00  0.00    -0.356 OA
HETATM    4  C3  UNL     1      -0.352   0.181   0.417  1.00  0.00     0.290 C 
HETATM    5  C7  UNL     1      -1.215   0.021  -0.837  1.00  0.00     0.204 C 
ENDROOT
BRANCH   4   6
HETATM    6  O3  UNL     1       0.988   0.165   0.136  1.00  0.00    -0.356 OA
BRANCH   6   7
HETATM    7  C4  UNL     1       1.676  -0.804   0.807  1.00  0.00     0.205 C 
BRANCH   7   8
HETATM    8  C5  UNL     1       3.139  -0.737   0.428  1.00  0.00     0.169 A 
HETATM    9  C6  UNL     1       3.477   0.271  -0.650  1.00  0.00     0.202 A 
HETATM   10  O4  UNL     1       3.834   0.443   0.689  1.00  0.00    -0.379 OA
ENDBRANCH   7   8
ENDBRANCH   6   7
ENDBRANCH   4   6
BRANCH   5  11
HETATM   11  O5  UNL     1      -1.151  -1.239  -1.366  1.00  0.00    -0.388 OA
ATOM     12  H5  UNL     1      -0.304  -1.442  -1.746  1.00  0.00     0.210 HD
ENDBRANCH   5  11
BRANCH   1  13
HETATM   13  O1  UNL     1      -3.362   1.021  -1.139  1.00  0.00    -0.391 OA
ATOM     14  H1  UNL     1      -3.603   0.497  -1.894  1.00  0.00     0.210 HD
ENDBRANCH   1  13
TORSDOF 5
