REMARK  5 active torsions:
REMARK  status: ('A' for Active; 'I' for Inactive)
REMARK    1  A    between atoms: C4_4  and  C5_5 
REMARK    2  A    between atoms: C5_5  and  C6_6 
REMARK    3  A    between atoms: C5_5  and  C10_11 
REMARK    4  A    between atoms: C6_6  and  N1_7 
REMARK    5  A    between atoms: C11_18  and  N5_19 
ROOT
HETATM    1  C1  UNL     1      -1.854   4.562   0.365  1.00  0.00     0.102 C 
HETATM    2  C2  UNL     1      -1.640   3.474  -0.182  1.00  0.00    -0.161 C 
HETATM    3  C3  UNL     1      -1.333   2.203  -0.792  1.00  0.00     0.047 C 
HETATM    4  C4  UNL     1      -0.878   1.186  -0.116  1.00  0.00    -0.006 C 
ENDROOT
BRANCH   4   5
HETATM    5  C5  UNL     1      -0.534  -0.140  -0.653  1.00  0.00     0.090 C 
BRANCH   5   6
HETATM    6  C6  UNL     1       0.746  -0.627  -0.063  1.00  0.00     0.251 C 
BRANCH   6   7
HETATM    7  N1  UNL     1       1.978   0.002  -0.053  1.00  0.00    -0.078 N 
HETATM    8  C7  UNL     1       2.478   0.043   1.386  1.00  0.00     0.271 C 
HETATM    9  C8  UNL     1       2.154   1.273  -0.641  1.00  0.00     0.271 C 
HETATM   10  C9  UNL     1       2.978  -0.908  -0.650  1.00  0.00     0.271 C 
ENDBRANCH   6   7
ENDBRANCH   5   6
BRANCH   5  11
HETATM   11  C10 UNL     1      -1.559  -1.091   0.019  1.00  0.00     0.081 A 
HETATM   12  N2  UNL     1      -1.754  -1.038   1.358  1.00  0.00    -0.286 N 
HETATM   13  N3  UNL     1      -2.757  -1.814   1.675  1.00  0.00    -0.241 N 
ATOM     14  H2  UNL     1      -1.206  -0.482   2.014  1.00  0.00     0.188 HD
HETATM   15  N4  UNL     1      -3.252  -2.381   0.529  1.00  0.00    -0.270 N 
ATOM     16  H3  UNL     1      -3.112  -1.972   2.618  1.00  0.00     0.208 HD
HETATM   17  C11 UNL     1      -2.485  -1.910  -0.444  1.00  0.00     0.140 A 
ATOM     18  H4  UNL     1      -4.039  -3.025   0.444  1.00  0.00     0.190 HD
BRANCH  17  19
HETATM   19  N5  UNL     1      -2.611  -2.282  -1.685  1.00  0.00    -0.383 N 
ATOM     20  H52 UNL     1      -2.021  -1.920  -2.434  1.00  0.00     0.157 HD
ATOM     21  H51 UNL     1      -3.327  -2.915  -2.043  1.00  0.00     0.157 HD
ENDBRANCH  17  19
ENDBRANCH   5  11
ENDBRANCH   4   5
TORSDOF 5
