REMARK  8 active torsions:
REMARK  status: ('A' for Active; 'I' for Inactive)
REMARK    1  A    between atoms: S1_2  and  C2_3 
REMARK    2  A    between atoms: C2_3  and  C3_4 
REMARK    3  A    between atoms: C3_4  and  C4_5 
REMARK    4  A    between atoms: C3_4  and  C12_17 
REMARK       I    between atoms: C4_5  and  N1_7 
REMARK    5  A    between atoms: N1_7  and  C5_8 
REMARK    6  A    between atoms: C5_8  and  C6_9 
REMARK    7  A    between atoms: C6_9  and  O2_10 
REMARK    8  A    between atoms: C12_17  and  C13_19 
ROOT
HETATM    1  C4  UNL     1      -1.061   1.063   1.297  1.00  0.00     0.303 C 
HETATM    2  O1  UNL     1      -1.130   2.259   1.530  1.00  0.00    -0.256 OA
HETATM    3  N1  UNL     1       0.074   0.321   1.102  1.00  0.00    -0.384 NA
ENDROOT
BRANCH   1   4
HETATM    4  C3  UNL     1      -2.416   0.305   1.230  1.00  0.00     0.179 C 
BRANCH   4   5
HETATM    5  C2  UNL     1      -2.203  -0.958   2.053  1.00  0.00     0.097 C 
BRANCH   5   6
HETATM    6  S1  UNL     1      -3.681  -1.891   2.261  1.00  0.00    -0.172 SA
HETATM    7  C1  UNL     1      -4.546  -2.644   0.970  1.00  0.00     0.089 C 
ENDBRANCH   5   6
ENDBRANCH   4   5
BRANCH   4   8
HETATM    8  C12 UNL     1      -2.535  -0.124  -0.206  1.00  0.00     0.198 C 
HETATM    9  O3  UNL     1      -2.148  -1.252  -0.551  1.00  0.00    -0.289 OA
BRANCH   8  10
HETATM   10  C13 UNL     1      -3.100   0.815  -1.155  1.00  0.00     0.121 A 
HETATM   11  C14 UNL     1      -3.295   0.568  -2.464  1.00  0.00     0.043 A 
HETATM   12  C15 UNL     1      -3.853   1.694  -3.022  1.00  0.00     0.027 A 
HETATM   13  C16 UNL     1      -3.975   2.617  -1.953  1.00  0.00     0.142 A 
HETATM   14  O4  UNL     1      -3.514   2.037  -0.904  1.00  0.00    -0.319 OA
ENDBRANCH   8  10
ENDBRANCH   4   8
ENDBRANCH   1   4
BRANCH   3  15
HETATM   15  C5  UNL     1       1.190  -0.408   0.909  1.00  0.00     0.196 C 
BRANCH  15  16
HETATM   16  C6  UNL     1       2.119  -0.136  -0.240  1.00  0.00     0.102 C 
HETATM   17  C7  UNL     1       2.746   1.234  -0.214  1.00  0.00     0.044 C 
HETATM   18  C8  UNL     1       4.147   1.118  -0.831  1.00  0.00     0.003 C 
HETATM   19  C9  UNL     1       4.988   0.464   0.249  1.00  0.00     0.000 C 
HETATM   20  C10 UNL     1       4.352  -0.821   0.710  1.00  0.00     0.003 C 
HETATM   21  C11 UNL     1       3.194  -1.222  -0.161  1.00  0.00     0.044 C 
BRANCH  16  22
HETATM   22  O2  UNL     1       1.394  -0.325  -1.419  1.00  0.00    -0.383 OA
ATOM     23  H2  UNL     1       1.981  -0.153  -2.146  1.00  0.00     0.211 HD
ENDBRANCH  16  22
ENDBRANCH  15  16
ENDBRANCH   3  15
TORSDOF 8
