REMARK  3 active torsions:
REMARK  status: ('A' for Active; 'I' for Inactive)
REMARK    1  A    between atoms: N1_4  and  C4_5 
REMARK    2  A    between atoms: N2_15  and  C14_16 
REMARK    3  A    between atoms: C14_16  and  C15_17 
ROOT
HETATM    1  C1  UNL     1      -0.191  -3.316  -1.441  1.00  0.00     0.017 C 
HETATM    2  C2  UNL     1      -0.621  -2.148  -1.053  1.00  0.00    -0.049 C 
HETATM    3  C3  UNL     1      -1.892  -1.488  -1.449  1.00  0.00     0.307 C 
HETATM    4  N1  UNL     1      -2.036  -0.347  -0.545  1.00  0.00     0.098 N 
HETATM    5  C10 UNL     1      -1.185  -0.657   0.594  1.00  0.00     0.289 C 
HETATM    6  C11 UNL     1       0.049  -1.214  -0.137  1.00  0.00     0.038 C 
HETATM    7  C12 UNL     1       0.772  -0.100  -0.852  1.00  0.00     0.048 C 
HETATM    8  C13 UNL     1       2.092  -0.003  -0.174  1.00  0.00     0.274 C 
HETATM    9  N2  UNL     1       2.027  -0.767   1.059  1.00  0.00     0.095 N 
HETATM   10  C19 UNL     1       1.031  -1.804   0.808  1.00  0.00     0.288 C 
ENDROOT
BRANCH   4  11
HETATM   11  C4  UNL     1      -3.425  -0.197  -0.177  1.00  0.00     0.223 C 
HETATM   12  C5  UNL     1      -3.649   0.868   0.848  1.00  0.00     0.036 C 
HETATM   13  C6  UNL     1      -3.464   2.234   0.279  1.00  0.00     0.002 C 
HETATM   14  C7  UNL     1      -4.361   2.476  -0.916  1.00  0.00     0.000 C 
HETATM   15  C8  UNL     1      -4.233   1.405  -1.952  1.00  0.00     0.002 C 
HETATM   16  C9  UNL     1      -4.236   0.013  -1.417  1.00  0.00     0.036 C 
ENDBRANCH   4  11
BRANCH   9  17
HETATM   17  C14 UNL     1       3.335  -1.344   1.375  1.00  0.00     0.329 C 
BRANCH  17  18
HETATM   18  C15 UNL     1       4.289  -0.176   1.525  1.00  0.00     0.044 A 
HETATM   19  C16 UNL     1       4.469   0.411   2.751  1.00  0.00     0.078 A 
HETATM   20  S1  UNL     1       5.607   1.637   2.375  1.00  0.00    -0.087 SA
HETATM   21  C17 UNL     1       5.775   1.324   0.705  1.00  0.00     0.047 A 
HETATM   22  C18 UNL     1       6.633   2.020  -0.325  1.00  0.00     0.076 C 
HETATM   23  N3  UNL     1       4.954   0.301   0.524  1.00  0.00    -0.356 N 
ATOM     24  H3  UNL     1       4.846  -0.110  -0.403  1.00  0.00     0.166 HD
ENDBRANCH  17  18
ENDBRANCH   9  17
TORSDOF 3
