REMARK  2 active torsions:
REMARK  status: ('A' for Active; 'I' for Inactive)
REMARK    1  A    between atoms: C3_4  and  O1_5 
REMARK    2  A    between atoms: C5_9  and  N2_10 
ROOT
HETATM    1  N1  UNL     1       3.615  -2.966  -1.054  1.00  0.00    -0.191 NA
HETATM    2  C1  UNL     1       3.532  -1.842  -0.706  1.00  0.00     0.105 C 
HETATM    3  C2  UNL     1       3.439  -0.449  -0.249  1.00  0.00     0.111 A 
HETATM    4  C3  UNL     1       4.509   0.329  -0.015  1.00  0.00     0.095 A 
HETATM    5  C4  UNL     1       4.273   1.609   0.414  1.00  0.00     0.090 A 
HETATM    6  S1  UNL     1       2.577   1.688   0.479  1.00  0.00    -0.080 SA
HETATM    7  C5  UNL     1       2.206   0.106  -0.037  1.00  0.00     0.096 A 
ENDROOT
BRANCH   4   8
HETATM    8  O1  UNL     1       5.852  -0.101  -0.187  1.00  0.00    -0.359 OA
ATOM      9  H1  UNL     1       6.609   0.449  -0.022  1.00  0.00     0.217 HD
ENDBRANCH   4   8
BRANCH   7  10
HETATM   10  N2  UNL     1       0.911  -0.513  -0.224  1.00  0.00    -0.374 N 
HETATM   11  C6  UNL     1       0.556  -1.643   0.574  1.00  0.00     0.123 C 
HETATM   12  C7  UNL     1      -0.762  -1.302   1.279  1.00  0.00     0.025 C 
HETATM   13  C8  UNL     1      -1.866  -1.136   0.286  1.00  0.00     0.070 C 
HETATM   14  C9  UNL     1      -2.107   0.311  -0.061  1.00  0.00     0.165 C 
HETATM   15  C10 UNL     1      -0.848   1.047  -0.473  1.00  0.00     0.088 C 
HETATM   16  O2  UNL     1      -2.984   0.414  -1.135  1.00  0.00    -0.353 OA
HETATM   17  O3  UNL     1      -2.644   0.980   1.008  1.00  0.00    -0.353 OA
HETATM   18  C11 UNL     1       0.106   0.136  -1.235  1.00  0.00     0.129 C 
HETATM   19  C12 UNL     1      -4.173   0.930  -0.687  1.00  0.00     0.197 C 
HETATM   20  C13 UNL     1      -3.970   1.259   0.757  1.00  0.00     0.197 C 
ENDBRANCH   7  10
TORSDOF 2
