REMARK  12 active torsions:
REMARK  status: ('A' for Active; 'I' for Inactive)
REMARK    1  A    between atoms: C2_2  and  C3_3 
REMARK    2  A    between atoms: C3_3  and  C5_5 
REMARK    3  A    between atoms: C5_5  and  C6_6 
REMARK    4  A    between atoms: C6_6  and  C7_7 
REMARK    5  A    between atoms: C7_7  and  C9_9 
REMARK    6  A    between atoms: C10_10  and  C11_11 
REMARK    7  A    between atoms: C12_12  and  C13_13 
REMARK    8  A    between atoms: C14_14  and  C15_15 
REMARK    9  A    between atoms: C16_17  and  O2_18 
REMARK   10  A    between atoms: C17_20  and  O3_21 
REMARK   11  A    between atoms: C18_23  and  O4_24 
REMARK   12  A    between atoms: C19_26  and  O5_27 
ROOT
HETATM    1  C15 UNL     1      -3.274   2.528   0.823  1.00  0.00     0.179 C 
HETATM    2  O1  UNL     1      -3.546   2.014  -0.391  1.00  0.00    -0.347 OA
HETATM    3  C16 UNL     1      -4.419   1.003  -0.556  1.00  0.00     0.289 C 
HETATM    4  C17 UNL     1      -5.604   0.964   0.358  1.00  0.00     0.204 C 
HETATM    5  C18 UNL     1      -5.429   1.794   1.603  1.00  0.00     0.183 C 
HETATM    6  C19 UNL     1      -3.961   1.744   1.952  1.00  0.00     0.182 C 
ENDROOT
BRANCH   1   7
HETATM    7  C14 UNL     1      -1.806   2.336   1.122  1.00  0.00     0.008 C 
HETATM    8  C13 UNL     1      -1.144   1.429   0.411  1.00  0.00    -0.001 C 
BRANCH   8   9
HETATM    9  C12 UNL     1       0.255   1.185   0.639  1.00  0.00    -0.000 C 
HETATM   10  C11 UNL     1       0.940   0.287  -0.040  1.00  0.00     0.000 C 
BRANCH  10  11
HETATM   11  C10 UNL     1       0.370  -0.534  -1.065  1.00  0.00     0.001 C 
HETATM   12  C9  UNL     1       0.901  -1.412  -1.826  1.00  0.00     0.019 C 
BRANCH  12  13
HETATM   13  C7  UNL     1       2.226  -1.963  -2.037  1.00  0.00    -0.005 C 
HETATM   14  C8  UNL     1       2.338  -2.996  -2.894  1.00  0.00     0.032 C 
BRANCH  13  15
HETATM   15  C6  UNL     1       3.439  -1.552  -1.415  1.00  0.00    -0.144 C 
BRANCH  15  16
HETATM   16  C5  UNL     1       4.491  -1.195  -0.874  1.00  0.00     0.093 C 
BRANCH  16  17
HETATM   17  C3  UNL     1       5.829  -1.843  -1.013  1.00  0.00     0.014 C 
HETATM   18  C4  UNL     1       6.745  -0.789  -1.581  1.00  0.00     0.015 C 
BRANCH  17  19
HETATM   19  C2  UNL     1       6.272  -2.352   0.322  1.00  0.00    -0.032 C 
HETATM   20  C1  UNL     1       5.453  -2.254   1.390  1.00  0.00     0.007 C 
ENDBRANCH  17  19
ENDBRANCH  16  17
ENDBRANCH  15  16
ENDBRANCH  13  15
ENDBRANCH  12  13
ENDBRANCH  10  11
ENDBRANCH   8   9
ENDBRANCH   1   7
BRANCH   6  21
HETATM   21  O5  UNL     1      -3.684   2.311   3.189  1.00  0.00    -0.390 OA
ATOM     22  H5  UNL     1      -4.109   1.826   3.887  1.00  0.00     0.210 HD
ENDBRANCH   6  21
BRANCH   3  23
HETATM   23  O2  UNL     1      -4.782   0.910  -1.898  1.00  0.00    -0.368 OA
ATOM     24  H2  UNL     1      -5.398   0.196  -2.014  1.00  0.00     0.212 HD
ENDBRANCH   3  23
BRANCH   5  25
HETATM   25  O4  UNL     1      -6.152   1.184   2.645  1.00  0.00    -0.390 OA
ATOM     26  H4  UNL     1      -6.042   1.707   3.430  1.00  0.00     0.210 HD
ENDBRANCH   5  25
BRANCH   4  27
HETATM   27  O3  UNL     1      -6.764   1.447  -0.265  1.00  0.00    -0.388 OA
ATOM     28  H3  UNL     1      -7.516   1.422   0.315  1.00  0.00     0.210 HD
ENDBRANCH   4  27
TORSDOF 12
