REMARK  17 active torsions:
REMARK  status: ('A' for Active; 'I' for Inactive)
REMARK    1  A    between atoms: N1_5  and  C4_7 
REMARK    2  A    between atoms: C4_7  and  C5_8 
REMARK    3  A    between atoms: C5_8  and  N2_9 
REMARK    4  A    between atoms: C6_13  and  C7_14 
REMARK    5  A    between atoms: C7_14  and  N3_15 
REMARK    6  A    between atoms: C8_16  and  C9_17 
REMARK    7  A    between atoms: C9_17  and  O2_18 
REMARK    8  A    between atoms: C9_17  and  C10_20 
REMARK    9  A    between atoms: C10_20  and  O3_21 
REMARK   10  A    between atoms: C10_20  and  O4_23 
REMARK   11  A    between atoms: C11_25  and  O5_26 
REMARK   12  A    between atoms: N4_28  and  N5_29 
REMARK   13  A    between atoms: N5_29  and  C12_31 
REMARK   14  A    between atoms: C13_38  and  C14_39 
REMARK   15  A    between atoms: N10_43  and  O7_45 
REMARK   16  A    between atoms: C16_47  and  O8_48 
REMARK   17  A    between atoms: C17_50  and  O9_51 
ROOT
HETATM    1  N3  UNL     1       0.343  -0.451  -0.298  1.00  0.00    -0.150 N 
HETATM    2  C8  UNL     1       0.931  -0.675  -1.466  1.00  0.00     0.120 A 
HETATM    3  C11 UNL     1       2.168   0.017  -1.430  1.00  0.00     0.206 A 
HETATM    4  N4  UNL     1       2.304   0.617  -0.267  1.00  0.00    -0.061 N 
HETATM    5  C15 UNL     1       1.172   0.326   0.431  1.00  0.00     0.732 A 
HETATM    6  N10 UNL     1       1.016   0.781   1.638  1.00  0.00    -0.096 N 
ATOM      7  H10 UNL     1       1.771   1.360   2.006  1.00  0.00     0.213 HD
ENDROOT
BRANCH   1   8
HETATM    8  C7  UNL     1      -0.942  -0.841   0.131  1.00  0.00     0.134 C 
BRANCH   8   9
HETATM    9  C6  UNL     1      -2.066   0.110  -0.032  1.00  0.00     0.068 A 
HETATM   10  C3  UNL     1      -3.306  -0.423   0.437  1.00  0.00     0.158 A 
HETATM   11  O1  UNL     1      -4.364   0.394   0.320  1.00  0.00    -0.295 OA
HETATM   12  N1  UNL     1      -3.488  -1.529   0.919  1.00  0.00    -0.368 N 
HETATM   13  C2  UNL     1      -4.376   1.585  -0.162  1.00  0.00     0.087 A 
HETATM   14  C1  UNL     1      -5.655   2.397  -0.235  1.00  0.00     0.080 C 
HETATM   15  C17 UNL     1      -3.199   2.123  -0.621  1.00  0.00     0.129 A 
HETATM   16  C16 UNL     1      -2.054   1.352  -0.541  1.00  0.00     0.117 A 
ATOM     17  H1  UNL     1      -4.489  -1.524   1.116  1.00  0.00     0.161 HD
BRANCH  15  18
HETATM   18  O9  UNL     1      -3.118   3.409  -1.155  1.00  0.00    -0.356 OA
ATOM     19  H9  UNL     1      -2.304   3.781  -1.473  1.00  0.00     0.218 HD
ENDBRANCH  15  18
BRANCH  16  20
HETATM   20  O8  UNL     1      -0.855   1.885  -1.017  1.00  0.00    -0.357 OA
ATOM     21  H8  UNL     1      -0.847   2.764  -1.377  1.00  0.00     0.217 HD
ENDBRANCH  16  20
BRANCH  12  22
HETATM   22  C4  UNL     1      -3.117  -2.740   1.333  1.00  0.00     0.149 C 
BRANCH  22  23
HETATM   23  C5  UNL     1      -3.038  -2.886   2.882  1.00  0.00     0.249 C 
BRANCH  23  24
HETATM   24  N2  UNL     1      -4.372  -2.631   3.379  1.00  0.00    -0.078 N 
ATOM     25  H23 UNL     1      -4.754  -1.736   3.075  1.00  0.00     0.274 HD
ATOM     26  H22 UNL     1      -5.084  -3.223   2.951  1.00  0.00     0.274 HD
ATOM     27  H21 UNL     1      -4.320  -2.727   4.393  1.00  0.00     0.274 HD
ENDBRANCH  23  24
ENDBRANCH  22  23
ENDBRANCH  12  22
ENDBRANCH   8   9
ENDBRANCH   1   8
BRANCH   2  28
HETATM   28  C9  UNL     1       0.525  -1.387  -2.706  1.00  0.00     0.228 C 
BRANCH  28  29
HETATM   29  O2  UNL     1      -0.781  -0.837  -3.072  1.00  0.00    -0.384 OA
ATOM     30  H2  UNL     1      -1.040  -1.292  -3.865  1.00  0.00     0.210 HD
ENDBRANCH  28  29
BRANCH  28  31
HETATM   31  C10 UNL     1       0.223  -2.829  -2.461  1.00  0.00     0.288 C 
BRANCH  31  32
HETATM   32  O3  UNL     1       1.527  -3.442  -2.197  1.00  0.00    -0.368 OA
ATOM     33  H3  UNL     1       1.335  -4.359  -2.041  1.00  0.00     0.212 HD
ENDBRANCH  31  32
BRANCH  31  34
HETATM   34  O4  UNL     1      -0.171  -3.456  -3.669  1.00  0.00    -0.368 OA
ATOM     35  H4  UNL     1      -0.363  -4.373  -3.513  1.00  0.00     0.212 HD
ENDBRANCH  31  34
ENDBRANCH  28  31
ENDBRANCH   2  28
BRANCH   3  36
HETATM   36  O5  UNL     1       3.084   0.042  -2.476  1.00  0.00    -0.343 OA
ATOM     37  H5  UNL     1       3.913   0.506  -2.452  1.00  0.00     0.219 HD
ENDBRANCH   3  36
BRANCH   4  38
HETATM   38  N5  UNL     1       3.419   1.279   0.300  1.00  0.00    -0.283 N 
ATOM     39  H5  UNL     1       3.248   1.854   1.125  1.00  0.00     0.184 HD
BRANCH  38  40
HETATM   40  C12 UNL     1       4.745   1.214  -0.173  1.00  0.00     0.272 A 
HETATM   41  N6  UNL     1       5.049   1.850  -1.399  1.00  0.00    -0.292 N 
HETATM   42  N7  UNL     1       6.092   2.571  -1.213  1.00  0.00    -0.244 N 
ATOM     43  H6  UNL     1       4.532   1.753  -2.273  1.00  0.00     0.184 HD
HETATM   44  N8  UNL     1       6.542   2.479   0.110  1.00  0.00    -0.282 N 
ATOM     45  H7  UNL     1       6.537   3.138  -1.935  1.00  0.00     0.208 HD
HETATM   46  C13 UNL     1       5.782   1.682   0.803  1.00  0.00     0.136 A 
ATOM     47  H8  UNL     1       7.356   2.970   0.480  1.00  0.00     0.188 HD
BRANCH  46  48
HETATM   48  C14 UNL     1       5.878   1.313   2.204  1.00  0.00     0.282 C 
HETATM   49  N9  UNL     1       6.931   1.807   3.026  1.00  0.00    -0.056 NA
HETATM   50  O6  UNL     1       5.031   0.551   2.713  1.00  0.00    -0.270 OA
ENDBRANCH  46  48
ENDBRANCH  38  40
ENDBRANCH   4  38
BRANCH   6  51
HETATM   51  O7  UNL     1      -0.034   0.573   2.459  1.00  0.00    -0.276 OA
ATOM     52  H7  UNL     1      -0.148   0.906   3.342  1.00  0.00     0.245 HD
ENDBRANCH   6  51
TORSDOF 17
