REMARK  14 active torsions:
REMARK  status: ('A' for Active; 'I' for Inactive)
REMARK    1  A    between atoms: N1_1  and  C1_4 
REMARK    2  A    between atoms: C4_9  and  N3_10 
REMARK    3  A    between atoms: C5_15  and  O1_16 
REMARK    4  A    between atoms: O1_16  and  C6_17 
REMARK    5  A    between atoms: C6_17  and  C7_18 
REMARK    6  A    between atoms: C6_17  and  C12_36 
REMARK    7  A    between atoms: C8_23  and  C9_24 
REMARK    8  A    between atoms: N9_28  and  C10_29 
REMARK    9  A    between atoms: C10_29  and  C11_30 
REMARK   10  A    between atoms: C11_30  and  O2_31 
REMARK   11  A    between atoms: C13_38  and  C14_39 
REMARK   12  A    between atoms: C14_39  and  O5_40 
REMARK   13  A    between atoms: C14_39  and  O6_42 
REMARK   14  A    between atoms: C16_45  and  O7_46 
ROOT
HETATM    1  C6  UNL     1      -1.083   0.826   0.665  1.00  0.00     0.260 C 
ENDROOT
BRANCH   1   2
HETATM    2  O1  UNL     1      -2.057   0.183  -0.063  1.00  0.00    -0.344 OA
BRANCH   2   3
HETATM    3  C5  UNL     1      -2.646  -0.801   0.726  1.00  0.00     0.274 C 
HETATM    4  C3  UNL     1      -2.680  -2.123   0.051  1.00  0.00     0.077 A 
HETATM    5  C2  UNL     1      -3.659  -2.315  -0.901  1.00  0.00     0.147 A 
HETATM    6  C4  UNL     1      -1.795  -3.144   0.330  1.00  0.00     0.128 A 
HETATM    7  N2  UNL     1      -3.729  -3.500  -1.539  1.00  0.00    -0.175 N 
HETATM    8  N13 UNL     1      -4.557  -1.247  -1.167  1.00  0.00    -0.272 N 
HETATM    9  C1  UNL     1      -2.870  -4.500  -1.274  1.00  0.00     0.679 A 
ATOM     10  H2  UNL     1      -4.454  -3.642  -2.242  1.00  0.00     0.186 HD
HETATM   11  N4  UNL     1      -1.906  -4.312  -0.338  1.00  0.00    -0.177 N 
ATOM     12  H4  UNL     1      -1.252  -5.068  -0.135  1.00  0.00     0.186 HD
HETATM   13  N12 UNL     1      -4.700  -0.175  -0.281  1.00  0.00    -0.027 NA
ATOM     14  H13 UNL     1      -5.110  -1.263  -2.024  1.00  0.00     0.185 HD
HETATM   15  N11 UNL     1      -4.036  -0.394   0.922  1.00  0.00    -0.089 NA
BRANCH   9  16
HETATM   16  N1  UNL     1      -3.013  -5.598  -1.935  1.00  0.00    -0.234 N 
ATOM     17  H12 UNL     1      -3.738  -5.739  -2.639  1.00  0.00     0.174 HD
ATOM     18  H11 UNL     1      -2.361  -6.357  -1.734  1.00  0.00     0.174 HD
ENDBRANCH   9  16
BRANCH   6  19
HETATM   19  N3  UNL     1      -0.868  -2.954   1.234  1.00  0.00    -0.384 N 
ATOM     20  H32 UNL     1      -0.784  -2.072   1.739  1.00  0.00     0.157 HD
ATOM     21  H31 UNL     1      -0.214  -3.709   1.440  1.00  0.00     0.157 HD
ENDBRANCH   6  19
ENDBRANCH   2   3
ENDBRANCH   1   2
BRANCH   1  22
HETATM   22  C7  UNL     1       0.290   0.657   0.076  1.00  0.00     0.176 A 
HETATM   23  N5  UNL     1       0.619   0.781  -1.235  1.00  0.00    -0.279 N 
HETATM   24  N6  UNL     1       1.926   0.559  -1.360  1.00  0.00    -0.275 N 
ATOM     25  H5  UNL     1      -0.024   1.006  -1.994  1.00  0.00     0.189 HD
HETATM   26  C8  UNL     1       2.419   0.297  -0.146  1.00  0.00     0.211 A 
ATOM     27  H6  UNL     1       2.458   0.584  -2.230  1.00  0.00     0.189 HD
HETATM   28  O3  UNL     1       1.410   0.365   0.688  1.00  0.00    -0.271 OA
BRANCH  26  29
HETATM   29  C9  UNL     1       3.822  -0.007   0.192  1.00  0.00     0.188 A 
HETATM   30  N7  UNL     1       4.278  -0.266   1.433  1.00  0.00    -0.263 N 
HETATM   31  N8  UNL     1       5.595  -0.489   1.315  1.00  0.00    -0.003 NA
ATOM     32  H7  UNL     1       3.730  -0.288   2.293  1.00  0.00     0.186 HD
HETATM   33  N9  UNL     1       5.967  -0.380   0.052  1.00  0.00    -0.214 N 
HETATM   34  N10 UNL     1       4.866  -0.080  -0.646  1.00  0.00    -0.266 N 
ATOM     35  H10 UNL     1       4.827   0.069  -1.654  1.00  0.00     0.190 HD
BRANCH  33  36
HETATM   36  C10 UNL     1       7.318  -0.558  -0.437  1.00  0.00     0.193 C 
BRANCH  36  37
HETATM   37  C11 UNL     1       7.576  -2.009  -0.813  1.00  0.00     0.187 C 
BRANCH  37  38
HETATM   38  O2  UNL     1       6.674  -2.362  -1.810  1.00  0.00    -0.399 OA
ATOM     39  H2  UNL     1       6.835  -3.268  -2.045  1.00  0.00     0.209 HD
ENDBRANCH  37  38
ENDBRANCH  36  37
ENDBRANCH  33  36
ENDBRANCH  26  29
ENDBRANCH   1  22
BRANCH   1  40
HETATM   40  C12 UNL     1      -1.336   2.278   0.803  1.00  0.00     0.123 A 
HETATM   41  O4  UNL     1      -2.153   3.008   0.056  1.00  0.00    -0.308 OA
HETATM   42  C13 UNL     1      -2.151   4.251   0.431  1.00  0.00     0.110 A 
HETATM   43  C15 UNL     1      -1.290   4.402   1.494  1.00  0.00     0.077 A 
HETATM   44  C16 UNL     1      -0.776   3.120   1.718  1.00  0.00     0.101 A 
BRANCH  42  45
HETATM   45  C14 UNL     1      -2.943   5.381  -0.167  1.00  0.00     0.312 C 
BRANCH  45  46
HETATM   46  O5  UNL     1      -3.522   6.153   0.839  1.00  0.00    -0.365 OA
ATOM     47  H5  UNL     1      -4.022   6.867   0.461  1.00  0.00     0.213 HD
ENDBRANCH  45  46
BRANCH  45  48
HETATM   48  O6  UNL     1      -2.068   6.113  -0.968  1.00  0.00    -0.365 OA
ATOM     49  H6  UNL     1      -2.568   6.827  -1.346  1.00  0.00     0.213 HD
ENDBRANCH  45  48
ENDBRANCH  42  45
BRANCH  44  50
HETATM   50  O7  UNL     1       0.139   2.873   2.727  1.00  0.00    -0.358 OA
ATOM     51  H7  UNL     1       0.529   3.460   3.364  1.00  0.00     0.217 HD
ENDBRANCH  44  50
ENDBRANCH   1  40
TORSDOF 14
