REMARK  14 active torsions:
REMARK  status: ('A' for Active; 'I' for Inactive)
REMARK    1  A    between atoms: N1_1  and  C1_4 
REMARK    2  A    between atoms: C3_9  and  N4_10 
REMARK    3  A    between atoms: N4_10  and  C4_12 
REMARK    4  A    between atoms: C5_13  and  N5_14 
REMARK    5  A    between atoms: N5_14  and  O1_16 
REMARK    6  A    between atoms: N6_18  and  O2_19 
REMARK    7  A    between atoms: C8_26  and  C9_27 
REMARK    8  A    between atoms: C9_27  and  O3_28 
REMARK    9  A    between atoms: C9_27  and  C10_30 
REMARK   10  A    between atoms: C10_30  and  C11_31 
REMARK   11  A    between atoms: C10_30  and  C12_34 
REMARK   12  A    between atoms: N10_36  and  C14_37 
REMARK   13  A    between atoms: C14_37  and  C15_38 
REMARK   14  A    between atoms: C15_38  and  O6_39 
ROOT
HETATM    1  C1  UNL     1      -1.218  -3.901  -0.133  1.00  0.00     0.147 A 
HETATM    2  N2  UNL     1      -2.385  -3.609  -0.683  1.00  0.00    -0.325 N 
ATOM      3  H2  UNL     1      -3.030  -4.356  -0.939  1.00  0.00     0.169 HD
HETATM    4  C2  UNL     1      -2.721  -2.321  -0.905  1.00  0.00     0.163 A 
HETATM    5  N3  UNL     1      -3.965  -2.063  -1.504  1.00  0.00    -0.079 NA
HETATM    6  C3  UNL     1      -1.865  -1.285  -0.568  1.00  0.00     0.157 A 
HETATM    7  N9  UNL     1      -0.685  -1.577  -0.015  1.00  0.00    -0.261 N 
HETATM    8  C8  UNL     1       0.329  -0.811   0.406  1.00  0.00     0.136 A 
HETATM    9  N13 UNL     1       1.271  -1.688   0.887  1.00  0.00    -0.285 N 
ATOM     10  H13 UNL     1       2.170  -1.416   1.285  1.00  0.00     0.188 HD
HETATM   11  N14 UNL     1       0.852  -2.922   0.763  1.00  0.00    -0.281 N 
ATOM     12  H14 UNL     1       1.358  -3.762   1.042  1.00  0.00     0.188 HD
HETATM   13  C16 UNL     1      -0.358  -2.879   0.205  1.00  0.00     0.174 A 
ENDROOT
BRANCH   8  14
HETATM   14  C9  UNL     1       0.493   0.657   0.350  1.00  0.00     0.208 C 
BRANCH  14  15
HETATM   15  O3  UNL     1       0.408   1.118  -0.963  1.00  0.00    -0.387 OA
ATOM     16  H3  UNL     1       0.513   2.061  -0.999  1.00  0.00     0.210 HD
ENDBRANCH  14  15
BRANCH  14  17
HETATM   17  C10 UNL     1       1.917   0.994   0.815  1.00  0.00     0.175 C 
BRANCH  17  18
HETATM   18  C11 UNL     1       2.111   2.480   0.780  1.00  0.00     0.186 C 
HETATM   19  O4  UNL     1       3.015   2.959   0.064  1.00  0.00    -0.647 OA
HETATM   20  O5  UNL     1       1.322   3.348   1.514  1.00  0.00    -0.647 OA
ENDBRANCH  17  18
BRANCH  17  21
HETATM   21  C12 UNL     1       2.931   0.393  -0.086  1.00  0.00     0.058 A 
HETATM   22  C13 UNL     1       4.068  -0.271   0.324  1.00  0.00     0.135 A 
HETATM   23  N10 UNL     1       4.762  -0.686  -0.776  1.00  0.00    -0.283 N 
HETATM   24  N11 UNL     1       4.060  -0.281  -1.822  1.00  0.00    -0.020 NA
HETATM   25  N12 UNL     1       2.965   0.365  -1.426  1.00  0.00    -0.286 N 
ATOM     26  H12 UNL     1       2.264   0.774  -2.044  1.00  0.00     0.184 HD
BRANCH  23  27
HETATM   27  C14 UNL     1       6.013  -1.420  -0.801  1.00  0.00     0.172 C 
BRANCH  27  28
HETATM   28  C15 UNL     1       7.209  -0.501  -0.819  1.00  0.00     0.185 C 
BRANCH  28  29
HETATM   29  O6  UNL     1       7.229   0.334  -1.916  1.00  0.00    -0.399 OA
ATOM     30  H6  UNL     1       7.982   0.913  -1.927  1.00  0.00     0.209 HD
ENDBRANCH  28  29
ENDBRANCH  27  28
ENDBRANCH  23  27
ENDBRANCH  17  21
ENDBRANCH  14  17
ENDBRANCH   8  14
BRANCH   6  31
HETATM   31  N4  UNL     1      -2.260   0.049  -0.778  1.00  0.00    -0.334 N 
ATOM     32  H4  UNL     1      -1.923   0.520  -1.617  1.00  0.00     0.168 HD
BRANCH  31  33
HETATM   33  C4  UNL     1      -3.017   0.710   0.019  1.00  0.00     0.110 A 
HETATM   34  C5  UNL     1      -3.659   0.369   1.267  1.00  0.00     0.183 A 
HETATM   35  N6  UNL     1      -4.392   1.535   1.680  1.00  0.00    -0.188 N 
HETATM   36  C6  UNL     1      -4.197   2.546   0.711  1.00  0.00     0.172 A 
HETATM   37  N7  UNL     1      -4.787   3.841   0.812  1.00  0.00    -0.078 NA
HETATM   38  C7  UNL     1      -3.417   2.107  -0.252  1.00  0.00     0.120 A 
HETATM   39  N8  UNL     1      -3.035   2.891  -1.373  1.00  0.00    -0.096 NA
BRANCH  34  40
HETATM   40  N5  UNL     1      -3.575  -0.751   1.877  1.00  0.00    -0.249 N 
ATOM     41  H5  UNL     1      -3.008  -1.492   1.465  1.00  0.00     0.196 HD
BRANCH  40  42
HETATM   42  O1  UNL     1      -4.218  -0.996   3.065  1.00  0.00    -0.288 OA
ATOM     43  H1  UNL     1      -4.156  -1.828   3.518  1.00  0.00     0.244 HD
ENDBRANCH  40  42
ENDBRANCH  34  40
BRANCH  35  44
HETATM   44  O2  UNL     1      -5.125   1.572   2.828  1.00  0.00    -0.280 OA
ATOM     45  H2  UNL     1      -5.609   2.342   3.101  1.00  0.00     0.245 HD
ENDBRANCH  35  44
ENDBRANCH  31  33
ENDBRANCH   6  31
BRANCH   1  46
HETATM   46  N1  UNL     1      -0.895  -5.127   0.081  1.00  0.00    -0.382 N 
ATOM     47  H12 UNL     1      -1.532  -5.884  -0.169  1.00  0.00     0.157 HD
ATOM     48  H11 UNL     1       0.005  -5.352   0.505  1.00  0.00     0.157 HD
ENDBRANCH   1  46
TORSDOF 14
