REMARK  13 active torsions:
REMARK  status: ('A' for Active; 'I' for Inactive)
REMARK    1  A    between atoms: N1_2  and  C2_4 
REMARK    2  A    between atoms: C5_10  and  C6_11 
REMARK    3  A    between atoms: C6_11  and  N3_12 
REMARK    4  A    between atoms: C8_14  and  C9_15 
REMARK    5  A    between atoms: C9_15  and  N4_16 
REMARK    6  A    between atoms: C11_18  and  C12_19 
REMARK    7  A    between atoms: C12_19  and  N5_20 
REMARK       I    between atoms: N5_20  and  C13_22 
REMARK    8  A    between atoms: C16_40  and  O2_41 
REMARK    9  A    between atoms: C17_43  and  N13_44 
REMARK   10  A    between atoms: N13_44  and  C18_45 
REMARK   11  A    between atoms: C18_45  and  O3_46 
REMARK   12  A    between atoms: C18_45  and  C19_48 
REMARK   13  A    between atoms: C19_48  and  N14_50 
ROOT
HETATM    1  C2  UNL     1      -4.952   1.348  -0.929  1.00  0.00     0.147 A 
HETATM    2  N2  UNL     1      -3.711   1.753  -1.177  1.00  0.00    -0.319 N 
ATOM      3  H2  UNL     1      -3.553   2.401  -1.948  1.00  0.00     0.169 HD
HETATM    4  C3  UNL     1      -2.671   1.349  -0.463  1.00  0.00     0.164 A 
HETATM    5  O1  UNL     1      -1.470   1.755  -0.717  1.00  0.00    -0.304 OA
HETATM    6  C4  UNL     1      -0.386   1.454  -0.117  1.00  0.00     0.155 A 
HETATM    7  C5  UNL     1      -0.526   0.569   0.948  1.00  0.00     0.011 A 
HETATM    8  C14 UNL     1      -1.745   0.061   1.326  1.00  0.00     0.053 A 
HETATM    9  N12 UNL     1      -1.862  -0.751   2.286  1.00  0.00    -0.398 N 
ATOM     10 1H12 UNL     1      -2.767  -1.128   2.567  1.00  0.00     0.156 HD
ATOM     11 2H12 UNL     1      -1.049  -1.050   2.824  1.00  0.00     0.156 HD
HETATM   12  C15 UNL     1      -2.861   0.471   0.587  1.00  0.00     0.079 A 
HETATM   13  C16 UNL     1      -4.131   0.007   0.903  1.00  0.00     0.127 A 
HETATM   14  C17 UNL     1      -5.211   0.467   0.112  1.00  0.00     0.187 A 
ENDROOT
BRANCH   7  15
HETATM   15  C6  UNL     1       0.670   0.103   1.703  1.00  0.00     0.192 C 
BRANCH  15  16
HETATM   16  N3  UNL     1       1.869   0.531   1.018  1.00  0.00    -0.282 N 
HETATM   17  C7  UNL     1       2.466  -0.068  -0.004  1.00  0.00     0.144 A 
HETATM   18  C8  UNL     1       3.611   0.596  -0.364  1.00  0.00     0.084 A 
HETATM   19  N10 UNL     1       3.693   1.650   0.496  1.00  0.00    -0.283 N 
HETATM   20  N11 UNL     1       2.607   1.553   1.308  1.00  0.00    -0.240 N 
ATOM     21  H10 UNL     1       4.420   2.365   0.525  1.00  0.00     0.188 HD
ATOM     22  H11 UNL     1       2.398   2.210   2.059  1.00  0.00     0.208 HD
BRANCH  18  23
HETATM   23  C9  UNL     1       4.447   0.204  -1.463  1.00  0.00     0.149 C 
BRANCH  23  24
HETATM   24  N4  UNL     1       5.517  -0.713  -1.246  1.00  0.00    -0.260 N 
HETATM   25  C10 UNL     1       6.798  -0.432  -0.989  1.00  0.00     0.145 A 
HETATM   26  C11 UNL     1       7.510  -1.631  -0.886  1.00  0.00     0.062 A 
HETATM   27  N8  UNL     1       6.607  -2.580  -1.086  1.00  0.00    -0.287 N 
HETATM   28  N9  UNL     1       5.443  -2.063  -1.296  1.00  0.00    -0.237 N 
ATOM     29  H8  UNL     1       6.804  -3.581  -1.075  1.00  0.00     0.188 HD
ATOM     30  H9  UNL     1       4.591  -2.595  -1.474  1.00  0.00     0.209 HD
BRANCH  26  31
HETATM   31  C12 UNL     1       8.956  -1.695  -0.648  1.00  0.00     0.182 C 
BRANCH  31  32
HETATM   32  N5  UNL     1       9.294  -1.526   0.755  1.00  0.00    -0.359 N 
HETATM   33  C13 UNL     1      10.719  -1.351   0.968  1.00  0.00     0.182 C 
HETATM   34  N6  UNL     1      11.401  -0.391   0.537  1.00  0.00    -0.374 N 
HETATM   35  N7  UNL     1      11.467  -2.330   1.726  1.00  0.00    -0.064 NA
ATOM     36  H62 UNL     1      10.874   0.299   0.003  1.00  0.00     0.158 HD
ATOM     37  H61 UNL     1      12.402  -0.268   0.687  1.00  0.00     0.158 HD
ATOM     38  H5  UNL     1       8.605  -1.530   1.508  1.00  0.00     0.162 HD
ENDBRANCH  31  32
ENDBRANCH  26  31
ENDBRANCH  23  24
ENDBRANCH  18  23
ENDBRANCH  15  16
ENDBRANCH   7  15
BRANCH  13  39
HETATM   39  O2  UNL     1      -4.379  -0.848   1.918  1.00  0.00    -0.356 OA
ATOM     40  H2  UNL     1      -5.248  -1.165   2.134  1.00  0.00     0.218 HD
ENDBRANCH  13  39
BRANCH  14  41
HETATM   41  N13 UNL     1      -6.542   0.150   0.478  1.00  0.00    -0.376 NA
BRANCH  41  42
HETATM   42  C18 UNL     1      -7.754  -0.163   0.824  1.00  0.00     0.212 C 
BRANCH  42  43
HETATM   43  O3  UNL     1      -8.024  -1.284   1.481  1.00  0.00    -0.337 OA
ATOM     44  H3  UNL     1      -8.911  -1.513   1.734  1.00  0.00     0.220 HD
ENDBRANCH  42  43
BRANCH  42  45
HETATM   45  C19 UNL     1      -9.044   0.576   0.603  1.00  0.00     0.160 C 
HETATM   46  C20 UNL     1      -9.761  -0.151  -0.548  1.00  0.00     0.041 C 
BRANCH  45  47
HETATM   47  N14 UNL     1      -8.988   1.918   0.300  1.00  0.00    -0.419 N 
ATOM     48 2H14 UNL     1      -8.513   2.400   1.063  1.00  0.00     0.150 HD
ATOM     49 1H14 UNL     1      -9.863   2.420   0.150  1.00  0.00     0.150 HD
ENDBRANCH  45  47
ENDBRANCH  42  45
ENDBRANCH  41  42
ENDBRANCH  14  41
BRANCH   1  50
HETATM   50  N1  UNL     1      -5.943   1.714  -1.649  1.00  0.00    -0.378 N 
HETATM   51  C1  UNL     1      -5.790   2.594  -2.793  1.00  0.00     0.147 C 
ATOM     52  H1  UNL     1      -6.875   1.375  -1.411  1.00  0.00     0.160 HD
ENDBRANCH   1  50
TORSDOF 13
