REMARK  13 active torsions:
REMARK  status: ('A' for Active; 'I' for Inactive)
REMARK    1  A    between atoms: C3_4  and  N2_5 
REMARK    2  A    between atoms: C4_8  and  N3_9 
REMARK    3  A    between atoms: C5_11  and  N4_12 
REMARK    4  A    between atoms: C5_11  and  O4_22 
REMARK    5  A    between atoms: N4_12  and  C6_14 
REMARK    6  A    between atoms: C6_14  and  C7_15 
REMARK    7  A    between atoms: C7_15  and  N5_16 
REMARK    8  A    between atoms: C7_15  and  O3_20 
REMARK    9  A    between atoms: O4_22  and  N6_23 
REMARK       I    between atoms: N6_23  and  C8_25 
REMARK   10  A    between atoms: C8_25  and  C9_27 
REMARK   11  A    between atoms: C9_27  and  C10_28 
REMARK   12  A    between atoms: C13_31  and  S1_32 
REMARK   13  A    between atoms: S1_32  and  N7_33 
ROOT
HETATM    1  N1  UNL     1      -3.228   5.061  -1.986  1.00  0.00    -0.191 NA
HETATM    2  C1  UNL     1      -3.210   4.224  -1.201  1.00  0.00     0.106 C 
HETATM    3  C2  UNL     1      -3.182   3.192  -0.194  1.00  0.00     0.123 A 
HETATM    4  C3  UNL     1      -3.053   1.862  -0.514  1.00  0.00     0.157 A 
HETATM    5  C4  UNL     1      -3.030   0.882   0.477  1.00  0.00     0.112 A 
HETATM    6  C16 UNL     1      -3.143   1.316   1.773  1.00  0.00     0.147 A 
HETATM    7  N8  UNL     1      -3.121   0.365   2.819  1.00  0.00    -0.080 NA
HETATM    8  N9  UNL     1      -3.266   2.609   2.049  1.00  0.00    -0.328 N 
ATOM      9  H9  UNL     1      -3.346   2.882   3.028  1.00  0.00     0.168 HD
HETATM   10  C17 UNL     1      -3.292   3.584   1.118  1.00  0.00     0.123 A 
HETATM   11  N10 UNL     1      -3.420   4.844   1.465  1.00  0.00    -0.384 N 
ATOM     12 1H10 UNL     1      -3.502   5.135   2.439  1.00  0.00     0.157 HD
ATOM     13 2H10 UNL     1      -3.440   5.582   0.761  1.00  0.00     0.157 HD
ENDROOT
BRANCH   4  14
HETATM   14  N2  UNL     1      -2.944   1.522  -1.891  1.00  0.00    -0.111 N 
HETATM   15  O1  UNL     1      -1.911   1.753  -2.507  1.00  0.00    -0.532 OA
HETATM   16  O2  UNL     1      -4.014   0.939  -2.502  1.00  0.00    -0.532 OA
ENDBRANCH   4  14
BRANCH   5  17
HETATM   17  N3  UNL     1      -2.909  -0.408   0.062  1.00  0.00    -0.316 N 
HETATM   18  C5  UNL     1      -2.218  -1.264  -0.418  1.00  0.00     0.244 C 
ATOM     19  H3  UNL     1      -3.814  -0.845   0.238  1.00  0.00     0.169 HD
BRANCH  18  20
HETATM   20  N4  UNL     1      -2.761  -2.596  -0.622  1.00  0.00    -0.350 N 
ATOM     21  H4  UNL     1      -2.221  -3.296  -1.130  1.00  0.00     0.163 HD
BRANCH  20  22
HETATM   22  C6  UNL     1      -4.076  -2.927  -0.100  1.00  0.00     0.184 C 
BRANCH  22  23
HETATM   23  C7  UNL     1      -4.367  -4.362  -0.447  1.00  0.00     0.334 C 
BRANCH  23  24
HETATM   24  N5  UNL     1      -3.299  -5.168   0.120  1.00  0.00    -0.051 N 
ATOM     25  H53 UNL     1      -2.371  -4.866  -0.176  1.00  0.00     0.277 HD
ATOM     26  H52 UNL     1      -3.173  -5.017   1.121  1.00  0.00     0.277 HD
ATOM     27  H51 UNL     1      -3.496  -6.141  -0.115  1.00  0.00     0.277 HD
ENDBRANCH  23  24
BRANCH  23  28
HETATM   28  O3  UNL     1      -5.620  -4.769   0.011  1.00  0.00    -0.369 OA
ATOM     29  H3  UNL     1      -5.804  -5.675  -0.208  1.00  0.00     0.212 HD
ENDBRANCH  23  28
ENDBRANCH  22  23
ENDBRANCH  20  22
ENDBRANCH  18  20
BRANCH  18  30
HETATM   30  O4  UNL     1      -0.920  -1.045  -0.792  1.00  0.00    -0.198 OA
BRANCH  30  31
HETATM   31  N6  UNL     1      -0.111  -0.266  -0.023  1.00  0.00    -0.225 N 
HETATM   32  C8  UNL     1       1.253  -0.274  -0.366  1.00  0.00     0.245 C 
HETATM   33  O5  UNL     1       1.716  -0.945  -1.314  1.00  0.00    -0.271 OA
ATOM     34  H6  UNL     1      -0.471   0.289   0.753  1.00  0.00     0.198 HD
BRANCH  32  35
HETATM   35  C9  UNL     1       2.188   0.549   0.429  1.00  0.00     0.143 C 
BRANCH  35  36
HETATM   36  C10 UNL     1       3.588   0.480   0.015  1.00  0.00    -0.049 A 
HETATM   37  C11 UNL     1       4.107   1.395  -0.876  1.00  0.00     0.009 A 
HETATM   38  C12 UNL     1       5.430   1.342  -1.274  1.00  0.00     0.026 A 
HETATM   39  C13 UNL     1       6.245   0.355  -0.773  1.00  0.00     0.079 A 
HETATM   40  C14 UNL     1       5.733  -0.580   0.130  1.00  0.00     0.026 A 
HETATM   41  C15 UNL     1       4.418  -0.525   0.526  1.00  0.00     0.009 A 
BRANCH  39  42
HETATM   42  S1  UNL     1       7.909   0.313  -1.290  1.00  0.00     0.256 S 
HETATM   43  O6  UNL     1       8.081   0.934  -2.648  1.00  0.00    -0.201 OA
HETATM   44  O7  UNL     1       8.425  -1.115  -1.313  1.00  0.00    -0.201 OA
BRANCH  42  45
HETATM   45  N7  UNL     1       8.824   1.254  -0.162  1.00  0.00    -0.324 N 
ATOM     46  H72 UNL     1       8.445   1.738   0.651  1.00  0.00     0.169 HD
ATOM     47  H71 UNL     1       9.798   1.229  -0.465  1.00  0.00     0.169 HD
ENDBRANCH  42  45
ENDBRANCH  39  42
ENDBRANCH  35  36
ENDBRANCH  32  35
ENDBRANCH  30  31
ENDBRANCH  18  30
ENDBRANCH   5  17
TORSDOF 13
