REMARK  14 active torsions:
REMARK  status: ('A' for Active; 'I' for Inactive)
REMARK    1  A    between atoms: N1_1  and  C1_4 
REMARK    2  A    between atoms: C2_7  and  N3_8 
REMARK    3  A    between atoms: N4_11  and  C5_12 
REMARK    4  A    between atoms: C10_17  and  O1_18 
REMARK    5  A    between atoms: C14_23  and  N5_24 
REMARK    6  A    between atoms: N5_24  and  C15_26 
REMARK    7  A    between atoms: N8_31  and  C17_32 
REMARK    8  A    between atoms: C17_32  and  O2_33 
REMARK    9  A    between atoms: O2_33  and  C18_34 
REMARK   10  A    between atoms: C18_34  and  C19_35 
REMARK   11  A    between atoms: C18_34  and  C20_38 
REMARK   12  A    between atoms: C19_35  and  O3_36 
REMARK   13  A    between atoms: C20_38  and  O4_39 
REMARK   14  A    between atoms: C21_41  and  N9_42 
ROOT
HETATM    1  C1  UNL     1       0.486   1.833   2.002  1.00  0.00     0.679 A 
HETATM    2  N2  UNL     1       1.782   1.587   1.746  1.00  0.00    -0.177 N 
ATOM      3  H2  UNL     1       2.445   1.645   2.519  1.00  0.00     0.185 HD
HETATM    4  C2  UNL     1       2.255   1.268   0.526  1.00  0.00     0.122 A 
HETATM    5  C13 UNL     1       1.302   1.204  -0.480  1.00  0.00     0.098 A 
HETATM    6  C14 UNL     1      -0.045   1.462  -0.202  1.00  0.00     0.140 A 
HETATM    7  N11 UNL     1      -0.452   1.776   1.041  1.00  0.00    -0.176 N 
ATOM      8  H11 UNL     1      -1.433   1.963   1.246  1.00  0.00     0.186 HD
ENDROOT
BRANCH   6   9
HETATM    9  N5  UNL     1      -1.022   1.398  -1.226  1.00  0.00    -0.175 N 
ATOM     10  H5  UNL     1      -0.845   1.912  -2.089  1.00  0.00     0.186 HD
BRANCH   9  11
HETATM   11  C15 UNL     1      -2.118   0.732  -1.135  1.00  0.00     0.700 A 
HETATM   12  N6  UNL     1      -2.478   0.010  -0.059  1.00  0.00    -0.162 N 
HETATM   13  C16 UNL     1      -3.647  -0.673  -0.020  1.00  0.00     0.226 A 
ATOM     14  H6  UNL     1      -1.855  -0.024   0.748  1.00  0.00     0.187 HD
HETATM   15  N7  UNL     1      -4.035  -1.439   1.114  1.00  0.00    -0.062 NA
HETATM   16  N8  UNL     1      -4.493  -0.654  -1.061  1.00  0.00    -0.132 N 
HETATM   17  C21 UNL     1      -4.145   0.065  -2.145  1.00  0.00     0.696 A 
HETATM   18  N10 UNL     1      -2.969   0.746  -2.171  1.00  0.00    -0.022 N 
ATOM     19  H10 UNL     1      -2.727   1.284  -3.003  1.00  0.00     0.203 HD
BRANCH  16  20
HETATM   20  C17 UNL     1      -5.749  -1.385  -1.019  1.00  0.00     0.320 C 
BRANCH  20  21
HETATM   21  O2  UNL     1      -6.782  -0.635  -0.517  1.00  0.00    -0.361 OA
BRANCH  21  22
HETATM   22  C18 UNL     1      -7.937  -1.377  -0.503  1.00  0.00     0.170 C 
BRANCH  22  23
HETATM   23  C19 UNL     1      -8.958  -0.748  -1.428  1.00  0.00     0.198 C 
BRANCH  23  24
HETATM   24  O3  UNL     1      -9.292   0.542  -1.075  1.00  0.00    -0.398 OA
ATOM     25  H3  UNL     1      -9.932   0.937  -1.655  1.00  0.00     0.209 HD
ENDBRANCH  23  24
ENDBRANCH  22  23
BRANCH  22  26
HETATM   26  C20 UNL     1      -8.517  -1.540   0.884  1.00  0.00     0.198 C 
BRANCH  26  27
HETATM   27  O4  UNL     1      -8.832  -0.309   1.457  1.00  0.00    -0.398 OA
ATOM     28  H4  UNL     1      -9.196  -0.411   2.328  1.00  0.00     0.209 HD
ENDBRANCH  26  27
ENDBRANCH  22  26
ENDBRANCH  21  22
ENDBRANCH  20  21
ENDBRANCH  16  20
BRANCH  17  29
HETATM   29  N9  UNL     1      -4.953   0.089  -3.149  1.00  0.00    -0.234 N 
ATOM     30  H92 UNL     1      -5.836  -0.422  -3.129  1.00  0.00     0.174 HD
ATOM     31  H91 UNL     1      -4.689   0.634  -3.970  1.00  0.00     0.174 HD
ENDBRANCH  17  29
ENDBRANCH   9  11
ENDBRANCH   6   9
BRANCH   4  32
HETATM   32  N3  UNL     1       3.636   1.015   0.294  1.00  0.00    -0.364 N 
HETATM   33  C3  UNL     1       4.532   1.100   1.438  1.00  0.00     0.144 C 
HETATM   34  C4  UNL     1       5.134  -0.303   1.589  1.00  0.00     0.143 C 
HETATM   35  N4  UNL     1       5.823  -0.568   0.341  1.00  0.00    -0.376 N 
HETATM   36  C11 UNL     1       5.002  -0.623  -0.855  1.00  0.00     0.143 C 
HETATM   37  C12 UNL     1       4.215   0.685  -0.967  1.00  0.00     0.144 C 
BRANCH  35  38
HETATM   38  C5  UNL     1       7.222  -0.763   0.290  1.00  0.00     0.063 A 
HETATM   39  C6  UNL     1       7.968   0.171  -0.438  1.00  0.00     0.032 A 
HETATM   40  C7  UNL     1       9.346   0.020  -0.506  1.00  0.00     0.002 A 
HETATM   41  C8  UNL     1       9.982  -1.038   0.136  1.00  0.00     0.003 A 
HETATM   42  C9  UNL     1       9.221  -1.935   0.840  1.00  0.00     0.039 A 
HETATM   43  C10 UNL     1       7.851  -1.803   0.920  1.00  0.00     0.092 A 
BRANCH  43  44
HETATM   44  O1  UNL     1       7.103  -2.717   1.633  1.00  0.00    -0.358 OA
ATOM     45  H1  UNL     1       7.539  -3.439   2.070  1.00  0.00     0.217 HD
ENDBRANCH  43  44
ENDBRANCH  35  38
ENDBRANCH   4  32
BRANCH   1  46
HETATM   46  N1  UNL     1       0.141   2.129   3.203  1.00  0.00    -0.234 N 
ATOM     47  H12 UNL     1       0.853   2.172   3.932  1.00  0.00     0.174 HD
ATOM     48  H11 UNL     1      -0.843   2.316   3.397  1.00  0.00     0.174 HD
ENDBRANCH   1  46
TORSDOF 14
