REMARK  2 active torsions:
REMARK  status: ('A' for Active; 'I' for Inactive)
REMARK    1  A    between atoms: N1_1  and  C1_5 
REMARK    2  A    between atoms: C5_14  and  O1_15 
ROOT
HETATM    1  C1  UNL     1       0.851  -0.053  -0.638  1.00  0.00     0.296 C 
HETATM    2  C2  UNL     1       0.081  -1.326  -0.415  1.00  0.00     0.285 C 
HETATM    3  F1  UNL     1      -0.741  -1.520  -1.502  1.00  0.00    -0.240 F 
HETATM    4  C3  UNL     1      -0.815  -0.989   0.761  1.00  0.00     0.346 C 
HETATM    5  F2  UNL     1      -1.821  -1.877   0.950  1.00  0.00    -0.196 F 
HETATM    6  F3  UNL     1      -0.085  -0.778   1.921  1.00  0.00    -0.196 F 
HETATM    7  C4  UNL     1      -1.317   0.393   0.333  1.00  0.00     0.372 C 
HETATM    8  F4  UNL     1      -2.155   0.328  -0.742  1.00  0.00    -0.193 F 
HETATM    9  F5  UNL     1      -1.939   1.055   1.349  1.00  0.00    -0.193 F 
HETATM   10  C5  UNL     1       0.027   1.043  -0.024  1.00  0.00     0.306 C 
HETATM   11  F6  UNL     1       0.642   1.495   1.130  1.00  0.00    -0.202 F 
ENDROOT
BRANCH   1  12
HETATM   12  N1  UNL     1       2.160  -0.184  -0.071  1.00  0.00    -0.066 N 
ATOM     13  H13 UNL     1       2.130  -0.450   0.913  1.00  0.00     0.275 HD
ATOM     14  H12 UNL     1       2.655  -1.002  -0.427  1.00  0.00     0.275 HD
ATOM     15  H11 UNL     1       2.682   0.679  -0.222  1.00  0.00     0.275 HD
ENDBRANCH   1  12
BRANCH  10  16
HETATM   16  O1  UNL     1      -0.240   2.077  -0.916  1.00  0.00    -0.355 OA
ATOM     17  H1  UNL     1      -0.761   2.770  -0.528  1.00  0.00     0.213 HD
ENDBRANCH  10  16
TORSDOF 2
