REMARK  4 active torsions:
REMARK  status: ('A' for Active; 'I' for Inactive)
REMARK    1  A    between atoms: C2_2  and  C4_4 
REMARK    2  A    between atoms: C4_4  and  C5_5 
REMARK    3  A    between atoms: C7_9  and  C8_10 
REMARK       I    between atoms: C8_10  and  N2_12 
REMARK    4  A    between atoms: N2_12  and  C9_14 
ROOT
HETATM    1  C5  UNL     1       1.429   0.931   0.731  1.00  0.00     0.106 C 
HETATM    2  C6  UNL     1       2.469   1.945   1.164  1.00  0.00     0.063 C 
HETATM    3  N1  UNL     1       0.208   1.687   0.622  1.00  0.00    -0.381 N 
ATOM      4  H1  UNL     1       0.226   2.669   0.348  1.00  0.00     0.156 HD
HETATM    5  C7  UNL     1      -1.004   1.044   0.900  1.00  0.00     0.197 C 
HETATM    6  C12 UNL     1      -0.928  -0.194   1.692  1.00  0.00     0.034 C 
HETATM    7  C13 UNL     1       0.182  -0.716   2.130  1.00  0.00     0.039 C 
HETATM    8  C14 UNL     1       0.909  -1.788   2.879  1.00  0.00     0.200 C 
HETATM    9 BR1  UNL     1       1.119  -3.337   1.773  1.00  0.00    -0.074 Br
HETATM   10  C15 UNL     1       1.989  -0.803   2.869  1.00  0.00     0.246 C 
HETATM   11  O2  UNL     1       3.048  -0.639   3.516  1.00  0.00    -0.271 OA
HETATM   12  N3  UNL     1       1.398  -0.051   1.819  1.00  0.00    -0.292 N 
ENDROOT
BRANCH   5  13
HETATM   13  C8  UNL     1      -1.846   0.769  -0.296  1.00  0.00     0.244 C 
HETATM   14  O1  UNL     1      -1.461   1.110  -1.445  1.00  0.00    -0.271 OA
HETATM   15  N2  UNL     1      -3.103   0.119  -0.198  1.00  0.00    -0.355 N 
ATOM     16  H2  UNL     1      -3.437  -0.167   0.722  1.00  0.00     0.162 HD
BRANCH  15  17
HETATM   17  C9  UNL     1      -3.925  -0.152  -1.349  1.00  0.00     0.076 C 
HETATM   18  C10 UNL     1      -5.247   0.580  -1.125  1.00  0.00     0.032 C 
HETATM   19  C11 UNL     1      -4.246  -1.614  -1.501  1.00  0.00     0.032 C 
ENDBRANCH  15  17
ENDBRANCH   5  13
BRANCH   1  20
HETATM   20  C4  UNL     1       1.721   0.305  -0.582  1.00  0.00     0.057 C 
BRANCH  20  21
HETATM   21  C2  UNL     1       2.980  -0.459  -0.731  1.00  0.00    -0.019 C 
HETATM   22  C1  UNL     1       2.980  -0.986  -2.185  1.00  0.00     0.009 C 
HETATM   23  C3  UNL     1       4.255   0.319  -0.609  1.00  0.00     0.009 C 
ENDBRANCH  20  21
ENDBRANCH   1  20
TORSDOF 4
