REMARK  1 active torsions:
REMARK  status: ('A' for Active; 'I' for Inactive)
REMARK    1  A    between atoms: O1_2  and  C2_3 
ROOT
HETATM    1  C2  UNL     1       1.980  -0.172  -0.373  1.00  0.00     0.120 C 
HETATM    2  C3  UNL     1       1.518  -0.646   0.978  1.00  0.00     0.032 C 
HETATM    3  C4  UNL     1       0.635   0.396   1.573  1.00  0.00     0.005 C 
HETATM    4  C5  UNL     1      -0.511   0.820   0.755  1.00  0.00     0.033 C 
HETATM    5  C6  UNL     1      -1.192  -0.245  -0.040  1.00  0.00     0.055 C 
HETATM    6  C7  UNL     1      -0.324  -0.931  -1.031  1.00  0.00     0.036 C 
HETATM    7  C8  UNL     1       0.907  -0.152  -1.409  1.00  0.00     0.034 C 
HETATM    8  C9  UNL     1      -1.849  -1.300   0.840  1.00  0.00     0.209 C 
HETATM    9  O2  UNL     1      -3.102  -0.690   1.076  1.00  0.00    -0.322 OA
HETATM   10  C10 UNL     1      -3.421   0.093  -0.010  1.00  0.00     0.228 C 
HETATM   11  N1  UNL     1      -4.763   0.548  -0.369  1.00  0.00    -0.056 NA
HETATM   12  N2  UNL     1      -2.350   0.353  -0.651  1.00  0.00    -0.347 N 
ATOM     13  H2  UNL     1      -2.318   0.919  -1.499  1.00  0.00     0.163 HD
ENDROOT
BRANCH   1  14
HETATM   14  O1  UNL     1       2.483   1.123  -0.204  1.00  0.00    -0.391 OA
HETATM   15  C1  UNL     1       3.840   1.165  -0.457  1.00  0.00     0.202 C 
ENDBRANCH   1  14
TORSDOF 1
