REMARK  6 active torsions:
REMARK  status: ('A' for Active; 'I' for Inactive)
REMARK    1  A    between atoms: N1_1  and  C1_4 
REMARK    2  A    between atoms: N2_8  and  C5_9 
REMARK    3  A    between atoms: C5_9  and  C6_10 
REMARK    4  A    between atoms: C6_10  and  C7_11 
REMARK    5  A    between atoms: C7_11  and  C8_12 
REMARK    6  A    between atoms: C9_13  and  N3_14 
ROOT
HETATM    1  C1  UNL     1      -3.200   0.687  -0.434  1.00  0.00     0.113 A 
HETATM    2  C2  UNL     1      -3.865  -0.057   0.547  1.00  0.00     0.051 A 
HETATM    3  C3  UNL     1      -3.206  -1.110   1.125  1.00  0.00     0.023 A 
HETATM    4  C4  UNL     1      -1.921  -1.378   0.705  1.00  0.00     0.110 A 
HETATM    5  N2  UNL     1      -1.296  -0.665  -0.229  1.00  0.00    -0.302 N 
HETATM    6  N4  UNL     1      -1.943   0.344  -0.775  1.00  0.00    -0.284 N 
ATOM      7  H4  UNL     1      -1.468   0.893  -1.492  1.00  0.00     0.188 HD
ENDROOT
BRANCH   5   8
HETATM    8  C5  UNL     1       0.052  -0.949  -0.667  1.00  0.00     0.149 C 
BRANCH   8   9
HETATM    9  C6  UNL     1       1.010  -0.160   0.208  1.00  0.00     0.034 C 
BRANCH   9  10
HETATM   10  C7  UNL     1       2.419  -0.460  -0.255  1.00  0.00     0.097 C 
BRANCH  10  11
HETATM   11  C8  UNL     1       3.368   0.296   0.581  1.00  0.00    -0.084 C 
HETATM   12  C9  UNL     1       4.135   0.911   1.283  1.00  0.00     0.003 C 
BRANCH  12  13
HETATM   13  N3  UNL     1       5.020   1.608   2.115  1.00  0.00    -0.359 N 
ATOM     14  H32 UNL     1       4.421   0.784   2.167  1.00  0.00     0.166 HD
ATOM     15  H31 UNL     1       5.668   2.127   2.708  1.00  0.00     0.166 HD
ENDBRANCH  12  13
ENDBRANCH  10  11
ENDBRANCH   9  10
ENDBRANCH   8   9
ENDBRANCH   5   8
BRANCH   1  16
HETATM   16  N1  UNL     1      -3.813   1.672  -0.977  1.00  0.00    -0.384 N 
ATOM     17  H12 UNL     1      -4.765   1.932  -0.719  1.00  0.00     0.157 HD
ATOM     18  H11 UNL     1      -3.328   2.214  -1.692  1.00  0.00     0.157 HD
ENDBRANCH   1  16
TORSDOF 6
