REMARK  6 active torsions:
REMARK  status: ('A' for Active; 'I' for Inactive)
REMARK    1  A    between atoms: C2_3  and  C3_5 
REMARK    2  A    between atoms: C3_5  and  N2_6 
REMARK    3  A    between atoms: C4_12  and  N4_13 
REMARK    4  A    between atoms: N4_13  and  C5_15 
REMARK    5  A    between atoms: C5_15  and  C6_16 
REMARK    6  A    between atoms: C5_15  and  C7_19 
ROOT
HETATM    1  N1  UNL     1       1.295  -2.231   3.262  1.00  0.00    -0.188 NA
HETATM    2  C1  UNL     1       1.758  -2.148   2.206  1.00  0.00     0.143 C 
HETATM    3  C2  UNL     1       2.297  -2.111   0.903  1.00  0.00     0.290 C 
HETATM    4  O1  UNL     1       3.419  -2.694   0.706  1.00  0.00    -0.276 OA
ENDROOT
BRANCH   3   5
HETATM    5  C3  UNL     1       1.620  -1.456  -0.239  1.00  0.00     0.314 A 
HETATM    6  N3  UNL     1       0.216  -1.838  -0.333  1.00  0.00    -0.179 N 
HETATM    7  C4  UNL     1      -0.814  -0.852  -0.320  1.00  0.00     0.678 A 
ATOM      8  H3  UNL     1      -0.033  -2.824  -0.409  1.00  0.00     0.181 HD
HETATM    9  N5  UNL     1      -0.442   0.391  -0.291  1.00  0.00    -0.191 N 
HETATM   10  C8  UNL     1       0.867   0.900  -0.263  1.00  0.00     0.061 A 
ATOM     11  H5  UNL     1      -1.192   1.083  -0.288  1.00  0.00     0.184 HD
HETATM   12  C9  UNL     1       1.136   2.233  -0.205  1.00  0.00     0.053 A 
HETATM   13  C14 UNL     1       1.886  -0.040  -0.282  1.00  0.00     0.034 A 
HETATM   14  C10 UNL     1       2.446   2.705  -0.169  1.00  0.00     0.046 A 
HETATM   15  C11 UNL     1       2.695   4.139   0.069  1.00  0.00     0.099 C 
HETATM   16  C12 UNL     1       3.463   1.791  -0.199  1.00  0.00     0.023 A 
HETATM   17  N6  UNL     1       2.914   5.245   0.288  1.00  0.00    -0.191 NA
HETATM   18  C13 UNL     1       3.195   0.428  -0.250  1.00  0.00     0.016 A 
BRANCH   5  19
HETATM   19  N2  UNL     1       2.260  -2.141  -1.430  1.00  0.00    -0.039 N 
ATOM     20  H23 UNL     1       3.279  -2.100  -1.453  1.00  0.00     0.278 HD
ATOM     21  H22 UNL     1       2.203  -3.159  -1.423  1.00  0.00     0.278 HD
ATOM     22  H21 UNL     1       1.794  -1.690  -2.217  1.00  0.00     0.278 HD
ENDBRANCH   5  19
BRANCH   7  23
HETATM   23  N4  UNL     1      -2.199  -1.104  -0.335  1.00  0.00    -0.202 N 
ATOM     24  H4  UNL     1      -2.564  -2.042  -0.502  1.00  0.00     0.179 HD
BRANCH  23  25
HETATM   25  C5  UNL     1      -3.101   0.033  -0.102  1.00  0.00     0.301 C 
BRANCH  25  26
HETATM   26  C6  UNL     1      -4.431  -0.241  -0.716  1.00  0.00     0.208 C 
HETATM   27  O2  UNL     1      -4.935  -1.352  -0.513  1.00  0.00    -0.646 OA
HETATM   28  O3  UNL     1      -5.034   0.764  -1.500  1.00  0.00    -0.646 OA
ENDBRANCH  25  26
BRANCH  25  29
HETATM   29  C7  UNL     1      -3.304   0.145   1.403  1.00  0.00     0.208 C 
HETATM   30  O4  UNL     1      -3.059  -0.876   2.074  1.00  0.00    -0.646 OA
HETATM   31  O5  UNL     1      -3.729   1.298   2.008  1.00  0.00    -0.646 OA
ENDBRANCH  25  29
ENDBRANCH  23  25
ENDBRANCH   7  23
ENDBRANCH   3   5
TORSDOF 6
