REMARK  2 active torsions:
REMARK  status: ('A' for Active; 'I' for Inactive)
REMARK    1  A    between atoms: C1_2  and  C2_4 
REMARK    2  A    between atoms: C2_4  and  C3_5 
ROOT
HETATM    1  C3  UNL     1       0.766   0.145  -0.375  1.00  0.00     0.076 C 
HETATM    2  C4  UNL     1       0.354  -1.307  -0.263  1.00  0.00     0.043 C 
HETATM    3  C5  UNL     1      -1.126  -1.409   0.041  1.00  0.00    -0.005 C 
HETATM    4  C6  UNL     1      -1.523  -0.653   1.271  1.00  0.00     0.048 C 
HETATM    5  C7  UNL     1      -1.020   0.753   1.156  1.00  0.00     0.110 C 
HETATM    6  F1  UNL     1      -1.362   1.482   2.275  1.00  0.00    -0.243 F 
HETATM    7  C8  UNL     1      -1.708   1.421  -0.024  1.00  0.00     0.093 C 
HETATM    8  C9  UNL     1      -1.320   0.643  -1.257  1.00  0.00     0.122 C 
HETATM    9 BR1  UNL     1      -2.142   1.416  -2.840  1.00  0.00    -0.054 Br
HETATM   10  C10 UNL     1      -1.858  -0.779  -1.138  1.00  0.00     0.055 C 
HETATM   11  O3  UNL     1       0.034   0.692  -1.428  1.00  0.00    -0.357 OA
HETATM   12  C11 UNL     1       0.480   0.815   0.938  1.00  0.00     0.082 C 
ENDROOT
BRANCH   1  13
HETATM   13  C2  UNL     1       2.209   0.234  -0.786  1.00  0.00     0.151 C 
BRANCH  13  14
HETATM   14  C1  UNL     1       3.158  -0.387   0.122  1.00  0.00     0.175 C 
HETATM   15  O1  UNL     1       3.308  -1.635   0.050  1.00  0.00    -0.648 OA
HETATM   16  O2  UNL     1       3.939   0.238   1.082  1.00  0.00    -0.648 OA
ENDBRANCH  13  14
ENDBRANCH   1  13
TORSDOF 2
