REMARK  7 active torsions:
REMARK  status: ('A' for Active; 'I' for Inactive)
REMARK    1  A    between atoms: C3_4  and  C4_5 
REMARK    2  A    between atoms: C10_11  and  C11_12 
REMARK    3  A    between atoms: N2_20  and  C18_21 
REMARK    4  A    between atoms: C19_23  and  C20_24 
REMARK    5  A    between atoms: C20_24  and  O2_25 
REMARK    6  A    between atoms: C21_27  and  O3_28 
REMARK    7  A    between atoms: C22_30  and  O4_31 
ROOT
HETATM    1  N1  UNL     1      -1.374  -4.753  -0.139  1.00  0.00    -0.191 NA
HETATM    2  C1  UNL     1      -0.969  -3.650  -0.110  1.00  0.00     0.103 C 
HETATM    3  C2  UNL     1      -0.470  -2.307  -0.070  1.00  0.00     0.094 A 
HETATM    4  C3  UNL     1      -1.365  -1.257  -0.117  1.00  0.00     0.010 A 
HETATM    5  C10 UNL     1      -0.923   0.033  -0.080  1.00  0.00     0.003 A 
HETATM    6  C17 UNL     1       0.453   0.273   0.006  1.00  0.00     0.108 A 
HETATM    7  N2  UNL     1       1.329  -0.735   0.052  1.00  0.00    -0.316 N 
HETATM    8  C23 UNL     1       0.876  -2.011   0.015  1.00  0.00     0.126 A 
HETATM    9  S1  UNL     1       1.915  -3.253   0.069  1.00  0.00    -0.059 SA
ENDROOT
BRANCH   4  10
HETATM   10  C4  UNL     1      -2.778  -1.567  -0.201  1.00  0.00    -0.023 A 
HETATM   11  C5  UNL     1      -3.712  -1.260   0.766  1.00  0.00     0.012 A 
HETATM   12  C6  UNL     1      -5.051  -1.589   0.620  1.00  0.00     0.001 A 
HETATM   13  C7  UNL     1      -5.509  -2.242  -0.503  1.00  0.00     0.000 A 
HETATM   14  C8  UNL     1      -4.585  -2.558  -1.482  1.00  0.00     0.001 A 
HETATM   15  C9  UNL     1      -3.265  -2.231  -1.333  1.00  0.00     0.012 A 
ENDBRANCH   4  10
BRANCH   5  16
HETATM   16  C11 UNL     1      -1.874   1.133  -0.135  1.00  0.00    -0.024 A 
HETATM   17  C12 UNL     1      -1.959   1.959   0.978  1.00  0.00     0.015 A 
HETATM   18  C13 UNL     1      -2.842   3.024   0.979  1.00  0.00     0.043 A 
HETATM   19  C14 UNL     1      -3.629   3.254  -0.127  1.00  0.00     0.116 A 
HETATM   20  F1  UNL     1      -4.484   4.293  -0.113  1.00  0.00    -0.206 F 
HETATM   21  C15 UNL     1      -3.532   2.429  -1.218  1.00  0.00     0.043 A 
HETATM   22  C16 UNL     1      -2.659   1.356  -1.248  1.00  0.00     0.015 A 
ENDBRANCH   5  16
BRANCH   7  23
HETATM   23  C18 UNL     1       2.750  -0.534   0.140  1.00  0.00     0.260 C 
HETATM   24  O1  UNL     1       3.273   0.079  -0.997  1.00  0.00    -0.353 OA
HETATM   25  C19 UNL     1       4.591   0.322  -0.619  1.00  0.00     0.179 C 
HETATM   26  C21 UNL     1       4.593   0.751   0.810  1.00  0.00     0.182 C 
HETATM   27  C22 UNL     1       3.150   0.441   1.229  1.00  0.00     0.198 C 
BRANCH  25  28
HETATM   28  C20 UNL     1       5.245   1.336  -1.547  1.00  0.00     0.198 C 
BRANCH  28  29
HETATM   29  O2  UNL     1       6.546   1.587  -1.187  1.00  0.00    -0.398 OA
ATOM     30  H2  UNL     1       6.954   2.220  -1.766  1.00  0.00     0.209 HD
ENDBRANCH  28  29
ENDBRANCH  25  28
BRANCH  26  31
HETATM   31  O3  UNL     1       4.904   2.086   1.003  1.00  0.00    -0.390 OA
ATOM     32  H3  UNL     1       4.905   2.359   1.913  1.00  0.00     0.210 HD
ENDBRANCH  26  31
BRANCH  27  33
HETATM   33  O4  UNL     1       3.117  -0.137   2.489  1.00  0.00    -0.388 OA
ATOM     34  H4  UNL     1       3.368   0.474   3.172  1.00  0.00     0.210 HD
ENDBRANCH  27  33
ENDBRANCH   7  23
TORSDOF 7
