REMARK  7 active torsions:
REMARK  status: ('A' for Active; 'I' for Inactive)
REMARK    1  A    between atoms: N1_2  and  C2_4 
REMARK    2  A    between atoms: N3_7  and  C3_8 
REMARK    3  A    between atoms: C4_10  and  N4_11 
REMARK    4  A    between atoms: C6_13  and  C7_14 
REMARK    5  A    between atoms: C13_20  and  C14_21 
REMARK    6  A    between atoms: C18_28  and  O2_29 
REMARK    7  A    between atoms: C19_31  and  O3_32 
ROOT
HETATM    1  C3  UNL     1       2.603  -0.690   0.245  1.00  0.00     0.277 A 
HETATM    2  O1  UNL     1       1.738   0.056  -0.493  1.00  0.00    -0.334 OA
HETATM    3  C4  UNL     1       0.952   0.820   0.324  1.00  0.00     0.277 A 
HETATM    4  C18 UNL     1       1.379   0.659   1.736  1.00  0.00     0.201 A 
HETATM    5  C19 UNL     1       2.514  -0.304   1.679  1.00  0.00     0.201 A 
ENDROOT
BRANCH   3   6
HETATM    6  N4  UNL     1      -0.479   0.556   0.139  1.00  0.00    -0.270 N 
HETATM    7  C5  UNL     1      -1.374   1.376  -0.422  1.00  0.00     0.128 A 
HETATM    8  C6  UNL     1      -2.597   0.732  -0.389  1.00  0.00     0.021 A 
HETATM    9  C13 UNL     1      -2.414  -0.502   0.209  1.00  0.00     0.077 A 
HETATM   10  N5  UNL     1      -1.106  -0.559   0.512  1.00  0.00    -0.294 N 
ATOM     11  H5  UNL     1      -0.653  -1.351   0.967  1.00  0.00     0.187 HD
BRANCH   8  12
HETATM   12  C7  UNL     1      -3.895   1.176  -0.865  1.00  0.00    -0.022 A 
HETATM   13  C8  UNL     1      -4.509   0.457  -1.866  1.00  0.00     0.012 A 
HETATM   14  C9  UNL     1      -5.747   0.837  -2.356  1.00  0.00     0.001 A 
HETATM   15  C10 UNL     1      -6.393   1.942  -1.852  1.00  0.00     0.000 A 
HETATM   16  C11 UNL     1      -5.770   2.663  -0.843  1.00  0.00     0.001 A 
HETATM   17  C12 UNL     1      -4.538   2.281  -0.359  1.00  0.00     0.012 A 
ENDBRANCH   8  12
BRANCH   9  18
HETATM   18  C14 UNL     1      -3.439  -1.538   0.463  1.00  0.00     0.033 A 
HETATM   19  C15 UNL     1      -4.535  -1.427   1.275  1.00  0.00     0.021 A 
HETATM   20  C16 UNL     1      -5.345  -2.494   1.366  1.00  0.00     0.008 A 
HETATM   21  C17 UNL     1      -5.006  -3.603   0.638  1.00  0.00     0.050 A 
HETATM   22  S1  UNL     1      -3.572  -3.123  -0.146  1.00  0.00    -0.100 SA
ENDBRANCH   9  18
ENDBRANCH   3   6
BRANCH   4  23
HETATM   23  O2  UNL     1       0.396   0.143   2.567  1.00  0.00    -0.388 OA
ATOM     24  H2  UNL     1       0.669   0.040   3.471  1.00  0.00     0.210 HD
ENDBRANCH   4  23
BRANCH   1  25
HETATM   25  N3  UNL     1       4.000  -0.556  -0.178  1.00  0.00    -0.267 N 
HETATM   26  N2  UNL     1       4.711   0.550  -0.147  1.00  0.00    -0.279 N 
HETATM   27  C2  UNL     1       5.954   0.336  -0.603  1.00  0.00     0.156 A 
ATOM     28  H2  UNL     1       4.363   1.451   0.180  1.00  0.00     0.189 HD
HETATM   29  C21 UNL     1       6.029  -0.994  -0.943  1.00  0.00     0.178 A 
HETATM   30  C20 UNL     1       4.782  -1.519  -0.662  1.00  0.00     0.159 A 
HETATM   31  F1  UNL     1       7.116  -1.628  -1.448  1.00  0.00    -0.201 F 
BRANCH  27  32
HETATM   32  N1  UNL     1       6.916   1.181  -0.715  1.00  0.00    -0.377 N 
HETATM   33  C1  UNL     1       8.222   0.814  -1.228  1.00  0.00     0.148 C 
ATOM     34  H1  UNL     1       6.755   2.148  -0.432  1.00  0.00     0.160 HD
ENDBRANCH  27  32
ENDBRANCH   1  25
BRANCH   5  35
HETATM   35  O3  UNL     1       2.343  -1.396   2.530  1.00  0.00    -0.388 OA
ATOM     36  H3  UNL     1       2.286  -1.150   3.446  1.00  0.00     0.210 HD
ENDBRANCH   5  35
TORSDOF 7
