REMARK  8 active torsions:
REMARK  status: ('A' for Active; 'I' for Inactive)
REMARK    1  A    between atoms: O1_2  and  C2_3 
REMARK    2  A    between atoms: C2_3  and  C3_5 
REMARK    3  A    between atoms: C5_8  and  O4_10 
REMARK    4  A    between atoms: C7_12  and  N1_13 
REMARK    5  A    between atoms: N1_13  and  C8_15 
REMARK    6  A    between atoms: C8_15  and  O5_16 
REMARK    7  A    between atoms: C8_15  and  C9_18 
REMARK    8  A    between atoms: C19_30  and  O6_31 
ROOT
HETATM    1  N1  UNL     1      -1.437  -0.745   0.326  1.00  0.00    -0.360 N 
ATOM      2  H1  UNL     1      -1.548   0.268   0.370  1.00  0.00     0.162 HD
ENDROOT
BRANCH   1   3
HETATM    3  C7  UNL     1      -2.664  -1.564   0.330  1.00  0.00     0.151 C 
HETATM    4  C5  UNL     1      -2.877  -2.031  -1.090  1.00  0.00     0.098 C 
HETATM    5  C4  UNL     1      -3.400  -0.777  -1.814  1.00  0.00     0.208 C 
HETATM    6  C6  UNL     1      -4.013  -3.052  -1.097  1.00  0.00     0.050 C 
HETATM    7  O3  UNL     1      -4.703  -0.681  -1.416  1.00  0.00    -0.370 OA
HETATM    8  C3  UNL     1      -4.842  -0.296  -0.079  1.00  0.00     0.251 C 
HETATM    9  C19 UNL     1      -3.800  -0.792   0.863  1.00  0.00     0.182 C 
BRANCH   4  10
HETATM   10  O4  UNL     1      -1.755  -2.520  -1.679  1.00  0.00    -0.386 OA
ATOM     11  H4  UNL     1      -1.432  -3.294  -1.232  1.00  0.00     0.210 HD
ENDBRANCH   4  10
BRANCH   8  12
HETATM   12  C2  UNL     1      -5.028   1.180  -0.044  1.00  0.00     0.290 C 
HETATM   13  O2  UNL     1      -4.962   1.866  -1.128  1.00  0.00    -0.262 OA
BRANCH  12  14
HETATM   14  O1  UNL     1      -5.281   1.923   1.098  1.00  0.00    -0.324 OA
HETATM   15  C1  UNL     1      -5.459   3.352   1.004  1.00  0.00     0.213 C 
ENDBRANCH  12  14
ENDBRANCH   8  12
BRANCH   9  16
HETATM   16  O6  UNL     1      -3.288   0.335   1.532  1.00  0.00    -0.390 OA
ATOM     17  H6  UNL     1      -2.623   0.019   2.133  1.00  0.00     0.210 HD
ENDBRANCH   9  16
ENDBRANCH   1   3
BRANCH   1  18
HETATM   18  C8  UNL     1      -0.152  -1.242   0.267  1.00  0.00     0.154 C 
BRANCH  18  19
HETATM   19  O5  UNL     1      -0.027  -2.541   0.205  1.00  0.00    -0.345 OA
ATOM     20  H5  UNL     1       0.858  -2.883   0.164  1.00  0.00     0.219 HD
ENDBRANCH  18  19
BRANCH  18  21
HETATM   21  C9  UNL     1       1.142  -0.561   0.255  1.00  0.00     0.063 A 
HETATM   22  S1  UNL     1       2.685  -1.286  -0.163  1.00  0.00    -0.084 SA
HETATM   23  C10 UNL     1       3.740  -0.009   0.244  1.00  0.00     0.030 A 
HETATM   24  C11 UNL     1       5.182  -0.084   0.228  1.00  0.00    -0.061 C 
HETATM   25  C16 UNL     1       2.865   0.933   0.691  1.00  0.00     0.058 A 
HETATM   26  C12 UNL     1       5.887   0.322  -1.038  1.00  0.00     0.036 C 
HETATM   27  C15 UNL     1       6.016   0.315   1.357  1.00  0.00     0.036 C 
HETATM   28  C13 UNL     1       7.332   0.170  -0.696  1.00  0.00     0.005 C 
HETATM   29  C14 UNL     1       7.414   0.578   0.758  1.00  0.00     0.005 C 
HETATM   30 CL1  UNL     1       3.557   2.504   1.233  1.00  0.00    -0.082 Cl
HETATM   31  C17 UNL     1       1.557   0.666   0.695  1.00  0.00    -0.018 A 
HETATM   32  C18 UNL     1       0.509   1.689   1.120  1.00  0.00     0.052 C 
ENDBRANCH  18  21
ENDBRANCH   1  18
TORSDOF 8
