REMARK  8 active torsions:
REMARK  status: ('A' for Active; 'I' for Inactive)
REMARK    1  A    between atoms: C2_2  and  C3_3 
REMARK    2  A    between atoms: C6_6  and  C7_7 
REMARK    3  A    between atoms: N1_8  and  N2_10 
REMARK    4  A    between atoms: N2_10  and  C8_12 
REMARK    5  A    between atoms: C8_12  and  N3_14 
REMARK    6  A    between atoms: N3_14  and  C9_16 
REMARK    7  A    between atoms: C9_16  and  C10_17 
REMARK    8  A    between atoms: C10_17  and  N4_18 
ROOT
HETATM    1  N2  UNL     1      -1.382  -1.477   1.204  1.00  0.00    -0.277 N 
ATOM      2  H2  UNL     1      -1.630  -1.978   2.057  1.00  0.00     0.189 HD
ENDROOT
BRANCH   1   3
HETATM    3  N1  UNL     1      -0.056  -1.164   0.926  1.00  0.00    -0.309 N 
HETATM    4  C7  UNL     1       0.362   0.037   0.732  1.00  0.00     0.118 C 
ATOM      5  H1  UNL     1       0.620  -1.926   0.873  1.00  0.00     0.186 HD
BRANCH   4   6
HETATM    6  C6  UNL     1       1.766   0.243   0.450  1.00  0.00    -0.019 A 
HETATM    7  C5  UNL     1       2.259   1.505   0.235  1.00  0.00     0.013 A 
HETATM    8  C4  UNL     1       3.589   1.743  -0.036  1.00  0.00     0.012 A 
HETATM    9  C3  UNL     1       4.437   0.632  -0.086  1.00  0.00    -0.037 A 
HETATM   10  C12 UNL     1       3.973  -0.626   0.124  1.00  0.00     0.012 A 
HETATM   11  C11 UNL     1       2.619  -0.826   0.395  1.00  0.00     0.013 A 
BRANCH   9  12
HETATM   12  C2  UNL     1       5.835   0.890  -0.373  1.00  0.00     0.001 C 
HETATM   13  C1  UNL     1       6.758  -0.047  -0.427  1.00  0.00     0.012 C 
ENDBRANCH   9  12
ENDBRANCH   4   6
ENDBRANCH   1   3
BRANCH   1  14
HETATM   14  C8  UNL     1      -2.374  -1.090   0.288  1.00  0.00     0.186 C 
HETATM   15  S1  UNL     1      -1.962  -0.307  -1.064  1.00  0.00    -0.040 SA
BRANCH  14  16
HETATM   16  N3  UNL     1      -3.727  -1.401   0.557  1.00  0.00    -0.364 N 
ATOM     17  H3  UNL     1      -3.958  -1.906   1.412  1.00  0.00     0.162 HD
BRANCH  16  18
HETATM   18  C9  UNL     1      -4.783  -1.028  -0.335  1.00  0.00     0.149 C 
BRANCH  18  19
HETATM   19  C10 UNL     1      -5.053   0.432  -0.402  1.00  0.00     0.249 C 
BRANCH  19  20
HETATM   20  N4  UNL     1      -6.158   0.610  -1.359  1.00  0.00    -0.078 N 
ATOM     21  H43 UNL     1      -5.974   0.191  -2.271  1.00  0.00     0.274 HD
ATOM     22  H42 UNL     1      -6.984   0.057  -1.130  1.00  0.00     0.274 HD
ATOM     23  H41 UNL     1      -6.343   1.612  -1.405  1.00  0.00     0.274 HD
ENDBRANCH  19  20
ENDBRANCH  18  19
ENDBRANCH  16  18
ENDBRANCH  14  16
ENDBRANCH   1  14
TORSDOF 8
