REMARK  4 active torsions:
REMARK  status: ('A' for Active; 'I' for Inactive)
REMARK    1  A    between atoms: C2_2  and  C4_5 
REMARK    2  A    between atoms: C4_5  and  C5_6 
REMARK    3  A    between atoms: C5_6  and  C6_7 
REMARK    4  A    between atoms: N2_16  and  O2_17 
ROOT
HETATM    1  C1  UNL     1      -3.869  -1.300   0.207  1.00  0.00     0.030 C 
HETATM    2  C2  UNL     1      -3.079  -0.425  -0.333  1.00  0.00     0.013 C 
HETATM    3  C3  UNL     1      -3.554   0.859  -0.793  1.00  0.00     0.094 C 
HETATM    4  N1  UNL     1      -3.931   1.901  -1.169  1.00  0.00    -0.192 NA
ENDROOT
BRANCH   2   5
HETATM    5  C4  UNL     1      -1.603  -0.663  -0.532  1.00  0.00     0.055 C 
BRANCH   5   6
HETATM    6  C5  UNL     1      -0.911   0.421   0.249  1.00  0.00     0.067 C 
BRANCH   6   7
HETATM    7  C6  UNL     1       0.558   0.342   0.167  1.00  0.00     0.066 A 
HETATM    8  C7  UNL     1       1.383   0.706  -0.884  1.00  0.00     0.096 A 
HETATM    9 CL1  UNL     1       0.765   1.363  -2.379  1.00  0.00    -0.079 Cl
HETATM   10  C8  UNL     1       2.727   0.460  -0.535  1.00  0.00     0.137 A 
HETATM   11  O1  UNL     1       3.870   0.583  -1.054  1.00  0.00    -0.287 OA
HETATM   12  C10 UNL     1       2.635  -0.049   0.732  1.00  0.00     0.142 A 
HETATM   13  C9  UNL     1       4.937   0.243  -0.421  1.00  0.00     0.186 A 
HETATM   14  S1  UNL     1       6.510   0.329  -0.931  1.00  0.00    -0.044 SA
HETATM   15  S2  UNL     1       4.303  -0.315   1.068  1.00  0.00    -0.030 SA
HETATM   16  N2  UNL     1       1.339  -0.121   1.154  1.00  0.00    -0.217 N 
BRANCH  16  17
HETATM   17  O2  UNL     1       0.985  -0.596   2.389  1.00  0.00    -0.282 OA
ATOM     18  H2  UNL     1       1.538  -0.924   3.088  1.00  0.00     0.245 HD
ENDBRANCH  16  17
ENDBRANCH   6   7
ENDBRANCH   5   6
ENDBRANCH   2   5
TORSDOF 4
