REMARK  16 active torsions:
REMARK  status: ('A' for Active; 'I' for Inactive)
REMARK    1  A    between atoms: C2_2  and  C3_3 
REMARK    2  A    between atoms: C3_3  and  C4_4 
REMARK    3  A    between atoms: C4_4  and  N1_5 
REMARK       I    between atoms: N1_5  and  C5_7 
REMARK    4  A    between atoms: C5_7  and  C6_9 
REMARK       I    between atoms: N2_13  and  C10_14 
REMARK    5  A    between atoms: C10_14  and  C11_16 
REMARK    6  A    between atoms: C11_16  and  C12_18 
REMARK    7  A    between atoms: C12_18  and  C13_19 
REMARK    8  A    between atoms: C12_18  and  N3_26 
REMARK    9  A    between atoms: C13_19  and  C14_20 
REMARK       I    between atoms: N3_26  and  C20_28 
REMARK   10  A    between atoms: C20_28  and  C21_30 
REMARK   11  A    between atoms: C21_30  and  C22_31 
REMARK   12  A    between atoms: C21_30  and  N4_36 
REMARK   13  A    between atoms: C22_31  and  C23_32 
REMARK       I    between atoms: N4_36  and  C27_38 
REMARK   14  A    between atoms: C27_38  and  C28_40 
REMARK   15  A    between atoms: C28_40  and  C29_41 
REMARK   16  A    between atoms: C28_40  and  N5_43 
REMARK       I    between atoms: N5_43  and  C31_45 
REMARK       I    between atoms: C31_45  and  N6_47 
ROOT
HETATM    1  N3  UNL     1       0.706  -2.475   0.234  1.00  0.00    -0.344 N 
ATOM      2  H3  UNL     1       0.224  -3.329  -0.048  1.00  0.00     0.163 HD
HETATM    3  C20 UNL     1      -0.046  -1.248   0.346  1.00  0.00     0.264 C 
HETATM    4  O4  UNL     1       0.630  -0.232   0.706  1.00  0.00    -0.266 OA
ENDROOT
BRANCH   1   5
HETATM    5  C12 UNL     1       2.124  -2.527   0.510  1.00  0.00     0.165 C 
BRANCH   5   6
HETATM    6  C11 UNL     1       2.698  -1.659  -0.670  1.00  0.00     0.239 C 
HETATM    7  O3  UNL     1       1.901  -1.357  -1.557  1.00  0.00    -0.285 OA
BRANCH   6   8
HETATM    8  C10 UNL     1       4.080  -1.269  -0.657  1.00  0.00     0.292 C 
HETATM    9  N2  UNL     1       4.657  -0.539  -1.728  1.00  0.00    -0.332 N 
HETATM   10  C6  UNL     1       4.045  -0.078  -2.942  1.00  0.00     0.179 C 
HETATM   11  C9  UNL     1       6.062  -0.133  -1.701  1.00  0.00     0.127 C 
HETATM   12  C7  UNL     1       5.221   0.012  -3.897  1.00  0.00     0.037 C 
HETATM   13  C8  UNL     1       6.323   0.505  -3.016  1.00  0.00     0.022 C 
HETATM   14  O2  UNL     1       4.809  -1.576   0.322  1.00  0.00    -0.264 OA
BRANCH  10  15
HETATM   15  C5  UNL     1       3.414   1.260  -2.778  1.00  0.00     0.240 C 
HETATM   16  N1  UNL     1       3.509   1.901  -1.523  1.00  0.00    -0.359 N 
ATOM     17  H1  UNL     1       4.001   1.443  -0.756  1.00  0.00     0.162 HD
HETATM   18  O1  UNL     1       2.813   1.819  -3.716  1.00  0.00    -0.271 OA
BRANCH  16  19
HETATM   19  C4  UNL     1       2.909   3.211  -1.317  1.00  0.00     0.122 C 
BRANCH  19  20
HETATM   20  C3  UNL     1       3.177   3.627   0.129  1.00  0.00     0.019 C 
BRANCH  20  21
HETATM   21  C2  UNL     1       2.548   4.989   0.326  1.00  0.00    -0.003 C 
HETATM   22  C1  UNL     1       2.787   5.427   1.755  1.00  0.00     0.005 C 
ENDBRANCH  20  21
ENDBRANCH  19  20
ENDBRANCH  16  19
ENDBRANCH  10  15
ENDBRANCH   6   8
ENDBRANCH   5   6
BRANCH   5  23
HETATM   23  C13 UNL     1       2.718  -3.845   0.337  1.00  0.00     0.038 C 
BRANCH  23  24
HETATM   24  C14 UNL     1       2.503  -4.993   1.206  1.00  0.00    -0.012 C 
HETATM   25  C15 UNL     1       1.166  -5.583   1.397  1.00  0.00     0.005 C 
HETATM   26  C16 UNL     1       1.376  -7.060   1.769  1.00  0.00     0.000 C 
HETATM   27  C17 UNL     1       2.662  -7.246   2.524  1.00  0.00     0.000 C 
HETATM   28  C18 UNL     1       3.051  -6.052   3.337  1.00  0.00     0.000 C 
HETATM   29  C19 UNL     1       3.083  -4.755   2.620  1.00  0.00     0.005 C 
ENDBRANCH  23  24
ENDBRANCH   5  23
ENDBRANCH   1   5
BRANCH   3  30
HETATM   30  C21 UNL     1      -1.439  -1.097   0.067  1.00  0.00     0.080 C 
BRANCH  30  31
HETATM   31  C22 UNL     1      -2.365  -2.216   0.279  1.00  0.00     0.067 C 
BRANCH  31  32
HETATM   32  C23 UNL     1      -2.601  -2.588   1.680  1.00  0.00    -0.009 C 
HETATM   33  C24 UNL     1      -3.570  -3.780   1.732  1.00  0.00     0.005 C 
HETATM   34  C25 UNL     1      -2.465  -4.554   2.431  1.00  0.00     0.001 C 
HETATM   35  C26 UNL     1      -1.713  -3.223   2.625  1.00  0.00     0.005 C 
ENDBRANCH  31  32
ENDBRANCH  30  31
BRANCH  30  36
HETATM   36  N4  UNL     1      -1.844  -0.096  -0.885  1.00  0.00    -0.324 N 
HETATM   37  C27 UNL     1      -2.718   0.966  -0.567  1.00  0.00     0.244 C 
HETATM   38  O5  UNL     1      -3.145   0.984   0.642  1.00  0.00    -0.271 OA
ATOM     39  H4  UNL     1      -1.481  -0.157  -1.836  1.00  0.00     0.169 HD
BRANCH  37  40
HETATM   40  C28 UNL     1      -3.166   2.020  -1.482  1.00  0.00     0.178 C 
BRANCH  40  41
HETATM   41  C29 UNL     1      -3.820   1.514  -2.741  1.00  0.00     0.030 C 
HETATM   42  C30 UNL     1      -4.250   2.681  -3.630  1.00  0.00     0.007 C 
ENDBRANCH  40  41
BRANCH  40  43
HETATM   43  N5  UNL     1      -4.128   2.854  -0.790  1.00  0.00    -0.330 N 
HETATM   44  C31 UNL     1      -3.984   4.229  -0.535  1.00  0.00     0.319 C 
HETATM   45  O6  UNL     1      -2.930   4.786  -0.940  1.00  0.00    -0.247 OA
HETATM   46  N6  UNL     1      -4.937   5.024   0.143  1.00  0.00    -0.330 N 
HETATM   47  C32 UNL     1      -6.197   4.549   0.674  1.00  0.00     0.153 C 
HETATM   48  C35 UNL     1      -4.696   6.466   0.361  1.00  0.00     0.153 C 
HETATM   49  C33 UNL     1      -7.283   5.176  -0.204  1.00  0.00     0.187 C 
HETATM   50  O7  UNL     1      -6.902   6.457  -0.605  1.00  0.00    -0.388 OA
HETATM   51  C34 UNL     1      -6.093   7.085   0.350  1.00  0.00     0.187 C 
ATOM     52  H5  UNL     1      -4.982   2.405  -0.460  1.00  0.00     0.165 HD
ENDBRANCH  40  43
ENDBRANCH  37  40
ENDBRANCH  30  36
ENDBRANCH   3  30
TORSDOF 16
