REMARK  16 active torsions:
REMARK  status: ('A' for Active; 'I' for Inactive)
REMARK    1  A    between atoms: C2_2  and  C4_4 
REMARK    2  A    between atoms: C4_4  and  N1_5 
REMARK    3  A    between atoms: C4_4  and  C15_19 
REMARK       I    between atoms: N1_5  and  C5_7 
REMARK    4  A    between atoms: C5_7  and  C6_9 
REMARK    5  A    between atoms: C6_9  and  C7_10 
REMARK    6  A    between atoms: C6_9  and  C8_12 
REMARK       I    between atoms: C15_19  and  N2_21 
REMARK       I    between atoms: N3_26  and  C20_27 
REMARK    7  A    between atoms: C20_27  and  C21_29 
REMARK    8  A    between atoms: C22_30  and  C23_31 
REMARK    9  A    between atoms: C23_31  and  C24_32 
REMARK   10  A    between atoms: C24_32  and  C25_33 
REMARK       I    between atoms: C25_33  and  N4_35 
REMARK   11  A    between atoms: N4_35  and  C26_37 
REMARK   12  A    between atoms: C26_37  and  C27_38 
REMARK   13  A    between atoms: C26_37  and  C31_46 
REMARK   14  A    between atoms: C27_38  and  C28_39 
REMARK   15  A    between atoms: C28_39  and  C29_40 
REMARK   16  A    between atoms: C29_40  and  N5_41 
ROOT
HETATM    1  C15 UNL     1      -2.962   0.721   0.481  1.00  0.00     0.243 C 
HETATM    2  O2  UNL     1      -2.556  -0.038   1.438  1.00  0.00    -0.271 OA
HETATM    3  N2  UNL     1      -2.099   1.164  -0.519  1.00  0.00    -0.348 N 
HETATM    4  C16 UNL     1      -2.366   1.995  -1.660  1.00  0.00     0.132 C 
HETATM    5  C17 UNL     1      -1.686   1.172  -2.779  1.00  0.00     0.030 C 
HETATM    6  C18 UNL     1      -0.806   1.991  -3.656  1.00  0.00     0.028 C 
HETATM    7  C19 UNL     1       0.231   0.930  -4.086  1.00  0.00     0.127 C 
HETATM    8  N3  UNL     1       0.513   0.325  -2.772  1.00  0.00    -0.342 N 
HETATM    9  C20 UNL     1       1.778  -0.161  -2.300  1.00  0.00     0.243 C 
HETATM   10  O3  UNL     1       1.810  -0.558  -1.128  1.00  0.00    -0.268 OA
HETATM   11  C32 UNL     1      -0.710   0.258  -2.058  1.00  0.00     0.111 C 
HETATM   12  C33 UNL     1      -0.685   0.841  -0.659  1.00  0.00     0.151 C 
ENDROOT
BRANCH   9  13
HETATM   13  C21 UNL     1       2.893  -0.156  -3.198  1.00  0.00     0.070 C 
HETATM   14  C22 UNL     1       4.095  -0.533  -2.931  1.00  0.00    -0.021 C 
BRANCH  14  15
HETATM   15  C23 UNL     1       4.664  -1.053  -1.681  1.00  0.00     0.036 C 
BRANCH  15  16
HETATM   16  C24 UNL     1       5.811  -0.159  -1.229  1.00  0.00     0.106 C 
BRANCH  16  17
HETATM   17  C25 UNL     1       6.382  -0.659   0.024  1.00  0.00     0.218 C 
HETATM   18  O4  UNL     1       5.849  -1.573   0.669  1.00  0.00    -0.274 OA
HETATM   19  N4  UNL     1       7.607  -0.067   0.516  1.00  0.00    -0.348 N 
ATOM     20  H4  UNL     1       8.029   0.681  -0.034  1.00  0.00     0.163 HD
BRANCH  19  21
HETATM   21  C26 UNL     1       8.267  -0.464   1.728  1.00  0.00     0.173 C 
BRANCH  21  22
HETATM   22  C27 UNL     1       9.288  -1.496   1.388  1.00  0.00     0.036 C 
BRANCH  22  23
HETATM   23  C28 UNL     1      10.342  -1.128   0.410  1.00  0.00     0.022 C 
BRANCH  23  24
HETATM   24  C29 UNL     1      11.210   0.016   0.827  1.00  0.00     0.122 C 
BRANCH  24  25
HETATM   25  N5  UNL     1      12.186   0.205  -0.252  1.00  0.00    -0.367 N 
HETATM   26  C30 UNL     1      13.367  -0.228  -0.069  1.00  0.00     0.196 C 
HETATM   27  N6  UNL     1      14.375  -0.079  -1.075  1.00  0.00    -0.067 NA
HETATM   28  N7  UNL     1      13.756  -0.890   1.149  1.00  0.00    -0.067 NA
ATOM     29  H5  UNL     1      11.925   0.669  -1.122  1.00  0.00     0.161 HD
ENDBRANCH  24  25
ENDBRANCH  23  24
ENDBRANCH  22  23
ENDBRANCH  21  22
BRANCH  21  30
HETATM   30  C31 UNL     1       8.687   0.614   2.602  1.00  0.00     0.254 C 
HETATM   31  N8  UNL     1       9.410   0.459   3.800  1.00  0.00    -0.060 NA
HETATM   32  O5  UNL     1       8.373   1.810   2.257  1.00  0.00    -0.275 OA
ENDBRANCH  21  30
ENDBRANCH  19  21
ENDBRANCH  16  17
ENDBRANCH  15  16
ENDBRANCH  14  15
ENDBRANCH   9  13
BRANCH   1  33
HETATM   33  C4  UNL     1      -4.402   1.111   0.468  1.00  0.00     0.180 C 
BRANCH  33  34
HETATM   34  C2  UNL     1      -4.651   2.266   1.377  1.00  0.00     0.009 C 
HETATM   35  C1  UNL     1      -4.362   1.940   2.799  1.00  0.00     0.012 C 
HETATM   36  C3  UNL     1      -3.846   3.501   0.988  1.00  0.00     0.012 C 
ENDBRANCH  33  34
BRANCH  33  37
HETATM   37  N1  UNL     1      -5.256   0.000   0.871  1.00  0.00    -0.347 N 
HETATM   38  C5  UNL     1      -6.051  -0.693  -0.079  1.00  0.00     0.223 C 
HETATM   39  O1  UNL     1      -5.982  -0.311  -1.286  1.00  0.00    -0.273 OA
ATOM     40  H1  UNL     1      -5.283  -0.284   1.850  1.00  0.00     0.163 HD
BRANCH  38  41
HETATM   41  C6  UNL     1      -6.946  -1.817   0.246  1.00  0.00     0.092 C 
BRANCH  41  42
HETATM   42  C7  UNL     1      -7.041  -2.754  -0.981  1.00  0.00     0.100 C 
HETATM   43  S1  UNL     1      -8.139  -4.138  -0.619  1.00  0.00    -0.097 SA
ENDBRANCH  41  42
BRANCH  41  44
HETATM   44  C8  UNL     1      -8.342  -1.373   0.637  1.00  0.00    -0.001 C 
HETATM   45  C9  UNL     1      -8.261  -0.506   1.842  1.00  0.00     0.005 C 
HETATM   46  C10 UNL     1      -9.610   0.041   2.269  1.00  0.00     0.000 C 
HETATM   47  C11 UNL     1     -10.730  -0.934   2.092  1.00  0.00     0.000 C 
HETATM   48  C12 UNL     1     -11.099  -1.192   0.661  1.00  0.00     0.000 C 
HETATM   49  C13 UNL     1     -10.404  -0.295  -0.327  1.00  0.00     0.000 C 
HETATM   50  C14 UNL     1      -8.965  -0.702  -0.551  1.00  0.00     0.005 C 
ENDBRANCH  41  44
ENDBRANCH  38  41
ENDBRANCH  33  37
ENDBRANCH   1  33
TORSDOF 16
