REMARK  2 active torsions:
REMARK  status: ('A' for Active; 'I' for Inactive)
REMARK    1  A    between atoms: C4_4  and  C5_5 
REMARK    2  A    between atoms: C14_18  and  O5_19 
ROOT
HETATM    1  C1  UNL     1       2.456  -0.791   2.604  1.00  0.00     0.043 C 
HETATM    2  C2  UNL     1       2.153  -0.747   1.144  1.00  0.00    -0.085 C 
HETATM    3  C3  UNL     1       0.995  -0.254   0.786  1.00  0.00     0.010 C 
HETATM    4  C4  UNL     1       0.507  -0.125  -0.607  1.00  0.00     0.186 C 
HETATM    5  O2  UNL     1       0.980   0.998  -1.286  1.00  0.00    -0.286 OA
HETATM    6  C13 UNL     1       1.859   1.002  -2.361  1.00  0.00     0.409 C 
HETATM    7  O3  UNL     1       1.611   1.922  -3.206  1.00  0.00    -0.229 OA
HETATM    8  O4  UNL     1       2.840   0.082  -2.410  1.00  0.00    -0.266 OA
HETATM    9  C14 UNL     1       4.054  -0.099  -1.825  1.00  0.00     0.272 C 
HETATM   10  C15 UNL     1       4.105  -0.216  -0.319  1.00  0.00     0.041 C 
HETATM   11  C16 UNL     1       4.036   1.101   0.383  1.00  0.00     0.015 C 
HETATM   12  C17 UNL     1       3.194  -1.267   0.226  1.00  0.00     0.042 C 
ENDROOT
BRANCH   4  13
HETATM   13  C5  UNL     1      -1.033  -0.143  -0.596  1.00  0.00     0.154 C 
HETATM   14  C6  UNL     1      -1.544   1.200  -0.312  1.00  0.00     0.035 C 
HETATM   15  C7  UNL     1      -2.179   1.415   1.030  1.00  0.00     0.002 C 
HETATM   16  C8  UNL     1      -3.632   1.703   0.835  1.00  0.00     0.000 C 
HETATM   17  C9  UNL     1      -4.524   0.489   1.001  1.00  0.00     0.000 C 
HETATM   18  C10 UNL     1      -4.759  -0.273  -0.246  1.00  0.00     0.002 C 
HETATM   19  C11 UNL     1      -3.744  -1.222  -0.713  1.00  0.00     0.026 C 
HETATM   20  C12 UNL     1      -2.680  -1.637   0.239  1.00  0.00     0.168 C 
HETATM   21  O1  UNL     1      -1.432  -1.210   0.054  1.00  0.00    -0.383 OA
ENDBRANCH   4  13
BRANCH   9  22
HETATM   22  O5  UNL     1       4.589  -1.321  -2.309  1.00  0.00    -0.370 OA
ATOM     23  H5  UNL     1       5.437  -1.447  -1.900  1.00  0.00     0.212 HD
ENDBRANCH   9  22
TORSDOF 2
