REMARK  1 active torsions:
REMARK  status: ('A' for Active; 'I' for Inactive)
REMARK    1  A    between atoms: C5_9  and  C6_10 
ROOT
HETATM    1  C1  UNL     1       2.279  -1.635  -1.100  1.00  0.00     0.066 C 
HETATM    2  C2  UNL     1       1.595  -0.715  -0.115  1.00  0.00     0.183 C 
HETATM    3  C3  UNL     1       1.861  -1.117   1.289  1.00  0.00     0.101 C 
HETATM    4  N1  UNL     1       2.082  -1.433   2.382  1.00  0.00    -0.194 NA
HETATM    5  O1  UNL     1       0.236  -0.892  -0.291  1.00  0.00    -0.323 OA
HETATM    6  C4  UNL     1      -0.547   0.200  -0.179  1.00  0.00     0.206 C 
HETATM    7  O2  UNL     1       0.042   1.426  -0.176  1.00  0.00    -0.199 OA
HETATM    8  O3  UNL     1       1.196   1.514   0.398  1.00  0.00    -0.221 OA
HETATM    9  C5  UNL     1       2.071   0.672  -0.333  1.00  0.00     0.266 C 
HETATM   10  C10 UNL     1      -1.594   0.164  -1.293  1.00  0.00     0.052 C 
HETATM   11  C11 UNL     1      -2.602   1.254  -1.137  1.00  0.00     0.014 C 
HETATM   12  C12 UNL     1      -3.351   1.042   0.157  1.00  0.00    -0.013 C 
HETATM   13  C13 UNL     1      -4.027  -0.288   0.204  1.00  0.00     0.009 C 
HETATM   14  C14 UNL     1      -3.002  -1.369  -0.000  1.00  0.00    -0.013 C 
HETATM   15  C15 UNL     1      -2.255  -1.180  -1.305  1.00  0.00     0.014 C 
HETATM   16  C16 UNL     1      -2.009  -1.297   1.130  1.00  0.00     0.014 C 
HETATM   17  C17 UNL     1      -1.337   0.060   1.129  1.00  0.00     0.052 C 
HETATM   18  C18 UNL     1      -2.353   1.158   1.279  1.00  0.00     0.014 C 
ENDROOT
BRANCH   9  19
HETATM   19  C6  UNL     1       3.417   0.953   0.161  1.00  0.00     0.088 A 
HETATM   20  C7  UNL     1       4.393   0.044   0.471  1.00  0.00     0.037 A 
HETATM   21  C8  UNL     1       5.506   0.754   0.900  1.00  0.00     0.027 A 
HETATM   22  C9  UNL     1       5.138   2.078   0.825  1.00  0.00     0.142 A 
HETATM   23  O4  UNL     1       3.926   2.154   0.394  1.00  0.00    -0.324 OA
ENDBRANCH   9  19
TORSDOF 1
