REMARK  1 active torsions:
REMARK  status: ('A' for Active; 'I' for Inactive)
REMARK    1  A    between atoms: C8_11  and  C9_12 
ROOT
HETATM    1  C1  UNL     1      -5.422   0.423   0.217  1.00  0.00     0.000 C 
HETATM    2  C2  UNL     1      -4.905  -0.042  -1.110  1.00  0.00     0.003 C 
HETATM    3  C3  UNL     1      -3.488   0.297  -1.382  1.00  0.00     0.043 C 
HETATM    4  C4  UNL     1      -2.566   0.208  -0.220  1.00  0.00     0.120 C 
HETATM    5  C5  UNL     1      -3.167   0.575   1.095  1.00  0.00     0.043 C 
HETATM    6  C6  UNL     1      -4.492  -0.162   1.283  1.00  0.00     0.003 C 
HETATM    7  C7  UNL     1      -1.396   1.147  -0.476  1.00  0.00     0.277 C 
HETATM    8  N1  UNL     1      -0.216   0.490   0.056  1.00  0.00    -0.037 N 
ATOM      9  H11 UNL     1      -0.311   0.220   1.035  1.00  0.00     0.280 HD
ATOM     10  H12 UNL     1       0.578   1.119   0.174  1.00  0.00     0.280 HD
HETATM   11  C8  UNL     1       0.064  -0.631  -0.825  1.00  0.00     0.408 C 
HETATM   12  O1  UNL     1      -1.107  -1.323  -0.977  1.00  0.00    -0.200 OA
HETATM   13  O2  UNL     1      -2.017  -1.079  -0.089  1.00  0.00    -0.225 OA
ENDROOT
BRANCH  11  14
HETATM   14  C9  UNL     1       1.173  -1.490  -0.248  1.00  0.00     0.082 A 
HETATM   15  N2  UNL     1       0.993  -2.811  -0.258  1.00  0.00    -0.325 N 
HETATM   16  S1  UNL     1       2.384  -3.429   0.449  1.00  0.00    -0.018 SA
ATOM     17  H2  UNL     1       0.190  -3.329  -0.615  1.00  0.00     0.174 HD
HETATM   18  C10 UNL     1       3.195  -1.964   0.755  1.00  0.00     0.008 A 
HETATM   19  C11 UNL     1       2.318  -1.026   0.277  1.00  0.00    -0.012 A 
HETATM   20  C17 UNL     1       4.523  -1.644   1.375  1.00  0.00     0.048 C 
HETATM   21  C12 UNL     1       2.739   0.427   0.388  1.00  0.00     0.026 C 
HETATM   22  C13 UNL     1       2.972   1.036  -1.000  1.00  0.00     0.010 C 
HETATM   23  C15 UNL     1       4.164   0.618   0.660  1.00  0.00    -0.006 C 
HETATM   24  C14 UNL     1       4.220   1.692  -0.409  1.00  0.00     0.006 C 
HETATM   25  C16 UNL     1       5.082  -0.530   0.475  1.00  0.00     0.010 C 
ENDBRANCH  11  14
TORSDOF 1
