REMARK  4 active torsions:
REMARK  status: ('A' for Active; 'I' for Inactive)
REMARK    1  A    between atoms: C2_2  and  C3_3 
REMARK    2  A    between atoms: C2_2  and  C10_10 
REMARK    3  A    between atoms: C4_4  and  C5_5 
REMARK    4  A    between atoms: N2_15  and  N3_17 
REMARK       I    between atoms: N3_17  and  C13_19 
ROOT
HETATM    1  C10 UNL     1       0.719  -0.058  -0.271  1.00  0.00    -0.010 C 
HETATM    2  N1  UNL     1       1.611   0.566   0.401  1.00  0.00    -0.390 N 
ATOM      3  H1  UNL     1       1.542   1.577   0.514  1.00  0.00     0.159 HD
HETATM    4  C11 UNL     1       2.712  -0.146   1.000  1.00  0.00     0.173 C 
HETATM    5  C12 UNL     1       3.208  -1.097  -0.022  1.00  0.00     0.021 C 
HETATM    6  N2  UNL     1       4.471  -1.305  -0.125  1.00  0.00    -0.305 N 
ATOM      7  H2  UNL     1       4.815  -1.959  -0.828  1.00  0.00     0.186 HD
HETATM    8  C14 UNL     1       2.266  -1.805  -0.921  1.00  0.00     0.061 C 
HETATM    9  C15 UNL     1       0.864  -1.533  -0.406  1.00  0.00     0.058 C 
ENDROOT
BRANCH   1  10
HETATM   10  C2  UNL     1      -0.410   0.693  -0.882  1.00  0.00     0.049 C 
HETATM   11  C1  UNL     1      -0.442   0.535  -2.386  1.00  0.00     0.020 C 
BRANCH  10  12
HETATM   12  C3  UNL     1      -1.665   0.230  -0.257  1.00  0.00    -0.020 C 
HETATM   13  C4  UNL     1      -2.431   1.072   0.387  1.00  0.00    -0.025 C 
BRANCH  13  14
HETATM   14  C5  UNL     1      -3.710   0.707   1.048  1.00  0.00     0.008 C 
HETATM   15  C6  UNL     1      -4.116  -0.723   0.803  1.00  0.00     0.008 C 
HETATM   16  C7  UNL     1      -5.636  -0.613   0.993  1.00  0.00     0.001 C 
HETATM   17  C8  UNL     1      -5.947   0.562   0.107  1.00  0.00     0.001 C 
HETATM   18  C9  UNL     1      -4.828   1.526   0.410  1.00  0.00     0.008 C 
ENDBRANCH  13  14
ENDBRANCH  10  12
ENDBRANCH   1  10
BRANCH   6  19
HETATM   19  N3  UNL     1       5.383  -0.652   0.709  1.00  0.00    -0.274 N 
HETATM   20  C13 UNL     1       6.487   0.040   0.183  1.00  0.00     0.200 C 
HETATM   21  N4  UNL     1       6.380   0.837  -0.812  1.00  0.00    -0.372 N 
HETATM   22  N5  UNL     1       7.787  -0.127   0.754  1.00  0.00    -0.062 NA
ATOM     23  H42 UNL     1       5.453   0.956  -1.219  1.00  0.00     0.158 HD
ATOM     24  H41 UNL     1       7.181   1.339  -1.194  1.00  0.00     0.158 HD
ATOM     25  H3  UNL     1       5.244  -0.678   1.719  1.00  0.00     0.189 HD
ENDBRANCH   6  19
TORSDOF 4
