REMARK  3 active torsions:
REMARK  status: ('A' for Active; 'I' for Inactive)
REMARK    1  A    between atoms: O1_1  and  C1_3 
REMARK    2  A    between atoms: C3_6  and  N1_7 
REMARK    3  A    between atoms: C6_14  and  O4_15 
ROOT
HETATM    1  C1  UNL     1      -2.137  -0.034  -0.164  1.00  0.00     0.175 C 
HETATM    2  C2  UNL     1      -1.738  -0.545   1.199  1.00  0.00     0.205 C 
HETATM    3  O2  UNL     1      -0.407  -0.846   1.175  1.00  0.00    -0.359 OA
HETATM    4  C3  UNL     1       0.076  -0.737  -0.099  1.00  0.00     0.278 C 
HETATM    5  C6  UNL     1      -0.760   0.374  -0.700  1.00  0.00     0.199 C 
ENDROOT
BRANCH   4   6
HETATM    6  N1  UNL     1       1.484  -0.295  -0.132  1.00  0.00    -0.227 N 
HETATM    7  N2  UNL     1       1.962   0.866   0.245  1.00  0.00    -0.283 N 
HETATM    8  C4  UNL     1       3.284   0.867   0.055  1.00  0.00     0.253 A 
ATOM      9  H2  UNL     1       1.415   1.640   0.621  1.00  0.00     0.188 HD
HETATM   10  O3  UNL     1       3.587  -0.308  -0.438  1.00  0.00    -0.277 OA
HETATM   11  C5  UNL     1       2.511  -1.039  -0.564  1.00  0.00     0.239 A 
HETATM   12  S1  UNL     1       2.423  -2.585  -1.144  1.00  0.00    -0.031 SA
ENDBRANCH   4   6
BRANCH   5  13
HETATM   13  O4  UNL     1      -0.407   1.547  -0.054  1.00  0.00    -0.388 OA
ATOM     14  H4  UNL     1       0.446   1.800  -0.386  1.00  0.00     0.210 HD
ENDBRANCH   5  13
BRANCH   1  15
HETATM   15  O1  UNL     1      -3.002   1.033  -0.088  1.00  0.00    -0.391 OA
ATOM     16  H1  UNL     1      -3.253   1.355  -0.946  1.00  0.00     0.210 HD
ENDBRANCH   1  15
TORSDOF 3
