REMARK  3 active torsions:
REMARK  status: ('A' for Active; 'I' for Inactive)
REMARK    1  A    between atoms: O1_1  and  N1_3 
REMARK    2  A    between atoms: N1_3  and  N2_5 
REMARK    3  A    between atoms: C1_9  and  S1_10 
ROOT
HETATM    1  N2  UNL     1       1.744   0.013   0.077  1.00  0.00    -0.147 N 
HETATM    2  N3  UNL     1       1.578  -1.277   0.336  1.00  0.00     0.005 NA
HETATM    3  N4  UNL     1       0.293  -1.565   0.217  1.00  0.00    -0.267 N 
ATOM      4  H4  UNL     1      -0.114  -2.489   0.362  1.00  0.00     0.185 HD
HETATM    5  C1  UNL     1      -0.402  -0.460  -0.124  1.00  0.00     0.205 A 
HETATM    6  C2  UNL     1       0.541   0.542  -0.210  1.00  0.00     0.183 A 
HETATM    7  S2  UNL     1       0.252   2.099  -0.593  1.00  0.00    -0.054 SA
ENDROOT
BRANCH   1   8
HETATM    8  N1  UNL     1       2.963   0.696   0.100  1.00  0.00    -0.189 N 
ATOM      9  H1  UNL     1       3.821   0.204   0.349  1.00  0.00     0.217 HD
BRANCH   8  10
HETATM   10  O1  UNL     1       2.997   1.911  -0.186  1.00  0.00    -0.273 OA
ATOM     11  H1  UNL     1       3.826   2.375  -0.170  1.00  0.00     0.246 HD
ENDBRANCH   8  10
ENDBRANCH   1   8
BRANCH   5  12
HETATM   12  S1  UNL     1      -2.113  -0.269  -0.409  1.00  0.00     0.159 S 
HETATM   13  O2  UNL     1      -2.289   0.882  -1.372  1.00  0.00    -0.590 OA
HETATM   14  O3  UNL     1      -2.744  -1.516  -0.948  1.00  0.00    -0.590 OA
HETATM   15  O4  UNL     1      -2.884   0.126   1.016  1.00  0.00    -0.590 OA
ENDBRANCH   5  12
TORSDOF 3
