REMARK  3 active torsions:
REMARK  status: ('A' for Active; 'I' for Inactive)
REMARK    1  A    between atoms: C2_2  and  C3_3 
REMARK    2  A    between atoms: C3_3  and  C4_4 
REMARK    3  A    between atoms: C4_4  and  N1_5 
REMARK       I    between atoms: N1_5  and  C5_7 
REMARK       I    between atoms: C5_7  and  N2_9 
ROOT
HETATM    1  N1  UNL     1      -0.243  -0.407  -0.833  1.00  0.00    -0.343 N 
ATOM      2  H1  UNL     1       0.214  -1.173  -1.327  1.00  0.00     0.164 HD
HETATM    3  C5  UNL     1       0.600   0.454  -0.091  1.00  0.00     0.318 C 
HETATM    4  O1  UNL     1       0.055   1.407   0.521  1.00  0.00    -0.247 OA
HETATM    5  N2  UNL     1       2.009   0.259  -0.034  1.00  0.00    -0.334 N 
HETATM    6  C6  UNL     1       2.942  -0.696  -0.594  1.00  0.00     0.129 C 
HETATM    7  C7  UNL     1       4.120   0.157  -0.195  1.00  0.00     0.040 C 
HETATM    8  C8  UNL     1       3.112   0.939   0.613  1.00  0.00     0.129 C 
ENDROOT
BRANCH   1   9
HETATM    9  C4  UNL     1      -1.655  -0.323  -0.966  1.00  0.00     0.128 C 
BRANCH   9  10
HETATM   10  C3  UNL     1      -2.335  -0.463   0.374  1.00  0.00     0.046 C 
BRANCH  10  11
HETATM   11  C2  UNL     1      -3.831  -0.377   0.220  1.00  0.00    -0.035 C 
HETATM   12  C1  UNL     1      -4.494   0.582   0.849  1.00  0.00     0.007 C 
ENDBRANCH  10  11
ENDBRANCH   9  10
ENDBRANCH   1   9
TORSDOF 3
