REMARK  5 active torsions:
REMARK  status: ('A' for Active; 'I' for Inactive)
REMARK    1  A    between atoms: C2_2  and  O1_3 
REMARK    2  A    between atoms: C2_2  and  C3_5 
REMARK    3  A    between atoms: C3_5  and  C4_6 
REMARK    4  A    between atoms: C4_6  and  C5_7 
REMARK    5  A    between atoms: C5_7  and  O2_8 
ROOT
HETATM    1  C3  UNL     1       0.623  -0.144  -0.460  1.00  0.00     0.129 C 
HETATM    2  O3  UNL     1       0.080   0.528  -1.563  1.00  0.00    -0.226 OA
HETATM    3  O4  UNL     1      -1.161   0.097  -1.543  1.00  0.00    -0.229 OA
HETATM    4  C6  UNL     1      -1.586   0.544  -0.304  1.00  0.00     0.095 C 
HETATM    5  C7  UNL     1      -2.843  -0.106   0.171  1.00  0.00     0.049 C 
HETATM    6  C8  UNL     1      -1.843   2.026  -0.429  1.00  0.00     0.049 C 
HETATM    7  C9  UNL     1      -0.383   0.226   0.563  1.00  0.00     0.059 C 
HETATM    8  C10 UNL     1      -0.670  -0.747   1.632  1.00  0.00     0.016 C 
ENDROOT
BRANCH   1   9
HETATM    9  C2  UNL     1       0.645  -1.599  -0.847  1.00  0.00     0.152 C 
HETATM   10  C1  UNL     1       1.410  -2.469   0.087  1.00  0.00     0.042 C 
BRANCH   9  11
HETATM   11  O1  UNL     1      -0.585  -2.141  -1.126  1.00  0.00    -0.393 OA
ATOM     12  H1  UNL     1      -1.073  -1.586  -1.722  1.00  0.00     0.210 HD
ENDBRANCH   9  11
ENDBRANCH   1   9
BRANCH   1  13
HETATM   13  C4  UNL     1       2.004   0.324  -0.228  1.00  0.00     0.070 C 
BRANCH  13  14
HETATM   14  C5  UNL     1       2.188   1.743   0.162  1.00  0.00     0.167 C 
BRANCH  14  15
HETATM   15  O2  UNL     1       1.718   2.659  -0.779  1.00  0.00    -0.401 OA
ATOM     16  H2  UNL     1       1.836   3.568  -0.529  1.00  0.00     0.209 HD
ENDBRANCH  14  15
ENDBRANCH  13  14
ENDBRANCH   1  13
TORSDOF 5
