REMARK  12 active torsions:
REMARK  status: ('A' for Active; 'I' for Inactive)
REMARK    1  A    between atoms: N1_2  and  C3_4 
REMARK    2  A    between atoms: C3_4  and  C4_5 
REMARK    3  A    between atoms: C4_5  and  N2_6 
REMARK    4  A    between atoms: N2_6  and  C5_8 
REMARK    5  A    between atoms: C11_16  and  C12_17 
REMARK    6  A    between atoms: C12_17  and  N5_21 
REMARK    7  A    between atoms: C16_26  and  C17_27 
REMARK       I    between atoms: C17_27  and  N6_29 
REMARK    8  A    between atoms: N6_29  and  C18_31 
REMARK    9  A    between atoms: C18_31  and  C19_32 
REMARK   10  A    between atoms: C19_32  and  N7_33 
REMARK   11  A    between atoms: C24_40  and  N9_41 
REMARK   12  A    between atoms: C25_43  and  C26_44 
ROOT
HETATM    1  C5  UNL     1      -3.224  -1.955  -1.713  1.00  0.00     0.043 A 
HETATM    2  C6  UNL     1      -3.499  -3.206  -2.338  1.00  0.00     0.030 A 
HETATM    3  C7  UNL     1      -2.457  -3.949  -2.797  1.00  0.00     0.005 A 
HETATM    4  C8  UNL     1      -1.177  -3.507  -2.663  1.00  0.00     0.030 A 
HETATM    5  C9  UNL     1      -0.917  -2.280  -2.046  1.00  0.00     0.046 A 
HETATM    6  N3  UNL     1       0.363  -1.904  -1.923  1.00  0.00    -0.364 N 
ATOM      7  H3  UNL     1       1.108  -2.498  -2.286  1.00  0.00     0.165 HD
HETATM    8  C10 UNL     1       0.657  -0.759  -1.329  1.00  0.00     0.106 A 
HETATM    9  C11 UNL     1      -0.326   0.097  -0.805  1.00  0.00     0.050 A 
HETATM   10  C24 UNL     1      -1.654  -0.253  -0.900  1.00  0.00     0.062 A 
HETATM   11  C32 UNL     1      -1.947  -1.481  -1.555  1.00  0.00     0.045 A 
ENDROOT
BRANCH   9  12
HETATM   12  C12 UNL     1       0.173   1.427  -0.509  1.00  0.00     0.111 C 
HETATM   13  N4  UNL     1      -0.583   2.402  -0.658  1.00  0.00    -0.385 N 
ATOM     14  H42 UNL     1      -1.489   2.174  -1.067  1.00  0.00     0.157 HD
ATOM     15  H41 UNL     1      -0.232   3.337  -0.450  1.00  0.00     0.157 HD
BRANCH  12  16
HETATM   16  N5  UNL     1       1.448   1.748   0.066  1.00  0.00    -0.351 N 
HETATM   17  C13 UNL     1       1.707   3.190   0.398  1.00  0.00     0.162 C 
HETATM   18  C14 UNL     1       2.153   3.080   1.830  1.00  0.00     0.190 C 
HETATM   19  F1  UNL     1       1.071   2.911   2.673  1.00  0.00    -0.248 F 
HETATM   20  C15 UNL     1       2.981   1.836   1.812  1.00  0.00     0.073 C 
HETATM   21  C16 UNL     1       2.618   1.109   0.494  1.00  0.00     0.180 C 
BRANCH  21  22
HETATM   22  C17 UNL     1       3.779   1.418  -0.407  1.00  0.00     0.240 C 
HETATM   23  O1  UNL     1       3.627   1.958  -1.545  1.00  0.00    -0.271 OA
HETATM   24  N6  UNL     1       5.105   1.111  -0.007  1.00  0.00    -0.358 N 
ATOM     25  H6  UNL     1       5.298   0.673   0.894  1.00  0.00     0.162 HD
BRANCH  24  26
HETATM   26  C18 UNL     1       6.183   1.445  -0.933  1.00  0.00     0.152 C 
BRANCH  26  27
HETATM   27  C19 UNL     1       7.526   1.079  -0.394  1.00  0.00     0.292 C 
BRANCH  27  28
HETATM   28  N7  UNL     1       7.608  -0.321  -0.127  1.00  0.00     0.093 N 
HETATM   29  C20 UNL     1       8.914  -0.618   0.478  1.00  0.00     0.291 C 
HETATM   30  C21 UNL     1       8.956  -2.052   0.891  1.00  0.00     0.144 C 
HETATM   31  N8  UNL     1       8.510  -2.961  -0.117  1.00  0.00    -0.418 N 
HETATM   32  C22 UNL     1       7.312  -2.584  -0.804  1.00  0.00     0.144 C 
ATOM     33  H8  UNL     1       9.012  -3.822  -0.333  1.00  0.00     0.153 HD
HETATM   34  C23 UNL     1       7.475  -1.157  -1.297  1.00  0.00     0.291 C 
ENDBRANCH  27  28
ENDBRANCH  26  27
ENDBRANCH  24  26
ENDBRANCH  21  22
ENDBRANCH  12  16
ENDBRANCH   9  12
BRANCH  10  35
HETATM   35  N9  UNL     1      -2.594   0.207  -0.172  1.00  0.00    -0.368 N 
HETATM   36  C25 UNL     1      -2.846   1.058   0.860  1.00  0.00     0.066 C 
ATOM     37  H9  UNL     1      -3.474  -0.214  -0.470  1.00  0.00     0.165 HD
BRANCH  36  38
HETATM   38  C26 UNL     1      -3.715   2.250   0.772  1.00  0.00     0.024 C 
HETATM   39  C27 UNL     1      -3.679   2.979   2.167  1.00  0.00     0.010 C 
HETATM   40  C28 UNL     1      -4.405   4.277   1.936  1.00  0.00     0.001 C 
HETATM   41  C29 UNL     1      -5.887   3.907   1.848  1.00  0.00     0.000 C 
HETATM   42  C30 UNL     1      -6.070   3.118   0.603  1.00  0.00     0.001 C 
HETATM   43  C31 UNL     1      -5.144   1.917   0.483  1.00  0.00     0.010 C 
ENDBRANCH  36  38
ENDBRANCH  10  35
BRANCH   1  44
HETATM   44  N2  UNL     1      -4.330  -1.129  -1.468  1.00  0.00    -0.387 N 
ATOM     45  H2  UNL     1      -4.174  -0.126  -1.567  1.00  0.00     0.159 HD
BRANCH  44  46
HETATM   46  C4  UNL     1      -5.657  -1.532  -1.094  1.00  0.00     0.150 C 
BRANCH  46  47
HETATM   47  C3  UNL     1      -5.857  -1.990   0.290  1.00  0.00     0.290 C 
BRANCH  47  48
HETATM   48  N1  UNL     1      -5.180  -3.214   0.664  1.00  0.00     0.081 N 
HETATM   49  C1  UNL     1      -5.226  -3.302   2.149  1.00  0.00     0.309 C 
HETATM   50  C2  UNL     1      -6.010  -4.367   0.197  1.00  0.00     0.309 C 
ENDBRANCH  47  48
ENDBRANCH  46  47
ENDBRANCH  44  46
ENDBRANCH   1  44
TORSDOF 12
