REMARK  15 active torsions:
REMARK  status: ('A' for Active; 'I' for Inactive)
REMARK    1  A    between atoms: C2_2  and  C3_3 
REMARK    2  A    between atoms: C3_3  and  C4_4 
REMARK    3  A    between atoms: C4_4  and  C5_5 
REMARK    4  A    between atoms: C6_8  and  N2_9 
REMARK    5  A    between atoms: N2_9  and  C7_11 
REMARK    6  A    between atoms: C7_11  and  C8_12 
REMARK    7  A    between atoms: C8_12  and  C9_13 
REMARK    8  A    between atoms: C8_12  and  N3_20 
REMARK    9  A    between atoms: C9_13  and  C10_14 
REMARK   10  A    between atoms: N3_20  and  S1_22 
REMARK   11  A    between atoms: S1_22  and  C16_25 
REMARK   12  A    between atoms: N4_32  and  N5_33 
REMARK   13  A    between atoms: C23_37  and  C24_38 
REMARK   14  A    between atoms: C24_38  and  C25_39 
REMARK   15  A    between atoms: C25_39  and  O3_40 
ROOT
HETATM    1  C5  UNL     1       2.231  -1.185  -1.557  1.00  0.00     0.074 A 
HETATM    2  N1  UNL     1       0.989  -1.691  -1.605  1.00  0.00    -0.188 N 
ATOM      3  H1  UNL     1       0.686  -2.475  -2.183  1.00  0.00     0.184 HD
HETATM    4  C6  UNL     1       0.201  -0.979  -0.749  1.00  0.00     0.700 A 
HETATM    5  N4  UNL     1       1.003  -0.037  -0.190  1.00  0.00    -0.091 N 
HETATM    6  C22 UNL     1       2.244  -0.136  -0.662  1.00  0.00     0.097 A 
HETATM    7  C23 UNL     1       3.295   0.588  -0.374  1.00  0.00     0.011 C 
ENDROOT
BRANCH   4   8
HETATM    8  N2  UNL     1      -1.023  -1.246  -0.595  1.00  0.00    -0.222 N 
ATOM      9  H2  UNL     1      -1.387  -2.023  -1.146  1.00  0.00     0.177 HD
BRANCH   8  10
HETATM   10  C7  UNL     1      -1.956  -0.590   0.258  1.00  0.00     0.164 C 
BRANCH  10  11
HETATM   11  C8  UNL     1      -3.395  -0.988  -0.117  1.00  0.00     0.112 C 
BRANCH  11  12
HETATM   12  C9  UNL     1      -3.648  -0.587  -1.548  1.00  0.00     0.032 C 
BRANCH  12  13
HETATM   13  C10 UNL     1      -3.497   0.886  -1.811  1.00  0.00    -0.013 C 
HETATM   14  C11 UNL     1      -4.473   1.633  -0.938  1.00  0.00     0.005 C 
HETATM   15  C12 UNL     1      -4.569   3.091  -1.318  1.00  0.00     0.000 C 
HETATM   16  C13 UNL     1      -4.970   3.176  -2.764  1.00  0.00     0.000 C 
HETATM   17  C14 UNL     1      -3.877   2.593  -3.598  1.00  0.00     0.000 C 
HETATM   18  C15 UNL     1      -3.771   1.121  -3.284  1.00  0.00     0.005 C 
ENDBRANCH  12  13
ENDBRANCH  11  12
BRANCH  11  19
HETATM   19  N3  UNL     1      -3.478  -2.411   0.065  1.00  0.00    -0.309 N 
ATOM     20  H3  UNL     1      -2.889  -3.062  -0.454  1.00  0.00     0.172 HD
BRANCH  19  21
HETATM   21  S1  UNL     1      -4.625  -2.935   1.205  1.00  0.00     0.259 S 
HETATM   22  O1  UNL     1      -4.524  -4.451   1.271  1.00  0.00    -0.201 OA
HETATM   23  O2  UNL     1      -6.032  -2.563   0.833  1.00  0.00    -0.201 OA
BRANCH  21  24
HETATM   24  C16 UNL     1      -4.232  -2.307   2.766  1.00  0.00     0.079 A 
HETATM   25  C17 UNL     1      -3.404  -3.046   3.609  1.00  0.00     0.027 A 
HETATM   26  C18 UNL     1      -3.076  -2.574   4.861  1.00  0.00     0.025 A 
HETATM   27  C19 UNL     1      -3.545  -1.365   5.331  1.00  0.00     0.034 A 
HETATM   28 CL1  UNL     1      -3.125  -0.771   6.923  1.00  0.00    -0.084 Cl
HETATM   29  C20 UNL     1      -4.364  -0.643   4.486  1.00  0.00     0.025 A 
HETATM   30  C21 UNL     1      -4.698  -1.110   3.227  1.00  0.00     0.027 A 
ENDBRANCH  21  24
ENDBRANCH  19  21
ENDBRANCH  11  19
ENDBRANCH  10  11
ENDBRANCH   8  10
ENDBRANCH   4   8
BRANCH   5  31
HETATM   31  N5  UNL     1       0.508   0.856   0.743  1.00  0.00    -0.324 N 
ATOM     32  H52 UNL     1      -0.443   0.932   1.105  1.00  0.00     0.178 HD
ATOM     33  H51 UNL     1       1.111   1.564   1.163  1.00  0.00     0.178 HD
ENDBRANCH   5  31
BRANCH   1  34
HETATM   34  C4  UNL     1       3.252  -1.654  -2.277  1.00  0.00     0.006 C 
BRANCH  34  35
HETATM   35  C3  UNL     1       3.095  -2.795  -3.205  1.00  0.00     0.029 C 
BRANCH  35  36
HETATM   36  C2  UNL     1       4.211  -2.828  -4.193  1.00  0.00    -0.001 C 
HETATM   37  C1  UNL     1       4.229  -1.547  -5.000  1.00  0.00     0.005 C 
ENDBRANCH  35  36
ENDBRANCH  34  35
ENDBRANCH   1  34
BRANCH   7  38
HETATM   38  C24 UNL     1       3.410   1.710   0.552  1.00  0.00     0.067 C 
BRANCH  38  39
HETATM   39  C25 UNL     1       4.199   1.255   1.767  1.00  0.00     0.064 C 
HETATM   40  C26 UNL     1       5.585   0.832   1.389  1.00  0.00     0.057 C 
HETATM   41  C27 UNL     1       6.653   1.622   2.121  1.00  0.00     0.116 C 
HETATM   42  N6  UNL     1       6.458   1.687   3.537  1.00  0.00    -0.421 N 
HETATM   43  C28 UNL     1       5.097   1.810   3.959  1.00  0.00     0.116 C 
ATOM     44  H6  UNL     1       7.234   1.648   4.198  1.00  0.00     0.153 HD
HETATM   45  C29 UNL     1       4.285   2.359   2.805  1.00  0.00     0.057 C 
BRANCH  39  46
HETATM   46  O3  UNL     1       3.562   0.191   2.395  1.00  0.00    -0.389 OA
ATOM     47  H3  UNL     1       4.056  -0.094   3.155  1.00  0.00     0.210 HD
ENDBRANCH  39  46
ENDBRANCH  38  39
ENDBRANCH   7  38
TORSDOF 15
