REMARK  7 active torsions:
REMARK  status: ('A' for Active; 'I' for Inactive)
REMARK    1  A    between atoms: C2_2  and  C4_4 
REMARK    2  A    between atoms: C9_9  and  N1_10 
REMARK    3  A    between atoms: C13_14  and  C14_15 
REMARK    4  A    between atoms: C14_15  and  C15_16 
REMARK    5  A    between atoms: N3_27  and  C22_28 
REMARK    6  A    between atoms: C22_28  and  C23_29 
REMARK    7  A    between atoms: C23_29  and  O3_30 
ROOT
HETATM    1  C4  UNL     1       0.625  -1.797   0.262  1.00  0.00     0.010 C 
HETATM    2  C5  UNL     1       1.705  -0.933  -0.347  1.00  0.00     0.032 C 
HETATM    3  C6  UNL     1       1.753   0.322   0.478  1.00  0.00     0.094 C 
HETATM    4  C7  UNL     1       0.434   0.987   0.400  1.00  0.00     0.053 C 
HETATM    5  C8  UNL     1      -0.367   0.687  -0.843  1.00  0.00     0.049 C 
HETATM    6  C9  UNL     1      -1.314  -0.469  -0.651  1.00  0.00     0.242 C 
HETATM    7  C16 UNL     1      -0.671  -1.778  -0.459  1.00  0.00     0.130 C 
HETATM    8  C17 UNL     1      -0.483  -2.483  -1.753  1.00  0.00     0.066 C 
HETATM    9  N2  UNL     1      -0.358  -3.036  -2.763  1.00  0.00    -0.197 NA
HETATM   10  C18 UNL     1       0.816   2.446   0.401  1.00  0.00     0.015 A 
HETATM   11  S1  UNL     1       0.223   4.033   0.556  1.00  0.00    -0.104 SA
HETATM   12  C19 UNL     1       1.685   4.896   0.378  1.00  0.00     0.052 A 
HETATM   13  C20 UNL     1       2.609   3.905   0.199  1.00  0.00     0.037 A 
HETATM   14  C21 UNL     1       2.154   2.617   0.211  1.00  0.00     0.044 A 
HETATM   15  N3  UNL     1       2.717   1.281   0.071  1.00  0.00    -0.372 N 
ENDROOT
BRANCH   1  16
HETATM   16  C2  UNL     1       1.165  -3.233   0.202  1.00  0.00    -0.017 C 
HETATM   17  C1  UNL     1       0.184  -4.209   0.779  1.00  0.00     0.010 C 
HETATM   18  C3  UNL     1       2.465  -3.378   0.947  1.00  0.00     0.010 C 
ENDBRANCH   1  16
BRANCH   6  19
HETATM   19  N1  UNL     1      -2.271  -0.077   0.339  1.00  0.00     0.099 N 
HETATM   20  C10 UNL     1      -3.061  -1.142   0.878  1.00  0.00     0.273 C 
HETATM   21  C11 UNL     1      -4.120  -0.414   1.687  1.00  0.00     0.032 C 
HETATM   22  C12 UNL     1      -4.226   0.937   1.055  1.00  0.00     0.038 C 
HETATM   23  C13 UNL     1      -3.069   1.028   0.049  1.00  0.00     0.233 C 
BRANCH  23  24
HETATM   24  C14 UNL     1      -3.680   1.185  -1.284  1.00  0.00     0.148 C 
BRANCH  24  25
HETATM   25  C15 UNL     1      -4.464   2.460  -1.274  1.00  0.00     0.174 C 
HETATM   26  O1  UNL     1      -5.103   2.875  -2.293  1.00  0.00    -0.648 OA
HETATM   27  O2  UNL     1      -4.532   3.252  -0.146  1.00  0.00    -0.648 OA
ENDBRANCH  24  25
ENDBRANCH  23  24
ENDBRANCH   6  19
BRANCH  15  28
HETATM   28  C22 UNL     1       4.043   0.962  -0.400  1.00  0.00     0.149 C 
BRANCH  28  29
HETATM   29  C23 UNL     1       4.837   0.411   0.784  1.00  0.00     0.183 C 
BRANCH  29  30
HETATM   30  O3  UNL     1       6.135   0.076   0.426  1.00  0.00    -0.399 OA
ATOM     31  H3  UNL     1       6.629  -0.266   1.162  1.00  0.00     0.209 HD
ENDBRANCH  29  30
ENDBRANCH  28  29
ENDBRANCH  15  28
TORSDOF 7
