REMARK  6 active torsions:
REMARK  status: ('A' for Active; 'I' for Inactive)
REMARK    1  A    between atoms: N3_4  and  N4_6 
REMARK    2  A    between atoms: N4_6  and  C2_8 
REMARK    3  A    between atoms: C5_11  and  C6_12 
REMARK    4  A    between atoms: C6_12  and  C7_13 
REMARK    5  A    between atoms: C7_13  and  N5_14 
REMARK    6  A    between atoms: C10_17  and  C11_18 
ROOT
HETATM    1  C2  UNL     1       3.017  -1.264  -0.188  1.00  0.00     0.048 A 
HETATM    2  C3  UNL     1       2.645  -0.100   0.454  1.00  0.00     0.031 A 
HETATM    3  C4  UNL     1       1.371   0.390   0.282  1.00  0.00     0.009 A 
HETATM    4  C5  UNL     1       0.437  -0.239  -0.514  1.00  0.00    -0.057 A 
HETATM    5  C14 UNL     1       0.838  -1.399  -1.142  1.00  0.00     0.009 A 
HETATM    6  C15 UNL     1       2.105  -1.918  -0.992  1.00  0.00     0.031 A 
ENDROOT
BRANCH   4   7
HETATM    7  C6  UNL     1      -0.940   0.287  -0.703  1.00  0.00     0.058 C 
BRANCH   7   8
HETATM    8  C7  UNL     1      -1.802  -0.322   0.373  1.00  0.00     0.132 C 
BRANCH   8   9
HETATM    9  N5  UNL     1      -3.182   0.117   0.297  1.00  0.00    -0.366 N 
HETATM   10  C8  UNL     1      -4.073  -0.571  -0.440  1.00  0.00     0.091 A 
HETATM   11  C9  UNL     1      -5.395  -0.192  -0.542  1.00  0.00     0.031 A 
HETATM   12  C10 UNL     1      -5.862   0.924   0.119  1.00  0.00     0.004 A 
HETATM   13  C12 UNL     1      -4.936   1.631   0.881  1.00  0.00     0.031 A 
HETATM   14  C13 UNL     1      -3.624   1.212   0.951  1.00  0.00     0.091 A 
BRANCH  12  15
HETATM   15  C11 UNL     1      -7.249   1.352   0.034  1.00  0.00     0.270 C 
HETATM   16  O1  UNL     1      -7.714   2.358   0.617  1.00  0.00    -0.301 OA
ENDBRANCH  12  15
ENDBRANCH   8   9
ENDBRANCH   7   8
ENDBRANCH   4   7
BRANCH   1  17
HETATM   17  N4  UNL     1       4.337  -1.756   0.002  1.00  0.00    -0.299 N 
ATOM     18  H4  UNL     1       4.620  -2.616  -0.468  1.00  0.00     0.187 HD
BRANCH  17  19
HETATM   19  N3  UNL     1       5.244  -1.100   0.805  1.00  0.00    -0.276 N 
HETATM   20  C1  UNL     1       5.950  -0.094   0.482  1.00  0.00     0.215 C 
HETATM   21  N1  UNL     1       5.826   0.447  -0.829  1.00  0.00    -0.065 NA
HETATM   22  N2  UNL     1       6.843   0.478   1.413  1.00  0.00    -0.065 NA
ATOM     23  H3  UNL     1       5.360  -1.457   1.753  1.00  0.00     0.189 HD
ENDBRANCH  17  19
ENDBRANCH   1  17
TORSDOF 6
