REMARK  15 active torsions:
REMARK  status: ('A' for Active; 'I' for Inactive)
REMARK    1  A    between atoms: N1_2  and  C2_5 
REMARK    2  A    between atoms: C3_6  and  N2_7 
REMARK    3  A    between atoms: C5_12  and  N3_13 
REMARK    4  A    between atoms: N3_13  and  N4_14 
REMARK    5  A    between atoms: C6_17  and  O1_18 
REMARK    6  A    between atoms: O1_18  and  C7_19 
REMARK    7  A    between atoms: C8_21  and  O3_22 
REMARK    8  A    between atoms: O3_22  and  C9_23 
REMARK    9  A    between atoms: C10_24  and  N5_25 
REMARK   10  A    between atoms: C12_30  and  N6_31 
REMARK   11  A    between atoms: C13_35  and  O4_36 
REMARK   12  A    between atoms: C14_38  and  N7_39 
REMARK   13  A    between atoms: C16_43  and  N8_44 
REMARK   14  A    between atoms: C18_49  and  N9_50 
REMARK   15  A    between atoms: C19_54  and  O5_55 
ROOT
HETATM    1  C7  UNL     1      -0.567   1.627   0.608  1.00  0.00     0.294 C 
HETATM    2  O2  UNL     1       0.495   1.104  -0.232  1.00  0.00    -0.327 OA
HETATM    3  C8  UNL     1       1.407   0.511   0.603  1.00  0.00     0.293 C 
HETATM    4  C16 UNL     1       1.707   1.291   1.849  1.00  0.00     0.240 C 
HETATM    5  C17 UNL     1       1.195   2.677   1.872  1.00  0.00     0.075 C 
HETATM    6  C18 UNL     1      -0.029   2.940   1.019  1.00  0.00     0.240 C 
ENDROOT
BRANCH   1   7
HETATM    7  O1  UNL     1      -1.704   1.746  -0.185  1.00  0.00    -0.349 OA
BRANCH   7   8
HETATM    8  C6  UNL     1      -2.673   0.792   0.103  1.00  0.00     0.176 C 
HETATM    9  C5  UNL     1      -4.024   1.268   0.409  1.00  0.00     0.132 C 
HETATM   10  C4  UNL     1      -4.837   1.297  -0.879  1.00  0.00     0.060 C 
HETATM   11  C3  UNL     1      -5.142  -0.178  -1.174  1.00  0.00     0.218 C 
HETATM   12  C2  UNL     1      -3.866  -0.979  -1.233  1.00  0.00     0.246 C 
HETATM   13  C19 UNL     1      -2.634  -0.158  -1.095  1.00  0.00     0.181 C 
BRANCH   9  14
HETATM   14  N3  UNL     1      -4.186   2.517   1.063  1.00  0.00    -0.141 NA
BRANCH  14  15
HETATM   15  N4  UNL     1      -5.507   2.799   1.384  1.00  0.00    -0.348 N 
ATOM     16  H42 UNL     1      -6.273   2.162   1.165  1.00  0.00     0.172 HD
ATOM     17  H41 UNL     1      -5.623   3.697   1.854  1.00  0.00     0.172 HD
ENDBRANCH  14  15
ENDBRANCH   9  14
BRANCH  11  18
HETATM   18  N2  UNL     1      -5.935  -0.254  -2.359  1.00  0.00    -0.073 N 
ATOM     19  H23 UNL     1      -5.384   0.012  -3.175  1.00  0.00     0.274 HD
ATOM     20  H22 UNL     1      -6.134  -1.226  -2.594  1.00  0.00     0.274 HD
ATOM     21  H21 UNL     1      -6.798   0.288  -2.319  1.00  0.00     0.274 HD
ENDBRANCH  11  18
BRANCH  12  22
HETATM   22  N1  UNL     1      -3.903  -2.107  -0.318  1.00  0.00    -0.070 N 
HETATM   23  C1  UNL     1      -4.967  -3.021  -0.692  1.00  0.00     0.267 C 
ATOM     24  H12 UNL     1      -3.982  -1.807   0.654  1.00  0.00     0.277 HD
ATOM     25  H11 UNL     1      -3.000  -2.578  -0.257  1.00  0.00     0.277 HD
ENDBRANCH  12  22
BRANCH  13  26
HETATM   26  O5  UNL     1      -1.556  -1.014  -0.881  1.00  0.00    -0.391 OA
ATOM     27  H5  UNL     1      -0.769  -0.489  -0.793  1.00  0.00     0.210 HD
ENDBRANCH  13  26
ENDBRANCH   7   8
ENDBRANCH   1   7
BRANCH   6  28
HETATM   28  N9  UNL     1      -0.922   3.870   1.621  1.00  0.00    -0.070 N 
ATOM     29  H93 UNL     1      -1.720   4.015   1.003  1.00  0.00     0.274 HD
ATOM     30  H92 UNL     1      -1.374   3.429   2.422  1.00  0.00     0.274 HD
ATOM     31  H91 UNL     1      -0.551   4.777   1.905  1.00  0.00     0.274 HD
ENDBRANCH   6  28
BRANCH   3  32
HETATM   32  O3  UNL     1       2.564   0.213  -0.108  1.00  0.00    -0.349 OA
BRANCH  32  33
HETATM   33  C9  UNL     1       2.843  -1.132  -0.226  1.00  0.00     0.188 C 
HETATM   34  C10 UNL     1       2.963  -1.565  -1.682  1.00  0.00     0.216 C 
HETATM   35  C11 UNL     1       4.106  -0.918  -2.386  1.00  0.00     0.070 C 
HETATM   36  C12 UNL     1       4.879   0.080  -1.577  1.00  0.00     0.216 C 
HETATM   37  C13 UNL     1       5.243  -0.417  -0.202  1.00  0.00     0.181 C 
HETATM   38  C14 UNL     1       4.217  -1.362   0.367  1.00  0.00     0.246 C 
BRANCH  34  39
HETATM   39  N5  UNL     1       3.238  -3.009  -1.637  1.00  0.00    -0.072 N 
ATOM     40  H53 UNL     1       4.047  -3.256  -1.067  1.00  0.00     0.274 HD
ATOM     41  H52 UNL     1       2.550  -3.542  -1.105  1.00  0.00     0.274 HD
ATOM     42  H51 UNL     1       3.318  -3.299  -2.612  1.00  0.00     0.274 HD
ENDBRANCH  34  39
BRANCH  36  43
HETATM   43  N6  UNL     1       6.141   0.318  -2.290  1.00  0.00    -0.072 N 
ATOM     44  H63 UNL     1       6.663  -0.537  -2.479  1.00  0.00     0.274 HD
ATOM     45  H62 UNL     1       6.007   0.604  -3.260  1.00  0.00     0.274 HD
ATOM     46  H61 UNL     1       6.667   0.997  -1.740  1.00  0.00     0.274 HD
ENDBRANCH  36  43
BRANCH  37  47
HETATM   47  O4  UNL     1       6.476  -1.029  -0.144  1.00  0.00    -0.391 OA
ATOM     48  H4  UNL     1       6.706  -1.342   0.723  1.00  0.00     0.210 HD
ENDBRANCH  37  47
BRANCH  38  49
HETATM   49  N7  UNL     1       4.182  -1.379   1.814  1.00  0.00    -0.070 N 
HETATM   50  C15 UNL     1       3.362  -2.478   2.227  1.00  0.00     0.267 C 
ATOM     51  H72 UNL     1       5.113  -1.404   2.230  1.00  0.00     0.277 HD
ATOM     52  H71 UNL     1       3.878  -0.490   2.211  1.00  0.00     0.277 HD
ENDBRANCH  38  49
ENDBRANCH  32  33
ENDBRANCH   3  32
BRANCH   4  53
HETATM   53  N8  UNL     1       1.288   0.590   3.059  1.00  0.00    -0.070 N 
ATOM     54  H83 UNL     1       0.301   0.335   3.013  1.00  0.00     0.274 HD
ATOM     55  H82 UNL     1       1.696  -0.344   3.103  1.00  0.00     0.274 HD
ATOM     56  H81 UNL     1       1.492   1.120   3.906  1.00  0.00     0.274 HD
ENDBRANCH   4  53
TORSDOF 15
