REMARK  9 active torsions:
REMARK  status: ('A' for Active; 'I' for Inactive)
REMARK    1  A    between atoms: C2_2  and  C3_3 
REMARK    2  A    between atoms: C3_3  and  O2_5 
REMARK    3  A    between atoms: O2_5  and  C4_6 
REMARK    4  A    between atoms: C11_13  and  O3_14 
REMARK    5  A    between atoms: C13_17  and  O4_18 
REMARK    6  A    between atoms: O4_18  and  C14_19 
REMARK    7  A    between atoms: C16_22  and  O6_23 
REMARK    8  A    between atoms: O6_23  and  C17_24 
REMARK    9  A    between atoms: C20_28  and  O8_29 
ROOT
HETATM    1  C4  UNL     1       3.227   0.224  -0.432  1.00  0.00     0.141 C 
HETATM    2  C5  UNL     1       1.789   0.513  -0.301  1.00  0.00     0.046 C 
HETATM    3  C6  UNL     1       0.968  -0.376   0.573  1.00  0.00     0.000 C 
HETATM    4  C7  UNL     1       1.018   0.232   1.964  1.00  0.00     0.019 C 
HETATM    5  C8  UNL     1       1.580  -1.736   0.647  1.00  0.00    -0.026 C 
HETATM    6  C9  UNL     1       0.783  -2.760   1.364  1.00  0.00     0.014 C 
HETATM    7  C10 UNL     1      -0.686  -2.648   1.274  1.00  0.00     0.042 C 
HETATM    8  C11 UNL     1      -1.257  -1.283   1.155  1.00  0.00     0.092 C 
HETATM    9  C12 UNL     1      -2.640  -1.444   0.500  1.00  0.00     0.076 C 
HETATM   10  C13 UNL     1      -3.352  -0.146   0.398  1.00  0.00     0.164 C 
HETATM   11  C16 UNL     1      -2.521   1.054   0.196  1.00  0.00     0.164 C 
HETATM   12  C19 UNL     1      -1.099   0.856  -0.157  1.00  0.00     0.077 C 
HETATM   13  C20 UNL     1      -0.490  -0.451   0.153  1.00  0.00     0.099 C 
HETATM   14  C21 UNL     1       2.056  -2.282  -0.676  1.00  0.00     0.044 C 
HETATM   15  C22 UNL     1       3.546  -2.153  -0.694  1.00  0.00    -0.082 C 
HETATM   16  C23 UNL     1       4.462  -2.829  -1.342  1.00  0.00     0.015 C 
HETATM   17  C24 UNL     1       3.750  -1.008   0.251  1.00  0.00     0.044 C 
HETATM   18  C25 UNL     1       2.926  -1.542   1.361  1.00  0.00     0.022 C 
ENDROOT
BRANCH   1  19
HETATM   19  O2  UNL     1       4.016   1.362  -0.072  1.00  0.00    -0.312 OA
BRANCH  19  20
HETATM   20  C3  UNL     1       4.818   2.077  -0.904  1.00  0.00     0.282 C 
HETATM   21  O1  UNL     1       4.879   1.713  -2.106  1.00  0.00    -0.260 OA
BRANCH  20  22
HETATM   22  C2  UNL     1       5.577   3.216  -0.433  1.00  0.00     0.072 C 
HETATM   23  C1  UNL     1       5.533   3.620   0.820  1.00  0.00     0.017 C 
ENDBRANCH  20  22
ENDBRANCH  19  20
ENDBRANCH   1  19
BRANCH  13  24
HETATM   24  O8  UNL     1      -0.630  -1.241  -1.019  1.00  0.00    -0.386 OA
ATOM     25  H8  UNL     1      -1.542  -1.288  -1.282  1.00  0.00     0.210 HD
ENDBRANCH  13  24
BRANCH   8  26
HETATM   26  O3  UNL     1      -1.449  -0.728   2.367  1.00  0.00    -0.387 OA
ATOM     27  H3  UNL     1      -1.814   0.146   2.291  1.00  0.00     0.210 HD
ENDBRANCH   8  26
BRANCH  11  28
HETATM   28  O6  UNL     1      -3.158   1.887  -0.774  1.00  0.00    -0.314 OA
BRANCH  28  29
HETATM   29  C17 UNL     1      -3.661   3.128  -0.524  1.00  0.00     0.255 C 
HETATM   30  C18 UNL     1      -4.319   3.943  -1.605  1.00  0.00     0.126 C 
HETATM   31  O7  UNL     1      -3.573   3.599   0.629  1.00  0.00    -0.266 OA
ENDBRANCH  28  29
ENDBRANCH  11  28
BRANCH  10  32
HETATM   32  O4  UNL     1      -4.296  -0.286  -0.677  1.00  0.00    -0.314 OA
BRANCH  32  33
HETATM   33  C14 UNL     1      -5.648  -0.287  -0.513  1.00  0.00     0.255 C 
HETATM   34  C15 UNL     1      -6.583  -0.438  -1.678  1.00  0.00     0.126 C 
HETATM   35  O5  UNL     1      -6.095  -0.154   0.666  1.00  0.00    -0.266 OA
ENDBRANCH  32  33
ENDBRANCH  10  32
TORSDOF 9
