REMARK  6 active torsions:
REMARK  status: ('A' for Active; 'I' for Inactive)
REMARK    1  A    between atoms: C3_3  and  O1_4 
REMARK    2  A    between atoms: O1_4  and  N1_5 
REMARK    3  A    between atoms: C4_7  and  O2_8 
REMARK    4  A    between atoms: C4_7  and  C5_10 
REMARK    5  A    between atoms: C15_21  and  O4_23 
REMARK    6  A    between atoms: C21_30  and  O5_31 
ROOT
HETATM    1  C1  UNL     1       7.810  -2.094  -1.250  1.00  0.00     0.014 C 
HETATM    2  C2  UNL     1       6.784  -1.673  -0.777  1.00  0.00    -0.089 C 
HETATM    3  C3  UNL     1       5.543  -1.187  -0.223  1.00  0.00     0.294 C 
ENDROOT
BRANCH   3   4
HETATM    4  O1  UNL     1       4.418  -1.692  -0.957  1.00  0.00    -0.267 OA
BRANCH   4   5
HETATM    5  N1  UNL     1       3.143  -1.366  -0.614  1.00  0.00    -0.247 N 
HETATM    6  C4  UNL     1       2.508  -0.362  -1.053  1.00  0.00     0.145 C 
ATOM      7  H1  UNL     1       2.662  -1.976   0.047  1.00  0.00     0.196 HD
BRANCH   6   8
HETATM    8  O2  UNL     1       3.259   0.400  -1.947  1.00  0.00    -0.348 OA
ATOM      9  H2  UNL     1       2.783   1.153  -2.276  1.00  0.00     0.219 HD
ENDBRANCH   6   8
BRANCH   6  10
HETATM   10  C5  UNL     1       1.169   0.113  -0.790  1.00  0.00     0.107 C 
HETATM   11  C6  UNL     1       1.292   1.469  -0.172  1.00  0.00    -0.050 C 
HETATM   12  C7  UNL     1       2.271   2.222   0.304  1.00  0.00    -0.014 C 
HETATM   13  C10 UNL     1       0.017   2.223  -0.052  1.00  0.00     0.065 C 
HETATM   14  C8  UNL     1       1.742   3.518   0.802  1.00  0.00     0.107 C 
HETATM   15  C9  UNL     1       0.329   3.115   1.090  1.00  0.00     0.147 C 
HETATM   16  O3  UNL     1      -0.279   3.497   2.049  1.00  0.00    -0.296 OA
HETATM   17  C11 UNL     1       0.049   3.173  -1.276  1.00  0.00     0.033 C 
HETATM   18  C12 UNL     1      -1.210   1.423   0.020  1.00  0.00    -0.055 C 
HETATM   19  C13 UNL     1      -2.196   1.883   1.105  1.00  0.00     0.039 C 
HETATM   20  C24 UNL     1      -1.110  -0.052  -0.041  1.00  0.00    -0.037 C 
HETATM   21  C14 UNL     1      -3.532   1.255   0.663  1.00  0.00     0.044 C 
HETATM   22  C15 UNL     1      -3.393  -0.202   1.078  1.00  0.00     0.080 C 
HETATM   23  C16 UNL     1      -4.687  -0.891   0.707  1.00  0.00     0.048 C 
HETATM   24  C17 UNL     1      -2.162  -0.850   0.625  1.00  0.00     0.095 C 
HETATM   25 CL1  UNL     1      -1.574  -1.743   2.090  1.00  0.00    -0.111 Cl
HETATM   26  C18 UNL     1      -2.407  -2.050  -0.313  1.00  0.00     0.015 C 
HETATM   27  C19 UNL     1      -2.801  -1.629  -1.698  1.00  0.00     0.012 C 
HETATM   28  C20 UNL     1      -1.119  -2.793  -0.282  1.00  0.00     0.039 C 
HETATM   29  C21 UNL     1       0.158  -2.109  -0.253  1.00  0.00     0.132 C 
HETATM   30  C22 UNL     1       0.291  -0.670   0.167  1.00  0.00     0.022 C 
HETATM   31  C23 UNL     1       0.852  -0.491   1.527  1.00  0.00     0.024 C 
BRANCH  22  32
HETATM   32  O4  UNL     1      -3.498  -0.088   2.496  1.00  0.00    -0.388 OA
ATOM     33  H4  UNL     1      -3.411  -0.998   2.755  1.00  0.00     0.210 HD
ENDBRANCH  22  32
BRANCH  29  34
HETATM   34  O5  UNL     1       0.963  -2.854   0.655  1.00  0.00    -0.394 OA
ATOM     35  H5  UNL     1       1.800  -2.406   0.674  1.00  0.00     0.210 HD
ENDBRANCH  29  34
ENDBRANCH   6  10
ENDBRANCH   4   5
ENDBRANCH   3   4
TORSDOF 6
