REMARK  2 active torsions:
REMARK  status: ('A' for Active; 'I' for Inactive)
REMARK    1  A    between atoms: C2_2  and  C3_3 
REMARK    2  A    between atoms: C3_3  and  N1_4 
ROOT
HETATM    1  N1  UNL     1      -0.230  -0.749   0.512  1.00  0.00    -0.373 N 
ATOM      2  H1  UNL     1      -0.308  -1.562   1.123  1.00  0.00     0.161 HD
HETATM    3  C4  UNL     1       0.906  -0.195   0.279  1.00  0.00     0.103 A 
HETATM    4  C5  UNL     1       1.033   0.901  -0.545  1.00  0.00     0.065 A 
HETATM    5  C6  UNL     1       2.271   1.463  -0.768  1.00  0.00     0.092 A 
HETATM    6  N2  UNL     1       3.332   0.916  -0.167  1.00  0.00    -0.362 N 
ATOM      7  H2  UNL     1       4.261   1.310  -0.314  1.00  0.00     0.165 HD
HETATM    8  C7  UNL     1       3.173  -0.158   0.634  1.00  0.00     0.181 A 
HETATM    9  N3  UNL     1       1.978  -0.727   0.870  1.00  0.00    -0.339 N 
ATOM     10  H3  UNL     1       1.893  -1.539   1.481  1.00  0.00     0.168 HD
ENDROOT
BRANCH   1  11
HETATM   11  C3  UNL     1      -1.393  -0.174  -0.127  1.00  0.00     0.147 C 
BRANCH  11  12
HETATM   12  C2  UNL     1      -2.592  -0.948   0.309  1.00  0.00    -0.018 C 
HETATM   13  C1  UNL     1      -3.560  -0.339   0.942  1.00  0.00     0.008 C 
ENDBRANCH  11  12
ENDBRANCH   1  11
TORSDOF 2
