REMARK  4 active torsions:
REMARK  status: ('A' for Active; 'I' for Inactive)
REMARK    1  A    between atoms: N1_1  and  C1_5 
REMARK    2  A    between atoms: C1_5  and  C2_6 
REMARK    3  A    between atoms: C2_6  and  C3_7 
REMARK    4  A    between atoms: C7_11  and  C8_12 
ROOT
HETATM    1  C3  UNL     1       0.051  -0.179   0.631  1.00  0.00    -0.007 C 
HETATM    2  C4  UNL     1      -0.623   0.990   1.335  1.00  0.00     0.005 C 
HETATM    3  C5  UNL     1      -1.325   1.715   0.204  1.00  0.00     0.001 C 
HETATM    4  C6  UNL     1      -1.879   0.578  -0.604  1.00  0.00     0.007 C 
HETATM    5  C7  UNL     1      -0.900  -0.575  -0.442  1.00  0.00     0.018 C 
ENDROOT
BRANCH   1   6
HETATM    6  C2  UNL     1       1.376   0.311   0.141  1.00  0.00     0.032 C 
BRANCH   6   7
HETATM    7  C1  UNL     1       2.166  -0.750  -0.585  1.00  0.00     0.230 C 
BRANCH   7   8
HETATM    8  N1  UNL     1       3.425  -0.169  -1.013  1.00  0.00    -0.079 N 
ATOM      9  H13 UNL     1       3.298   0.676  -1.570  1.00  0.00     0.274 HD
ATOM     10  H12 UNL     1       3.946   0.250  -0.243  1.00  0.00     0.274 HD
ATOM     11  H11 UNL     1       3.959  -0.886  -1.504  1.00  0.00     0.274 HD
ENDBRANCH   7   8
ENDBRANCH   6   7
ENDBRANCH   1   6
BRANCH   5  12
HETATM   12  C8  UNL     1      -1.712  -1.775   0.064  1.00  0.00     0.227 C 
HETATM   13  F1  UNL     1      -2.616  -2.183  -0.904  1.00  0.00    -0.255 F 
ENDBRANCH   5  12
TORSDOF 4
