REMARK  4 active torsions:
REMARK  status: ('A' for Active; 'I' for Inactive)
REMARK    1  A    between atoms: C1_2  and  N1_3 
REMARK    2  A    between atoms: C1_2  and  N3_14 
REMARK    3  A    between atoms: N1_3  and  N2_5 
REMARK    4  A    between atoms: C12_19  and  C13_20 
ROOT
HETATM    1  N3  UNL     1      -2.044   0.797   0.580  1.00  0.00    -0.325 N 
HETATM    2  C9  UNL     1      -2.731   1.957   1.045  1.00  0.00     0.130 C 
HETATM    3  C10 UNL     1      -3.638   1.760   2.203  1.00  0.00     0.046 C 
HETATM    4  C11 UNL     1      -4.063   0.355   2.446  1.00  0.00     0.172 C 
HETATM    5  O1  UNL     1      -3.300  -0.633   1.995  1.00  0.00    -0.361 OA
HETATM    6  C12 UNL     1      -2.516  -0.491   0.906  1.00  0.00     0.279 C 
ENDROOT
BRANCH   1   7
HETATM    7  C1  UNL     1      -0.883   0.964  -0.212  1.00  0.00     0.191 C 
HETATM    8  S1  UNL     1      -0.366   2.473  -0.569  1.00  0.00    -0.039 SA
BRANCH   7   9
HETATM    9  N1  UNL     1      -0.135  -0.128  -0.718  1.00  0.00    -0.276 N 
ATOM     10  H1  UNL     1      -0.436  -1.080  -0.509  1.00  0.00     0.189 HD
BRANCH   9  11
HETATM   11  N2  UNL     1       1.008   0.074  -1.498  1.00  0.00    -0.307 N 
HETATM   12  C2  UNL     1       2.184   0.181  -0.988  1.00  0.00     0.004 C 
HETATM   13  C3  UNL     1       2.209   0.069   0.489  1.00  0.00     0.054 C 
HETATM   14  C8  UNL     1       3.351   0.394  -1.868  1.00  0.00     0.054 C 
HETATM   15  C4  UNL     1       3.313  -0.940   0.824  1.00  0.00     0.006 C 
HETATM   16  C5  UNL     1       4.650  -0.334   0.449  1.00  0.00     0.000 C 
HETATM   17  C6  UNL     1       5.199  -0.937  -0.820  1.00  0.00     0.000 C 
HETATM   18  C7  UNL     1       4.233  -0.827  -1.972  1.00  0.00     0.006 C 
ATOM     19  H2  UNL     1       0.905   0.139  -2.511  1.00  0.00     0.186 HD
ENDBRANCH   9  11
ENDBRANCH   7   9
ENDBRANCH   1   7
BRANCH   6  20
HETATM   20  C13 UNL     1      -3.277  -1.037  -0.262  1.00  0.00     0.092 A 
HETATM   21  C14 UNL     1      -4.202  -0.366  -1.036  1.00  0.00     0.139 A 
HETATM   22  N4  UNL     1      -4.648  -1.216  -1.971  1.00  0.00    -0.295 N 
HETATM   23  N5  UNL     1      -4.033  -2.355  -1.790  1.00  0.00    -0.243 N 
ATOM     24  H4  UNL     1      -5.340  -1.012  -2.692  1.00  0.00     0.187 HD
HETATM   25  N6  UNL     1      -3.206  -2.264  -0.768  1.00  0.00    -0.285 N 
ATOM     26  H5  UNL     1      -4.173  -3.192  -2.357  1.00  0.00     0.208 HD
ATOM     27  H6  UNL     1      -2.608  -3.014  -0.421  1.00  0.00     0.188 HD
ENDBRANCH   6  20
TORSDOF 4
