REMARK  9 active torsions:
REMARK  status: ('A' for Active; 'I' for Inactive)
REMARK    1  A    between atoms: C2_2  and  C3_3 
REMARK    2  A    between atoms: C3_3  and  C4_4 
REMARK    3  A    between atoms: C10_12  and  C11_13 
REMARK    4  A    between atoms: C13_16  and  N2_17 
REMARK    5  A    between atoms: N2_17  and  C14_19 
REMARK    6  A    between atoms: C14_19  and  N3_21 
REMARK    7  A    between atoms: N3_21  and  C15_23 
REMARK    8  A    between atoms: C15_23  and  C16_24 
REMARK    9  A    between atoms: C16_24  and  C17_25 
ROOT
HETATM    1  C4  UNL     1       3.097  -0.392  -0.219  1.00  0.00    -0.060 C 
HETATM    2  C5  UNL     1       2.227  -0.778  -1.144  1.00  0.00     0.019 C 
HETATM    3  C6  UNL     1       1.215  -1.732  -0.643  1.00  0.00     0.118 C 
HETATM    4  C7  UNL     1       0.315  -2.218  -1.762  1.00  0.00     0.055 C 
HETATM    5  O1  UNL     1       1.993  -2.824  -0.167  1.00  0.00    -0.286 OA
HETATM    6  N1  UNL     1       2.644  -2.458   0.941  1.00  0.00    -0.191 NA
HETATM    7  C8  UNL     1       3.850  -3.166   1.220  1.00  0.00     0.144 C 
HETATM    8  C9  UNL     1       2.785  -1.033   1.118  1.00  0.00     0.124 C 
HETATM    9  C10 UNL     1       1.403  -0.487   1.451  1.00  0.00     0.059 C 
HETATM   10  C13 UNL     1       0.437  -1.289   0.559  1.00  0.00     0.133 C 
ENDROOT
BRANCH  10  11
HETATM   11  N2  UNL     1      -0.730  -0.514   0.223  1.00  0.00    -0.359 N 
ATOM     12  H2  UNL     1      -0.794  -0.029  -0.672  1.00  0.00     0.162 HD
BRANCH  11  13
HETATM   13  C14 UNL     1      -1.790  -0.440   1.166  1.00  0.00     0.168 C 
HETATM   14  S1  UNL     1      -1.748  -1.262   2.577  1.00  0.00    -0.041 SA
BRANCH  13  15
HETATM   15  N3  UNL     1      -2.952   0.327   0.895  1.00  0.00    -0.367 N 
ATOM     16  H3  UNL     1      -3.713   0.380   1.572  1.00  0.00     0.161 HD
BRANCH  15  17
HETATM   17  C15 UNL     1      -3.031   1.021  -0.344  1.00  0.00     0.125 C 
BRANCH  17  18
HETATM   18  C16 UNL     1      -4.285   1.707  -0.700  1.00  0.00     0.062 C 
BRANCH  18  19
HETATM   19  C17 UNL     1      -5.451   0.821  -0.912  1.00  0.00     0.098 C 
HETATM   20  C18 UNL     1      -6.625   1.761  -1.295  1.00  0.00     0.051 C 
HETATM   21  C19 UNL     1      -5.846  -0.061   0.207  1.00  0.00     0.051 C 
HETATM   22  F1  UNL     1      -5.289   0.002  -2.038  1.00  0.00    -0.244 F 
ENDBRANCH  18  19
ENDBRANCH  17  18
ENDBRANCH  15  17
ENDBRANCH  13  15
ENDBRANCH  11  13
ENDBRANCH  10  11
BRANCH   9  23
HETATM   23  C11 UNL     1       1.309   0.953   1.258  1.00  0.00    -0.011 C 
HETATM   24  C12 UNL     1       1.061   1.869   2.166  1.00  0.00     0.052 C 
HETATM   25 BR1  UNL     1       0.765   1.491   4.006  1.00  0.00    -0.064 Br
ENDBRANCH   9  23
BRANCH   1  26
HETATM   26  C3  UNL     1       4.212   0.532  -0.380  1.00  0.00     0.035 C 
BRANCH  26  27
HETATM   27  C2  UNL     1       4.343   1.077  -1.781  1.00  0.00    -0.000 C 
HETATM   28  C1  UNL     1       5.549   2.018  -1.766  1.00  0.00     0.005 C 
ENDBRANCH  26  27
ENDBRANCH   1  26
TORSDOF 9
