REMARK  10 active torsions:
REMARK  status: ('A' for Active; 'I' for Inactive)
REMARK    1  A    between atoms: C3_3  and  C4_4 
REMARK    2  A    between atoms: C4_4  and  O1_5 
REMARK    3  A    between atoms: O1_5  and  C5_6 
REMARK    4  A    between atoms: C8_10  and  C9_11 
REMARK       I    between atoms: C9_11  and  N1_13 
REMARK    5  A    between atoms: N1_13  and  C10_15 
REMARK    6  A    between atoms: C10_15  and  C11_16 
REMARK    7  A    between atoms: C10_15  and  C15_20 
REMARK    8  A    between atoms: C11_16  and  C12_17 
REMARK       I    between atoms: C15_20  and  N2_22 
REMARK    9  A    between atoms: N2_22  and  C16_24 
REMARK   10  A    between atoms: C21_29  and  C22_30 
ROOT
HETATM    1  C1  UNL     1       6.010   3.815  -1.868  1.00  0.00     0.112 C 
HETATM    2  C2  UNL     1       6.035   3.045  -0.620  1.00  0.00    -0.109 C 
HETATM    3  C3  UNL     1       6.031   2.408   0.426  1.00  0.00    -0.080 C 
ENDROOT
BRANCH   3   4
HETATM    4  C4  UNL     1       6.007   1.674   1.676  1.00  0.00     0.269 C 
BRANCH   4   5
HETATM    5  O1  UNL     1       5.300   0.486   1.511  1.00  0.00    -0.339 OA
BRANCH   5   6
HETATM    6  C5  UNL     1       4.001   0.311   1.146  1.00  0.00     0.080 A 
HETATM    7  C6  UNL     1       3.123   1.318   0.868  1.00  0.00     0.080 A 
HETATM    8  C7  UNL     1       1.802   1.072   0.500  1.00  0.00     0.134 A 
HETATM    9  F1  UNL     1       0.982   2.141   0.250  1.00  0.00    -0.205 F 
HETATM   10  C8  UNL     1       1.328  -0.207   0.402  1.00  0.00     0.071 A 
HETATM   11  C20 UNL     1       2.251  -1.219   0.693  1.00  0.00     0.030 A 
HETATM   12  C21 UNL     1       3.552  -1.002   1.056  1.00  0.00    -0.016 A 
BRANCH  10  13
HETATM   13  C9  UNL     1      -0.019  -0.554   0.023  1.00  0.00     0.255 C 
HETATM   14  O2  UNL     1      -0.382  -1.768   0.254  1.00  0.00    -0.268 OA
HETATM   15  N1  UNL     1      -0.977   0.269  -0.562  1.00  0.00    -0.344 N 
ATOM     16  H1  UNL     1      -0.767   1.240  -0.792  1.00  0.00     0.163 HD
BRANCH  15  17
HETATM   17  C10 UNL     1      -2.320  -0.316  -0.841  1.00  0.00     0.177 C 
BRANCH  17  18
HETATM   18  C11 UNL     1      -2.458  -0.193  -2.348  1.00  0.00     0.038 C 
BRANCH  18  19
HETATM   19  C12 UNL     1      -3.738  -0.722  -2.897  1.00  0.00    -0.020 C 
HETATM   20  C13 UNL     1      -3.935  -2.191  -2.613  1.00  0.00     0.009 C 
HETATM   21  C14 UNL     1      -3.695  -0.535  -4.401  1.00  0.00     0.009 C 
ENDBRANCH  18  19
ENDBRANCH  17  18
BRANCH  17  22
HETATM   22  C15 UNL     1      -3.299   0.558  -0.151  1.00  0.00     0.241 C 
HETATM   23  O3  UNL     1      -2.946   1.745   0.110  1.00  0.00    -0.271 OA
HETATM   24  N2  UNL     1      -4.602   0.170   0.247  1.00  0.00    -0.351 N 
ATOM     25  H2  UNL     1      -4.911  -0.784   0.059  1.00  0.00     0.163 HD
BRANCH  24  26
HETATM   26  C16 UNL     1      -5.503   1.072   0.906  1.00  0.00     0.022 C 
HETATM   27  C17 UNL     1      -4.859   1.629   2.167  1.00  0.00     0.037 C 
HETATM   28  C18 UNL     1      -6.722   0.280   1.374  1.00  0.00     0.037 C 
HETATM   29  C19 UNL     1      -5.967   2.196   0.016  1.00  0.00     0.037 C 
ENDBRANCH  24  26
ENDBRANCH  17  22
ENDBRANCH  15  17
ENDBRANCH  10  13
BRANCH  12  30
HETATM   30  C22 UNL     1       4.427  -2.145   1.344  1.00  0.00    -0.021 C 
HETATM   31  C23 UNL     1       3.655  -3.423   1.151  1.00  0.00     0.019 C 
HETATM   32  C24 UNL     1       5.641  -2.195   0.433  1.00  0.00     0.019 C 
HETATM   33  C25 UNL     1       4.922  -2.157   2.775  1.00  0.00     0.019 C 
ENDBRANCH  12  30
ENDBRANCH   5   6
ENDBRANCH   4   5
ENDBRANCH   3   4
TORSDOF 10
