REMARK  4 active torsions:
REMARK  status: ('A' for Active; 'I' for Inactive)
REMARK    1  A    between atoms: C2_4  and  C3_5 
REMARK    2  A    between atoms: C4_7  and  O3_8 
REMARK    3  A    between atoms: C7_14  and  O5_15 
REMARK    4  A    between atoms: O5_15  and  C8_16 
ROOT
HETATM    1  O1  UNL     1       1.210  -0.933  -2.653  1.00  0.00    -0.262 OA
HETATM    2  C1  UNL     1       1.801  -0.574  -1.605  1.00  0.00     0.300 C 
HETATM    3  O2  UNL     1       3.020  -1.050  -1.142  1.00  0.00    -0.310 OA
HETATM    4  C2  UNL     1       3.191  -0.719   0.228  1.00  0.00     0.178 C 
HETATM    5  C4  UNL     1       1.860  -0.138   0.666  1.00  0.00     0.196 C 
HETATM    6  C5  UNL     1       1.360   0.428  -0.611  1.00  0.00     0.210 C 
HETATM    7  O4  UNL     1       1.893   1.661  -0.879  1.00  0.00    -0.327 OA
HETATM    8  C6  UNL     1       0.676   2.223  -0.501  1.00  0.00     0.341 C 
HETATM    9  F1  UNL     1       0.743   2.668   0.781  1.00  0.00    -0.217 F 
HETATM   10  C7  UNL     1      -0.049   0.884  -0.688  1.00  0.00     0.236 C 
ENDROOT
BRANCH   5  11
HETATM   11  O3  UNL     1       1.096  -1.239   1.105  1.00  0.00    -0.389 OA
ATOM     12  H3  UNL     1       0.262  -0.875   1.379  1.00  0.00     0.210 HD
ENDBRANCH   5  11
BRANCH  10  13
HETATM   13  O5  UNL     1      -0.900   0.541   0.351  1.00  0.00    -0.335 OA
BRANCH  13  14
HETATM   14  C8  UNL     1      -2.174   0.065   0.296  1.00  0.00     0.091 A 
HETATM   15  C9  UNL     1      -2.803  -0.143  -0.904  1.00  0.00     0.040 A 
HETATM   16  C10 UNL     1      -4.107  -0.630  -0.984  1.00  0.00     0.026 A 
HETATM   17  C11 UNL     1      -4.809  -0.920   0.146  1.00  0.00     0.035 A 
HETATM   18 CL2  UNL     1      -6.446  -1.530  -0.002  1.00  0.00    -0.084 Cl
HETATM   19  C12 UNL     1      -4.203  -0.721   1.368  1.00  0.00     0.050 A 
HETATM   20  C13 UNL     1      -2.918  -0.241   1.434  1.00  0.00     0.069 A 
HETATM   21 CL3  UNL     1      -2.172   0.003   3.009  1.00  0.00    -0.081 Cl
ENDBRANCH  13  14
ENDBRANCH  10  13
BRANCH   4  22
HETATM   22  C3  UNL     1       4.328   0.264   0.422  1.00  0.00     0.150 C 
HETATM   23 CL1  UNL     1       5.802  -0.534  -0.204  1.00  0.00    -0.128 Cl
ENDBRANCH   4  22
TORSDOF 4
