REMARK  10 active torsions:
REMARK  status: ('A' for Active; 'I' for Inactive)
REMARK    1  A    between atoms: N1_2  and  C2_4 
REMARK    2  A    between atoms: C2_4  and  N2_6 
REMARK    3  A    between atoms: N3_8  and  C3_10 
REMARK    4  A    between atoms: C9_19  and  C10_20 
REMARK    5  A    between atoms: C10_20  and  C11_22 
REMARK    6  A    between atoms: C11_22  and  N5_23 
REMARK    7  A    between atoms: N5_23  and  C12_24 
REMARK    8  A    between atoms: N5_23  and  C16_29 
REMARK    9  A    between atoms: C12_24  and  C13_25 
REMARK   10  A    between atoms: C13_25  and  N6_26 
ROOT
HETATM    1  C3  UNL     1       1.632  -1.578  -0.839  1.00  0.00     0.075 A 
HETATM    2  C4  UNL     1       2.918  -2.040  -0.974  1.00  0.00    -0.011 A 
HETATM    3  C5  UNL     1       3.486  -2.960   0.030  1.00  0.00     0.052 C 
HETATM    4  C6  UNL     1       3.691  -1.665  -2.042  1.00  0.00     0.016 A 
HETATM    5  C7  UNL     1       5.103  -2.154  -2.212  1.00  0.00     0.069 C 
HETATM    6  N4  UNL     1       3.151  -0.831  -2.952  1.00  0.00    -0.326 N 
ATOM      7  H4  UNL     1       3.715  -0.542  -3.751  1.00  0.00     0.169 HD
HETATM    8  C8  UNL     1       1.902  -0.369  -2.843  1.00  0.00     0.262 A 
HETATM    9  O1  UNL     1       1.457   0.400  -3.719  1.00  0.00    -0.267 OA
HETATM   10  C9  UNL     1       1.076  -0.708  -1.795  1.00  0.00     0.112 A 
ENDROOT
BRANCH  10  11
HETATM   11  C10 UNL     1      -0.286  -0.216  -1.660  1.00  0.00     0.205 C 
HETATM   12  O2  UNL     1      -1.198  -0.900  -2.186  1.00  0.00    -0.286 OA
BRANCH  11  13
HETATM   13  C11 UNL     1      -0.654   1.011  -0.958  1.00  0.00     0.142 C 
BRANCH  13  14
HETATM   14  N5  UNL     1      -2.011   1.320  -0.883  1.00  0.00    -0.380 N 
BRANCH  14  15
HETATM   15  C12 UNL     1      -2.866   0.521  -0.108  1.00  0.00     0.153 C 
BRANCH  15  16
HETATM   16  C13 UNL     1      -2.590   0.636   1.397  1.00  0.00     0.291 C 
BRANCH  16  17
HETATM   17  N6  UNL     1      -3.467  -0.187   2.169  1.00  0.00     0.081 N 
HETATM   18  C14 UNL     1      -3.258  -1.586   2.011  1.00  0.00     0.309 C 
HETATM   19  C15 UNL     1      -4.833   0.222   2.158  1.00  0.00     0.309 C 
ENDBRANCH  16  17
ENDBRANCH  15  16
ENDBRANCH  14  15
BRANCH  14  20
HETATM   20  C16 UNL     1      -2.519   2.469  -1.515  1.00  0.00     0.084 A 
HETATM   21  C17 UNL     1      -2.079   3.851  -1.123  1.00  0.00     0.027 A 
HETATM   22  C18 UNL     1      -3.515   3.367  -0.855  1.00  0.00     0.027 A 
ENDBRANCH  14  20
ENDBRANCH  13  14
ENDBRANCH  11  13
ENDBRANCH  10  11
BRANCH   1  23
HETATM   23  N3  UNL     1       0.776  -1.924   0.230  1.00  0.00    -0.297 N 
HETATM   24  N2  UNL     1       0.901  -1.608   1.397  1.00  0.00    -0.276 N 
ATOM     25  H2  UNL     1       0.150  -1.984   1.975  1.00  0.00     0.189 HD
ATOM     26  H3  UNL     1      -0.033  -2.500  -0.002  1.00  0.00     0.187 HD
BRANCH  24  27
HETATM   27  C2  UNL     1       1.798  -0.872   2.137  1.00  0.00     0.186 C 
HETATM   28  S1  UNL     1       2.167  -1.370   3.665  1.00  0.00    -0.040 SA
BRANCH  27  29
HETATM   29  N1  UNL     1       2.451   0.306   1.699  1.00  0.00    -0.370 N 
HETATM   30  C1  UNL     1       3.390   1.055   2.503  1.00  0.00     0.148 C 
ATOM     31  H1  UNL     1       2.246   0.646   0.760  1.00  0.00     0.161 HD
ENDBRANCH  27  29
ENDBRANCH  24  27
ENDBRANCH   1  23
TORSDOF 10
