REMARK  7 active torsions:
REMARK  status: ('A' for Active; 'I' for Inactive)
REMARK    1  A    between atoms: C2_2  and  C3_3 
REMARK    2  A    between atoms: C3_3  and  C4_4 
REMARK    3  A    between atoms: C3_3  and  C5_6 
REMARK    4  A    between atoms: C8_9  and  N1_10 
REMARK       I    between atoms: N1_10  and  C9_11 
REMARK    5  A    between atoms: C9_11  and  O2_13 
REMARK    6  A    between atoms: O2_13  and  C10_14 
REMARK    7  A    between atoms: N2_17  and  C13_18 
ROOT
HETATM    1  N1  UNL     1       1.855  -1.422   0.075  1.00  0.00    -0.346 NA
HETATM    2  C9  UNL     1       0.602  -1.858   0.060  1.00  0.00     0.440 C 
HETATM    3  O1  UNL     1       0.169  -3.027  -0.024  1.00  0.00    -0.221 OA
ENDROOT
BRANCH   2   4
HETATM    4  O2  UNL     1      -0.509  -0.948   0.151  1.00  0.00    -0.287 OA
BRANCH   4   5
HETATM    5  C10 UNL     1      -1.844  -1.367   0.148  1.00  0.00     0.138 C 
HETATM    6  C11 UNL     1      -2.576  -0.902  -1.082  1.00  0.00     0.052 C 
HETATM    7  C12 UNL     1      -3.192   0.456  -0.966  1.00  0.00     0.124 C 
HETATM    8  N2  UNL     1      -4.038   0.445   0.184  1.00  0.00    -0.390 N 
HETATM    9  C19 UNL     1      -3.916  -0.468   1.270  1.00  0.00     0.124 C 
HETATM   10  C20 UNL     1      -2.564  -1.077   1.430  1.00  0.00     0.052 C 
BRANCH   8  11
HETATM   11  C13 UNL     1      -5.085   1.417   0.245  1.00  0.00     0.088 C 
HETATM   12  C14 UNL     1      -6.275   1.209  -0.242  1.00  0.00    -0.065 C 
HETATM   13  C15 UNL     1      -7.408   2.165  -0.216  1.00  0.00     0.035 C 
HETATM   14  C18 UNL     1      -6.821   0.011  -0.935  1.00  0.00     0.035 C 
HETATM   15  C16 UNL     1      -8.249   1.821  -1.436  1.00  0.00     0.005 C 
HETATM   16  C17 UNL     1      -7.578   0.635  -2.086  1.00  0.00     0.005 C 
ENDBRANCH   8  11
ENDBRANCH   4   5
ENDBRANCH   2   4
BRANCH   1  17
HETATM   17  C8  UNL     1       3.156  -0.969   0.091  1.00  0.00     0.113 A 
HETATM   18  C7  UNL     1       3.432   0.277  -0.534  1.00  0.00     0.045 A 
HETATM   19  C6  UNL     1       4.665   0.836  -0.495  1.00  0.00     0.011 A 
HETATM   20  C5  UNL     1       5.723   0.239   0.146  1.00  0.00    -0.051 A 
HETATM   21  C22 UNL     1       5.485  -0.962   0.755  1.00  0.00     0.011 A 
HETATM   22  C21 UNL     1       4.237  -1.557   0.731  1.00  0.00     0.045 A 
BRANCH  20  23
HETATM   23  C3  UNL     1       7.049   0.898   0.156  1.00  0.00     0.047 C 
BRANCH  23  24
HETATM   24  C2  UNL     1       8.075   0.165  -0.626  1.00  0.00     0.007 C 
HETATM   25  C1  UNL     1       8.624  -1.095  -0.076  1.00  0.00     0.006 C 
ENDBRANCH  23  24
BRANCH  23  26
HETATM   26  C4  UNL     1       7.445   1.353   1.516  1.00  0.00     0.231 C 
HETATM   27  F1  UNL     1       7.810   0.406   2.406  1.00  0.00    -0.255 F 
ENDBRANCH  23  26
ENDBRANCH  20  23
ENDBRANCH   1  17
TORSDOF 7
