REMARK  11 active torsions:
REMARK  status: ('A' for Active; 'I' for Inactive)
REMARK    1  A    between atoms: C3_3  and  O1_4 
REMARK    2  A    between atoms: C10_13  and  O4_14 
REMARK    3  A    between atoms: C11_16  and  O5_17 
REMARK    4  A    between atoms: C12_19  and  O6_20 
REMARK    5  A    between atoms: C13_22  and  C14_23 
REMARK    6  A    between atoms: C15_24  and  C16_25 
REMARK    7  A    between atoms: C16_25  and  C17_26 
REMARK    8  A    between atoms: C17_26  and  C18_27 
REMARK    9  A    between atoms: C18_27  and  C19_28 
REMARK   10  A    between atoms: C19_28  and  C20_29 
REMARK   11  A    between atoms: C22_31  and  O7_32 
ROOT
HETATM    1  C1  UNL     1      -5.295  -1.892   0.266  1.00  0.00     0.019 C 
HETATM    2  C2  UNL     1      -4.136  -1.309   0.525  1.00  0.00    -0.030 C 
HETATM    3  C3  UNL     1      -2.927  -2.173   0.436  1.00  0.00     0.164 C 
HETATM    4  C5  UNL     1      -1.836  -1.463  -0.381  1.00  0.00     0.115 C 
HETATM    5  C6  UNL     1      -2.490  -0.916  -1.569  1.00  0.00     0.204 C 
HETATM    6  O2  UNL     1      -2.432  -1.420  -2.724  1.00  0.00    -0.289 OA
HETATM    7  C7  UNL     1      -3.275   0.325  -1.392  1.00  0.00     0.210 C 
HETATM    8  O3  UNL     1      -3.928   0.846  -2.311  1.00  0.00    -0.288 OA
HETATM    9  C8  UNL     1      -3.217   0.902  -0.002  1.00  0.00     0.095 C 
HETATM   10  C9  UNL     1      -3.522   2.367  -0.077  1.00  0.00     0.058 C 
HETATM   11  C10 UNL     1      -2.229   2.968  -0.571  1.00  0.00     0.151 C 
HETATM   12  C11 UNL     1      -1.147   1.937  -0.360  1.00  0.00     0.183 C 
HETATM   13  C12 UNL     1      -1.783   0.902   0.486  1.00  0.00     0.119 C 
HETATM   14  C13 UNL     1      -1.148  -0.439   0.482  1.00  0.00     0.117 C 
HETATM   15  C22 UNL     1      -4.146   0.137   0.877  1.00  0.00     0.168 C 
ENDROOT
BRANCH  14  16
HETATM   16  C14 UNL     1       0.295  -0.389   0.138  1.00  0.00    -0.098 C 
HETATM   17  C15 UNL     1       1.473  -0.355  -0.122  1.00  0.00    -0.106 C 
BRANCH  17  18
HETATM   18  C16 UNL     1       2.907  -0.328  -0.416  1.00  0.00     0.094 C 
BRANCH  18  19
HETATM   19  C17 UNL     1       3.510   0.880   0.218  1.00  0.00     0.012 C 
BRANCH  19  20
HETATM   20  C18 UNL     1       4.988   1.005  -0.025  1.00  0.00     0.001 C 
BRANCH  20  21
HETATM   21  C19 UNL     1       5.767  -0.165   0.509  1.00  0.00    -0.000 C 
BRANCH  21  22
HETATM   22  C20 UNL     1       7.243   0.093   0.195  1.00  0.00    -0.005 C 
HETATM   23  C21 UNL     1       7.405   0.213  -1.305  1.00  0.00     0.005 C 
ENDBRANCH  21  22
ENDBRANCH  20  21
ENDBRANCH  19  20
ENDBRANCH  18  19
ENDBRANCH  17  18
ENDBRANCH  14  16
BRANCH  13  24
HETATM   24  O6  UNL     1      -1.832   1.423   1.803  1.00  0.00    -0.384 OA
ATOM     25  H6  UNL     1      -0.933   1.423   2.109  1.00  0.00     0.210 HD
ENDBRANCH  13  24
BRANCH   3  26
HETATM   26  O1  UNL     1      -3.258  -3.392  -0.157  1.00  0.00    -0.385 OA
HETATM   27  C4  UNL     1      -2.934  -4.393   0.759  1.00  0.00     0.202 C 
ENDBRANCH   3  26
BRANCH  12  28
HETATM   28  O5  UNL     1      -0.566   1.512  -1.521  1.00  0.00    -0.390 OA
ATOM     29  H5  UNL     1       0.115   0.863  -1.388  1.00  0.00     0.210 HD
ENDBRANCH  12  28
BRANCH  15  30
HETATM   30  O7  UNL     1      -3.835   0.219   2.235  1.00  0.00    -0.390 OA
ATOM     31  H7  UNL     1      -3.841   1.142   2.460  1.00  0.00     0.210 HD
ENDBRANCH  15  30
BRANCH  11  32
HETATM   32  O4  UNL     1      -1.975   4.136   0.138  1.00  0.00    -0.393 OA
ATOM     33  H4  UNL     1      -1.161   4.514  -0.173  1.00  0.00     0.210 HD
ENDBRANCH  11  32
TORSDOF 11
