REMARK  9 active torsions:
REMARK  status: ('A' for Active; 'I' for Inactive)
REMARK    1  A    between atoms: C2_2  and  C3_3 
REMARK    2  A    between atoms: C3_3  and  C4_4 
REMARK    3  A    between atoms: C5_5  and  O1_6 
REMARK    4  A    between atoms: C7_9  and  O2_10 
REMARK    5  A    between atoms: C8_12  and  O3_13 
REMARK    6  A    between atoms: C9_15  and  N1_16 
REMARK       I    between atoms: N1_16  and  C10_18 
REMARK    7  A    between atoms: C10_18  and  C11_20 
REMARK    8  A    between atoms: C18_29  and  O6_30 
REMARK    9  A    between atoms: O6_30  and  C19_31 
ROOT
HETATM    1  N1  UNL     1      -0.676   0.061  -0.142  1.00  0.00    -0.353 N 
ATOM      2  H1  UNL     1      -0.543  -0.567  -0.935  1.00  0.00     0.163 HD
HETATM    3  C10 UNL     1       0.442   0.393   0.648  1.00  0.00     0.226 C 
HETATM    4  O4  UNL     1       0.293   1.158   1.618  1.00  0.00    -0.273 OA
ENDROOT
BRANCH   1   5
HETATM    5  C9  UNL     1      -2.005   0.572   0.121  1.00  0.00     0.122 C 
HETATM    6  C4  UNL     1      -2.868  -0.585   0.541  1.00  0.00     0.043 C 
HETATM    7  C5  UNL     1      -4.278  -0.072   0.761  1.00  0.00     0.127 C 
HETATM    8  C6  UNL     1      -4.791   0.403  -0.575  1.00  0.00     0.066 C 
HETATM    9  C7  UNL     1      -3.974   1.572  -1.065  1.00  0.00     0.151 C 
HETATM   10  C8  UNL     1      -2.500   1.280  -1.095  1.00  0.00     0.170 C 
BRANCH   6  11
HETATM   11  C3  UNL     1      -2.832  -1.757  -0.396  1.00  0.00     0.035 C 
BRANCH  11  12
HETATM   12  C2  UNL     1      -3.656  -2.835   0.206  1.00  0.00    -0.036 C 
HETATM   13  C1  UNL     1      -4.715  -3.358  -0.367  1.00  0.00     0.007 C 
ENDBRANCH  11  12
ENDBRANCH   6  11
BRANCH   7  14
HETATM   14  O1  UNL     1      -4.204   1.017   1.608  1.00  0.00    -0.395 OA
ATOM     15  H1  UNL     1      -5.087   1.338   1.746  1.00  0.00     0.210 HD
ENDBRANCH   7  14
BRANCH   9  16
HETATM   16  O2  UNL     1      -4.290   2.669  -0.278  1.00  0.00    -0.393 OA
ATOM     17  H2  UNL     1      -3.775   3.405  -0.587  1.00  0.00     0.210 HD
ENDBRANCH   9  16
BRANCH  10  18
HETATM   18  O3  UNL     1      -2.119   0.590  -2.241  1.00  0.00    -0.391 OA
ATOM     19  H3  UNL     1      -1.187   0.405  -2.260  1.00  0.00     0.210 HD
ENDBRANCH  10  18
ENDBRANCH   1   5
BRANCH   3  20
HETATM   20  C11 UNL     1       1.759  -0.163   0.322  1.00  0.00     0.129 C 
HETATM   21  C12 UNL     1       2.215   0.253  -1.067  1.00  0.00     0.107 C 
HETATM   22 CL1  UNL     1       1.569   1.831  -1.526  1.00  0.00    -0.123 Cl
HETATM   23  C13 UNL     1       3.708   0.320  -1.016  1.00  0.00     0.070 C 
HETATM   24  C14 UNL     1       4.138   0.179   0.422  1.00  0.00     0.161 C 
HETATM   25  C15 UNL     1       4.458  -0.949  -1.259  1.00  0.00     0.062 C 
HETATM   26  O5  UNL     1       4.607  -1.082   0.118  1.00  0.00    -0.372 OA
HETATM   27  C18 UNL     1       2.859   0.183   1.255  1.00  0.00     0.175 C 
HETATM   28  C16 UNL     1       3.731  -2.058  -1.943  1.00  0.00     0.046 C 
HETATM   29  C17 UNL     1       5.765  -0.655  -1.990  1.00  0.00     0.046 C 
BRANCH  27  30
HETATM   30  O6  UNL     1       2.707   1.435   1.861  1.00  0.00    -0.313 OA
BRANCH  30  31
HETATM   31  C19 UNL     1       2.830   1.563   3.253  1.00  0.00     0.255 C 
HETATM   32  C20 UNL     1       2.673   2.878   3.923  1.00  0.00     0.126 C 
HETATM   33  O7  UNL     1       3.075   0.547   3.940  1.00  0.00    -0.266 OA
ENDBRANCH  30  31
ENDBRANCH  27  30
ENDBRANCH   3  20
TORSDOF 9
