REMARK  6 active torsions:
REMARK  status: ('A' for Active; 'I' for Inactive)
REMARK    1  A    between atoms: C2_3  and  N2_4 
REMARK    2  A    between atoms: C5_13  and  C6_14 
REMARK    3  A    between atoms: C6_14  and  C7_15 
REMARK    4  A    between atoms: C7_15  and  C8_16 
REMARK    5  A    between atoms: C8_16  and  C9_17 
REMARK    6  A    between atoms: C9_17  and  C10_18 
ROOT
HETATM    1  C1  UNL     1      -2.930   2.114   0.225  1.00  0.00     0.147 C 
HETATM    2  N1  UNL     1      -3.120   0.859   0.121  1.00  0.00    -0.167 N 
HETATM    3  C2  UNL     1      -4.412   0.465   0.169  1.00  0.00     0.682 A 
HETATM    4  N3  UNL     1      -4.654  -0.870   0.057  1.00  0.00    -0.184 N 
ATOM      5  H3  UNL     1      -5.617  -1.204   0.088  1.00  0.00     0.185 HD
HETATM    6  C3  UNL     1      -3.676  -1.743  -0.090  1.00  0.00     0.115 A 
HETATM    7 BR1  UNL     1      -4.043  -3.622  -0.246  1.00  0.00    -0.029 Br
HETATM    8  C4  UNL     1      -2.331  -1.371  -0.143  1.00  0.00     0.073 A 
HETATM    9 BR2  UNL     1      -1.023  -2.738  -0.351  1.00  0.00    -0.046 Br
HETATM   10  C5  UNL     1      -2.069  -0.022  -0.031  1.00  0.00     0.071 A 
ENDROOT
BRANCH  10  11
HETATM   11  C6  UNL     1      -0.834   0.414  -0.061  1.00  0.00     0.005 C 
BRANCH  11  12
HETATM   12  C7  UNL     1       0.456  -0.213  -0.204  1.00  0.00     0.030 C 
BRANCH  12  13
HETATM   13  C8  UNL     1       1.179  -0.527   1.092  1.00  0.00     0.010 C 
BRANCH  13  14
HETATM   14  C9  UNL     1       2.496  -1.186   0.861  1.00  0.00     0.059 C 
BRANCH  14  15
HETATM   15  C10 UNL     1       3.426  -0.373   0.071  1.00  0.00     0.029 A 
HETATM   16  C11 UNL     1       4.356   0.549   0.485  1.00  0.00     0.117 A 
HETATM   17  N4  UNL     1       5.006   1.073  -0.562  1.00  0.00    -0.317 N 
HETATM   18  C12 UNL     1       4.487   0.483  -1.644  1.00  0.00     0.324 A 
ATOM     19  H4  UNL     1       5.744   1.777  -0.539  1.00  0.00     0.170 HD
HETATM   20  O1  UNL     1       4.867   0.739  -2.825  1.00  0.00    -0.247 OA
HETATM   21  N5  UNL     1       3.519  -0.404  -1.267  1.00  0.00    -0.311 N 
ATOM     22  H5  UNL     1       2.964  -0.988  -1.893  1.00  0.00     0.170 HD
ENDBRANCH  14  15
ENDBRANCH  13  14
ENDBRANCH  12  13
ENDBRANCH  11  12
ENDBRANCH  10  11
BRANCH   3  23
HETATM   23  N2  UNL     1      -5.414   1.249   0.310  1.00  0.00    -0.234 N 
ATOM     24  H22 UNL     1      -5.233   2.249   0.394  1.00  0.00     0.174 HD
ATOM     25  H21 UNL     1      -6.389   0.952   0.346  1.00  0.00     0.174 HD
ENDBRANCH   3  23
TORSDOF 6
