REMARK  8 active torsions:
REMARK  status: ('A' for Active; 'I' for Inactive)
REMARK    1  A    between atoms: C8_9  and  O2_11 
REMARK    2  A    between atoms: O2_11  and  C10_12 
REMARK    3  A    between atoms: C10_12  and  O4_14 
REMARK    4  A    between atoms: C12_16  and  O5_17 
REMARK    5  A    between atoms: O5_17  and  O6_18 
REMARK    6  A    between atoms: C18_25  and  C19_26 
REMARK    7  A    between atoms: C19_26  and  O8_28 
REMARK    8  A    between atoms: O8_28  and  C20_29 
ROOT
HETATM    1  C1  UNL     1       3.018   1.760  -1.677  1.00  0.00     0.015 C 
HETATM    2  C2  UNL     1       2.358   1.230  -0.664  1.00  0.00    -0.075 C 
HETATM    3  C3  UNL     1       1.868   2.215   0.368  1.00  0.00     0.039 C 
HETATM    4  C4  UNL     1       0.372   2.439   0.021  1.00  0.00    -0.007 C 
HETATM    5  C5  UNL     1      -0.297   3.066   1.159  1.00  0.00     0.011 C 
HETATM    6  C6  UNL     1      -0.083   1.170  -0.547  1.00  0.00     0.035 A 
HETATM    7  C7  UNL     1      -1.183   0.295  -0.317  1.00  0.00     0.144 A 
HETATM    8  O1  UNL     1      -2.291   0.725   0.371  1.00  0.00    -0.345 OA
HETATM    9  C8  UNL     1      -3.150  -0.296   0.753  1.00  0.00     0.204 C 
HETATM   10  C9  UNL     1      -4.296   0.352   1.504  1.00  0.00     0.083 C 
HETATM   11  C12 UNL     1      -2.465  -1.222   1.769  1.00  0.00     0.245 C 
HETATM   12  C13 UNL     1      -1.441  -0.326   2.426  1.00  0.00     0.010 C 
HETATM   13  C14 UNL     1      -0.384   0.232   1.865  1.00  0.00    -0.015 C 
HETATM   14  C15 UNL     1       0.038   0.104   0.460  1.00  0.00     0.015 A 
HETATM   15  C16 UNL     1       1.182  -0.781   0.210  1.00  0.00     0.014 C 
HETATM   16  C17 UNL     1       1.900  -1.125   1.500  1.00  0.00     0.012 C 
HETATM   17  C18 UNL     1       2.202  -0.234  -0.758  1.00  0.00     0.118 C 
ENDROOT
BRANCH   9  18
HETATM   18  O2  UNL     1      -3.680  -1.022  -0.319  1.00  0.00    -0.257 OA
BRANCH  18  19
HETATM   19  C10 UNL     1      -4.434  -0.395  -1.278  1.00  0.00     0.408 C 
HETATM   20  O3  UNL     1      -4.637   0.841  -1.174  1.00  0.00    -0.229 OA
BRANCH  19  21
HETATM   21  O4  UNL     1      -4.996  -1.034  -2.371  1.00  0.00    -0.303 OA
HETATM   22  C11 UNL     1      -5.764  -0.311  -3.319  1.00  0.00     0.215 C 
ENDBRANCH  19  21
ENDBRANCH  18  19
ENDBRANCH   9  18
BRANCH  11  23
HETATM   23  O5  UNL     1      -3.399  -1.629   2.687  1.00  0.00    -0.228 OA
BRANCH  23  24
HETATM   24  O6  UNL     1      -3.486  -2.936   2.715  1.00  0.00    -0.250 OA
ATOM     25  H6  UNL     1      -4.133  -3.218   3.351  1.00  0.00     0.253 HD
ENDBRANCH  23  24
ENDBRANCH  11  23
BRANCH  17  26
HETATM   26  C19 UNL     1       3.519  -0.883  -0.698  1.00  0.00     0.267 C 
HETATM   27  O7  UNL     1       3.667  -2.007  -0.120  1.00  0.00    -0.264 OA
BRANCH  26  28
HETATM   28  O8  UNL     1       4.689  -0.372  -1.242  1.00  0.00    -0.321 OA
BRANCH  28  29
HETATM   29  C20 UNL     1       5.930  -1.059  -1.150  1.00  0.00     0.174 C 
HETATM   30  C21 UNL     1       5.911  -2.408  -1.789  1.00  0.00     0.034 C 
ENDBRANCH  28  29
ENDBRANCH  26  28
ENDBRANCH  17  26
TORSDOF 8
