REMARK  3 active torsions:
REMARK  status: ('A' for Active; 'I' for Inactive)
REMARK       I    between atoms: N1_3  and  C3_5 
REMARK       I    between atoms: C3_5  and  N3_11 
REMARK       I    between atoms: N2_6  and  C4_8 
REMARK    1  A    between atoms: N3_11  and  C6_13 
REMARK    2  A    between atoms: C7_17  and  N5_18 
REMARK    3  A    between atoms: C8_25  and  N7_26 
REMARK       I    between atoms: N7_26  and  C9_28 
ROOT
HETATM    1  C1  UNL     1       3.818   3.469   1.195  1.00  0.00     0.037 C 
HETATM    2  C2  UNL     1       3.199   2.459   1.355  1.00  0.00     0.015 C 
HETATM    3  N1  UNL     1       2.496   1.267   1.537  1.00  0.00    -0.149 N 
ATOM      4  H1  UNL     1       2.396   0.858   2.466  1.00  0.00     0.195 HD
HETATM    5  C3  UNL     1       1.926   0.639   0.408  1.00  0.00     0.690 C 
HETATM    6  N2  UNL     1       2.580  -0.154  -0.362  1.00  0.00    -0.160 N 
ATOM      7  H2  UNL     1       2.084  -0.562  -1.154  1.00  0.00     0.187 HD
HETATM    8  C4  UNL     1       3.939  -0.501  -0.188  1.00  0.00     0.231 C 
HETATM    9  C5  UNL     1       4.292  -1.860   0.296  1.00  0.00     0.118 C 
HETATM   10  O1  UNL     1       4.891   0.289  -0.424  1.00  0.00    -0.273 OA
HETATM   11  N3  UNL     1       0.565   0.897   0.112  1.00  0.00    -0.192 N 
ATOM     12  H3  UNL     1       0.284   1.811  -0.244  1.00  0.00     0.180 HD
ENDROOT
BRANCH  11  13
HETATM   13  C6  UNL     1      -0.428  -0.138   0.315  1.00  0.00     0.354 C 
HETATM   14  N4  UNL     1      -0.143  -1.184  -0.662  1.00  0.00     0.004 N 
HETATM   15  C7  UNL     1      -1.104  -1.034  -1.724  1.00  0.00     0.582 C 
ATOM     16  H42 UNL     1       0.823  -1.176  -0.990  1.00  0.00     0.284 HD
ATOM     17  H41 UNL     1      -0.134  -2.120  -0.257  1.00  0.00     0.284 HD
HETATM   18  N6  UNL     1      -1.768   0.217  -1.516  1.00  0.00     0.003 N 
HETATM   19  C8  UNL     1      -1.769   0.437  -0.087  1.00  0.00     0.342 C 
ATOM     20  H62 UNL     1      -1.359   0.987  -2.046  1.00  0.00     0.284 HD
ATOM     21  H61 UNL     1      -2.697   0.258  -1.934  1.00  0.00     0.284 HD
BRANCH  15  22
HETATM   22  N5  UNL     1      -0.450  -1.011  -3.005  1.00  0.00    -0.025 N 
ATOM     23  H53 UNL     1       0.274  -0.293  -3.047  1.00  0.00     0.278 HD
ATOM     24  H52 UNL     1       0.140  -1.832  -3.143  1.00  0.00     0.278 HD
ATOM     25  H51 UNL     1      -1.131  -0.905  -3.757  1.00  0.00     0.278 HD
ENDBRANCH  15  22
BRANCH  19  26
HETATM   26  N7  UNL     1      -2.864  -0.164   0.592  1.00  0.00    -0.330 N 
HETATM   27  C9  UNL     1      -3.837   0.544   1.347  1.00  0.00     0.215 C 
HETATM   28  C10 UNL     1      -4.954  -0.106   2.035  1.00  0.00     0.117 C 
HETATM   29  O2  UNL     1      -3.753   1.814   1.447  1.00  0.00    -0.274 OA
ATOM     30  H7  UNL     1      -2.958  -1.178   0.533  1.00  0.00     0.164 HD
ENDBRANCH  19  26
ENDBRANCH  11  13
TORSDOF 3
