REMARK  8 active torsions:
REMARK  status: ('A' for Active; 'I' for Inactive)
REMARK       I    between atoms: C2_2  and  N1_4 
REMARK    1  A    between atoms: N1_4  and  N2_6 
REMARK    2  A    between atoms: N2_6  and  C3_8 
REMARK    3  A    between atoms: C3_8  and  N3_10 
REMARK    4  A    between atoms: N3_10  and  N4_12 
REMARK       I    between atoms: N4_12  and  C4_14 
REMARK    5  A    between atoms: C4_14  and  C5_16 
REMARK    6  A    between atoms: C5_16  and  O3_17 
REMARK    7  A    between atoms: C5_16  and  C8_21 
REMARK    8  A    between atoms: O3_17  and  C6_18 
ROOT
HETATM    1  N4  UNL     1      -0.135   0.414   0.129  1.00  0.00    -0.265 N 
ATOM      2  H4  UNL     1      -0.721   0.664   0.925  1.00  0.00     0.190 HD
HETATM    3  C4  UNL     1      -0.714   0.184  -1.133  1.00  0.00     0.274 C 
HETATM    4  O2  UNL     1       0.011  -0.123  -2.135  1.00  0.00    -0.268 OA
ENDROOT
BRANCH   1   5
HETATM    5  N3  UNL     1       1.243   0.298   0.283  1.00  0.00    -0.272 N 
ATOM      6  H3  UNL     1       1.596  -0.454   0.874  1.00  0.00     0.189 HD
BRANCH   5   7
HETATM    7  C3  UNL     1       2.194   1.166  -0.335  1.00  0.00     0.205 C 
HETATM    8  S1  UNL     1       1.696   2.395  -1.303  1.00  0.00    -0.038 SA
BRANCH   7   9
HETATM    9  N2  UNL     1       3.582   1.004  -0.144  1.00  0.00    -0.273 N 
ATOM     10  H2  UNL     1       4.257   1.626  -0.588  1.00  0.00     0.189 HD
BRANCH   9  11
HETATM   11  N1  UNL     1       3.997  -0.063   0.693  1.00  0.00    -0.268 N 
HETATM   12  C2  UNL     1       4.067  -1.342   0.113  1.00  0.00     0.232 C 
HETATM   13  C1  UNL     1       4.494  -2.521   0.943  1.00  0.00     0.119 C 
HETATM   14  O1  UNL     1       3.793  -1.593  -1.085  1.00  0.00    -0.272 OA
ATOM     15  H1  UNL     1       4.234   0.091   1.673  1.00  0.00     0.190 HD
ENDBRANCH   9  11
ENDBRANCH   7   9
ENDBRANCH   5   7
ENDBRANCH   1   5
BRANCH   3  16
HETATM   16  C5  UNL     1      -2.193   0.308  -1.269  1.00  0.00     0.313 C 
BRANCH  16  17
HETATM   17  O3  UNL     1      -2.729   0.643  -0.016  1.00  0.00    -0.297 OA
BRANCH  17  18
HETATM   18  C6  UNL     1      -3.394   1.808   0.304  1.00  0.00     0.256 C 
HETATM   19  C7  UNL     1      -3.889   1.972   1.698  1.00  0.00     0.126 C 
HETATM   20  O4  UNL     1      -3.547   2.671  -0.601  1.00  0.00    -0.266 OA
ENDBRANCH  17  18
ENDBRANCH  16  17
BRANCH  16  21
HETATM   21  C8  UNL     1      -2.787  -0.929  -1.834  1.00  0.00     0.270 C 
HETATM   22  N5  UNL     1      -3.759  -1.709  -1.193  1.00  0.00    -0.059 NA
HETATM   23  O5  UNL     1      -2.385  -1.295  -2.969  1.00  0.00    -0.273 OA
ENDBRANCH  16  21
ENDBRANCH   3  16
TORSDOF 8
