REMARK  3 active torsions:
REMARK  status: ('A' for Active; 'I' for Inactive)
REMARK    1  A    between atoms: S1_2  and  N1_5 
REMARK    2  A    between atoms: C4_8  and  N2_9 
REMARK       I    between atoms: N2_9  and  C5_11 
REMARK       I    between atoms: C5_11  and  N4_15 
REMARK       I    between atoms: N4_15  and  C6_17 
REMARK       I    between atoms: C6_17  and  N6_21 
REMARK    3  A    between atoms: N6_21  and  C7_23 
ROOT
HETATM    1  N2  UNL     1       0.425  -1.537  -0.527  1.00  0.00    -0.213 N 
ATOM      2  H2  UNL     1       0.224  -2.434  -0.968  1.00  0.00     0.178 HD
HETATM    3  C5  UNL     1       1.743  -1.016  -0.597  1.00  0.00     0.686 C 
HETATM    4  N3  UNL     1       2.144  -0.541  -1.727  1.00  0.00    -0.234 N 
ATOM      5  H31 UNL     1       3.091  -0.166  -1.777  1.00  0.00     0.174 HD
ATOM      6  H32 UNL     1       1.518  -0.548  -2.532  1.00  0.00     0.174 HD
HETATM    7  N4  UNL     1       2.611  -1.006   0.519  1.00  0.00    -0.023 N 
ATOM      8  H4  UNL     1       2.218  -0.997   1.460  1.00  0.00     0.203 HD
HETATM    9  C6  UNL     1       4.014  -1.008   0.351  1.00  0.00     0.692 C 
HETATM   10  N5  UNL     1       4.614  -2.009  -0.244  1.00  0.00    -0.234 N 
ATOM     11  H51 UNL     1       5.627  -2.010  -0.365  1.00  0.00     0.174 HD
ATOM     12  H52 UNL     1       4.026  -2.774  -0.575  1.00  0.00     0.174 HD
HETATM   13  N6  UNL     1       4.833   0.057   0.812  1.00  0.00    -0.167 N 
ATOM     14  H6  UNL     1       5.842   0.012   0.669  1.00  0.00     0.186 HD
ENDROOT
BRANCH   1  15
HETATM   15  C4  UNL     1      -0.634  -0.841   0.145  1.00  0.00     0.194 C 
HETATM   16  C3  UNL     1      -1.941  -1.557   0.106  1.00  0.00     0.056 C 
HETATM   17  C2  UNL     1      -2.871  -0.786  -0.805  1.00  0.00     0.147 C 
HETATM   18  N1  UNL     1      -2.387   0.569  -0.643  1.00  0.00    -0.244 N 
HETATM   19  C8  UNL     1      -0.980   0.463  -0.480  1.00  0.00     0.256 C 
HETATM   20  O4  UNL     1      -0.165   1.367  -0.828  1.00  0.00    -0.270 OA
BRANCH  18  21
HETATM   21  S1  UNL     1      -3.366   1.996  -0.655  1.00  0.00     0.231 S 
HETATM   22  C1  UNL     1      -3.835   2.482   0.980  1.00  0.00     0.186 C 
HETATM   23  O1  UNL     1      -2.671   3.123  -1.334  1.00  0.00    -0.206 OA
HETATM   24  O2  UNL     1      -4.604   1.684  -1.447  1.00  0.00    -0.206 OA
ENDBRANCH  18  21
ENDBRANCH   1  15
BRANCH  13  25
HETATM   25  C7  UNL     1       4.275   1.177   1.465  1.00  0.00     0.368 C 
HETATM   26  O3  UNL     1       3.059   1.300   1.674  1.00  0.00    -0.283 OA
ENDBRANCH  13  25
TORSDOF 3
