REMARK  0 active torsions:
REMARK  status: ('A' for Active; 'I' for Inactive)
ROOT
HETATM    1  C1  UNL     1       1.342   0.995  -1.131  1.00  0.00     0.036 C 
HETATM    2  C2  UNL     1       0.087   0.200  -1.142  1.00  0.00    -0.028 C 
HETATM    3  C3  UNL     1      -0.457  -0.286  -0.038  1.00  0.00    -0.083 A 
HETATM    4  C4  UNL     1      -1.451  -1.026   0.806  1.00  0.00     0.038 A 
HETATM    5  C5  UNL     1      -0.333  -0.402   1.481  1.00  0.00     0.038 A 
ENDROOT
TORSDOF 0
