REMARK  1 active torsions:
REMARK  status: ('A' for Active; 'I' for Inactive)
REMARK    1  A    between atoms: C6_6  and  N1_7 
ROOT
HETATM    1  C1  UNL     1      -1.523  -1.350   0.479  1.00  0.00     0.012 C 
HETATM    2  C2  UNL     1      -0.419  -0.330   0.671  1.00  0.00     0.012 C 
HETATM    3  C3  UNL     1      -0.977   1.010   0.226  1.00  0.00     0.006 C 
HETATM    4  C4  UNL     1       0.223   1.629  -0.462  1.00  0.00     0.002 C 
HETATM    5  C5  UNL     1       0.662   0.431  -1.317  1.00  0.00     0.033 C 
HETATM    6  C6  UNL     1       0.765  -0.622  -0.207  1.00  0.00     0.187 C 
ENDROOT
BRANCH   6   7
HETATM    7  N1  UNL     1       2.025  -0.365   0.468  1.00  0.00    -0.075 N 
ATOM      8  H13 UNL     1       2.061   0.587   0.832  1.00  0.00     0.274 HD
ATOM      9  H12 UNL     1       2.083  -0.877   1.348  1.00  0.00     0.274 HD
ATOM     10  H11 UNL     1       2.829  -0.563  -0.128  1.00  0.00     0.274 HD
ENDBRANCH   6   7
TORSDOF 1
