REMARK  1 active torsions:
REMARK  status: ('A' for Active; 'I' for Inactive)
REMARK    1  A    between atoms: C1_2  and  C2_4 
ROOT
HETATM    1  C2  UNL     1      -0.511   0.417  -0.663  1.00  0.00     0.185 C 
HETATM    2  F1  UNL     1      -0.576   0.828  -1.980  1.00  0.00    -0.233 F 
HETATM    3  C3  UNL     1      -0.434  -1.090  -0.647  1.00  0.00     0.054 C 
HETATM    4  C4  UNL     1       0.943  -1.471  -0.203  1.00  0.00     0.009 C 
HETATM    5  C5  UNL     1       1.694  -0.196   0.044  1.00  0.00    -0.006 A 
HETATM    6  C6  UNL     1       1.260   0.580   1.240  1.00  0.00     0.013 A 
HETATM    7  C7  UNL     1       0.775   0.939  -0.091  1.00  0.00     0.039 A 
ENDROOT
BRANCH   1   8
HETATM    8  C1  UNL     1      -1.694   0.884   0.068  1.00  0.00     0.271 C 
HETATM    9  N1  UNL     1      -1.893   0.606   1.444  1.00  0.00    -0.059 NA
HETATM   10  O1  UNL     1      -2.578   1.554  -0.518  1.00  0.00    -0.273 OA
ENDBRANCH   1   8
TORSDOF 1
