REMARK  6 active torsions:
REMARK  status: ('A' for Active; 'I' for Inactive)
REMARK    1  A    between atoms: C2_2  and  C4_4 
REMARK    2  A    between atoms: C5_7  and  C6_8 
REMARK    3  A    between atoms: N2_12  and  C10_13 
REMARK    4  A    between atoms: C10_13  and  C11_14 
REMARK    5  A    between atoms: C15_19  and  N3_20 
REMARK       I    between atoms: N3_20  and  C16_22 
REMARK    6  A    between atoms: C16_22  and  C17_24 
ROOT
HETATM    1  C4  UNL     1      -1.612  -0.433  -0.820  1.00  0.00     0.066 A 
HETATM    2  N1  UNL     1      -0.238  -0.453  -0.626  1.00  0.00    -0.339 N 
ATOM      3  H1  UNL     1       0.464  -0.800  -1.280  1.00  0.00     0.167 HD
HETATM    4  C5  UNL     1      -0.011   0.072   0.587  1.00  0.00     0.135 A 
HETATM    5  O1  UNL     1      -1.134   0.395   1.113  1.00  0.00    -0.278 OA
HETATM    6  C15 UNL     1      -2.165   0.099   0.273  1.00  0.00     0.175 A 
ENDROOT
BRANCH   4   7
HETATM    7  C6  UNL     1       1.383   0.205   1.131  1.00  0.00     0.099 C 
HETATM    8  C7  UNL     1       1.799  -1.177   1.551  1.00  0.00     0.020 C 
HETATM    9  C8  UNL     1       3.278  -1.354   1.575  1.00  0.00     0.021 C 
HETATM   10  C9  UNL     1       3.764  -1.052   0.146  1.00  0.00     0.127 C 
HETATM   11  N2  UNL     1       3.521   0.322  -0.073  1.00  0.00    -0.373 N 
HETATM   12  C14 UNL     1       2.212   0.807   0.038  1.00  0.00     0.076 C 
BRANCH  11  13
HETATM   13  C10 UNL     1       4.243   0.848  -1.161  1.00  0.00     0.067 C 
BRANCH  13  14
HETATM   14  C11 UNL     1       5.675   1.119  -0.904  1.00  0.00     0.024 A 
HETATM   15  C12 UNL     1       5.975   2.152   0.130  1.00  0.00     0.010 A 
HETATM   16  C13 UNL     1       6.406   0.731   0.342  1.00  0.00     0.010 A 
ENDBRANCH  13  14
ENDBRANCH  11  13
ENDBRANCH   4   7
BRANCH   1  17
HETATM   17  C2  UNL     1      -2.170  -0.958  -2.037  1.00  0.00     0.032 C 
HETATM   18  C1  UNL     1      -1.030  -1.109  -3.113  1.00  0.00     0.016 C 
HETATM   19  C3  UNL     1      -2.531  -2.439  -1.788  1.00  0.00     0.016 C 
ENDBRANCH   1  17
BRANCH   6  20
HETATM   20  N3  UNL     1      -3.456   0.375   0.660  1.00  0.00    -0.303 N 
HETATM   21  C16 UNL     1      -4.730   0.258   0.176  1.00  0.00     0.263 C 
HETATM   22  O2  UNL     1      -5.049  -0.202  -0.920  1.00  0.00    -0.269 OA
ATOM     23  H3  UNL     1      -3.466   0.794   1.590  1.00  0.00     0.171 HD
BRANCH  21  24
HETATM   24  C17 UNL     1      -5.910   0.713   1.004  1.00  0.00     0.176 C 
HETATM   25  C18 UNL     1      -5.779   2.175   1.378  1.00  0.00     0.062 C 
HETATM   26  C19 UNL     1      -5.903  -0.144   2.250  1.00  0.00     0.062 C 
HETATM   27  F1  UNL     1      -7.086   0.499   0.358  1.00  0.00    -0.233 F 
ENDBRANCH  21  24
ENDBRANCH   6  20
TORSDOF 6
