REMARK  7 active torsions:
REMARK  status: ('A' for Active; 'I' for Inactive)
REMARK    1  A    between atoms: C2_2  and  C3_3 
REMARK    2  A    between atoms: C3_3  and  C4_4 
REMARK    3  A    between atoms: C4_4  and  O1_5 
REMARK    4  A    between atoms: O1_5  and  C5_6 
REMARK    5  A    between atoms: C5_6  and  C7_8 
REMARK    6  A    between atoms: C16_17  and  O2_18 
REMARK    7  A    between atoms: O2_18  and  C17_19 
REMARK       I    between atoms: N1_23  and  C20_24 
REMARK       I    between atoms: C20_24  and  N2_25 
REMARK       I    between atoms: C20_24  and  N3_29 
ROOT
HETATM    1  C7  UNL     1       3.001  -0.134   0.275  1.00  0.00     0.023 C 
HETATM    2  C8  UNL     1       2.797   1.237  -0.326  1.00  0.00     0.008 C 
HETATM    3  C9  UNL     1       1.936   0.786  -1.520  1.00  0.00     0.006 C 
HETATM    4  C10 UNL     1       0.929  -0.102  -0.817  1.00  0.00    -0.001 C 
HETATM    5  C11 UNL     1      -0.264   0.747  -0.470  1.00  0.00    -0.003 C 
HETATM    6  C12 UNL     1      -0.789   1.376  -1.730  1.00  0.00     0.006 C 
HETATM    7  C13 UNL     1      -2.274   1.663  -1.437  1.00  0.00     0.011 C 
HETATM    8  C14 UNL     1      -2.900   0.284  -1.432  1.00  0.00     0.038 C 
HETATM    9  C15 UNL     1      -4.353   0.462  -1.583  1.00  0.00     0.015 C 
HETATM   10  C16 UNL     1      -5.101   0.550  -0.499  1.00  0.00     0.071 C 
HETATM   11  C19 UNL     1      -4.366   0.455   0.813  1.00  0.00     0.186 C 
HETATM   12  N1  UNL     1      -3.489  -0.654   0.671  1.00  0.00    -0.349 N 
HETATM   13  C20 UNL     1      -3.815  -1.843   1.303  1.00  0.00     0.479 C 
HETATM   14  N2  UNL     1      -3.915  -1.694   2.765  1.00  0.00    -0.033 N 
ATOM     15  H21 UNL     1      -4.155  -2.569   3.230  1.00  0.00     0.278 HD
ATOM     16  H22 UNL     1      -4.570  -0.953   3.015  1.00  0.00     0.278 HD
ATOM     17  H23 UNL     1      -3.061  -1.294   3.153  1.00  0.00     0.278 HD
HETATM   18  N3  UNL     1      -5.163  -2.268   0.890  1.00  0.00    -0.033 N 
ATOM     19  H31 UNL     1      -5.403  -3.143   1.355  1.00  0.00     0.278 HD
ATOM     20  H32 UNL     1      -5.252  -2.334  -0.124  1.00  0.00     0.278 HD
ATOM     21  H33 UNL     1      -5.862  -1.542   1.051  1.00  0.00     0.278 HD
HETATM   22  C21 UNL     1      -2.453  -0.552  -0.265  1.00  0.00     0.039 C 
HETATM   23  C22 UNL     1      -2.170  -1.919  -0.828  1.00  0.00     0.039 C 
HETATM   24  C23 UNL     1      -1.274   0.110   0.402  1.00  0.00     0.018 C 
HETATM   25  C24 UNL     1      -0.599  -0.700   1.449  1.00  0.00     0.008 C 
HETATM   26  C25 UNL     1       0.862  -0.242   1.612  1.00  0.00     0.010 C 
HETATM   27  C26 UNL     1       1.630  -0.645   0.420  1.00  0.00    -0.034 C 
HETATM   28  C27 UNL     1       1.671  -2.153   0.348  1.00  0.00     0.016 C 
ENDROOT
BRANCH  10  29
HETATM   29  O2  UNL     1      -6.476   0.720  -0.560  1.00  0.00    -0.282 OA
BRANCH  29  30
HETATM   30  C17 UNL     1      -7.065   1.962  -0.590  1.00  0.00     0.259 C 
HETATM   31  C18 UNL     1      -8.543   2.176  -0.656  1.00  0.00     0.126 C 
HETATM   32  O3  UNL     1      -6.346   2.974  -0.560  1.00  0.00    -0.265 OA
ENDBRANCH  29  30
ENDBRANCH  10  29
BRANCH   1  33
HETATM   33  C5  UNL     1       3.988  -0.272   1.322  1.00  0.00     0.122 C 
HETATM   34  C6  UNL     1       3.792   0.535   2.574  1.00  0.00     0.040 C 
BRANCH  33  35
HETATM   35  O1  UNL     1       5.229   0.099   0.735  1.00  0.00    -0.386 OA
BRANCH  35  36
HETATM   36  C4  UNL     1       6.117  -0.944   0.743  1.00  0.00     0.168 C 
BRANCH  36  37
HETATM   37  C3  UNL     1       7.431  -0.541   0.159  1.00  0.00     0.026 C 
BRANCH  37  38
HETATM   38  C2  UNL     1       7.420  -0.083  -1.254  1.00  0.00    -0.002 C 
HETATM   39  C1  UNL     1       6.582   1.134  -1.519  1.00  0.00     0.005 C 
ENDBRANCH  37  38
ENDBRANCH  36  37
ENDBRANCH  35  36
ENDBRANCH  33  35
ENDBRANCH   1  33
TORSDOF 7
