REMARK  8 active torsions:
REMARK  status: ('A' for Active; 'I' for Inactive)
REMARK    1  A    between atoms: C2_2  and  C3_3 
REMARK    2  A    between atoms: C2_2  and  C10_11 
REMARK    3  A    between atoms: C3_3  and  C4_4 
REMARK    4  A    between atoms: C4_4  and  N1_5 
REMARK    5  A    between atoms: C10_11  and  O1_12 
REMARK    6  A    between atoms: C10_11  and  C11_14 
REMARK    7  A    between atoms: C12_15  and  C13_16 
REMARK    8  A    between atoms: C18_21  and  O2_22 
ROOT
HETATM    1  C13 UNL     1      -2.231   0.246  -0.507  1.00  0.00     0.047 C 
HETATM    2  C14 UNL     1      -3.042  -0.254   0.631  1.00  0.00    -0.029 A 
HETATM    3  C15 UNL     1      -3.778  -1.364   0.735  1.00  0.00     0.021 A 
HETATM    4  C16 UNL     1      -4.289  -1.666   1.975  1.00  0.00     0.016 A 
HETATM    5  C17 UNL     1      -4.043  -0.825   3.077  1.00  0.00     0.038 A 
HETATM    6  C18 UNL     1      -3.283   0.320   2.914  1.00  0.00     0.072 A 
HETATM    7  C19 UNL     1      -2.770   0.625   1.673  1.00  0.00    -0.017 A 
HETATM    8  C20 UNL     1      -2.099   1.852   1.090  1.00  0.00     0.048 C 
HETATM    9  C21 UNL     1      -2.700   1.727  -0.341  1.00  0.00     0.007 C 
HETATM   10  C22 UNL     1      -4.129   1.575  -0.362  1.00  0.00     0.003 A 
HETATM   11  C23 UNL     1      -4.519   2.067  -1.662  1.00  0.00     0.018 A 
HETATM   12  C24 UNL     1      -5.205   1.047  -1.014  1.00  0.00    -0.006 A 
HETATM   13  C25 UNL     1      -6.633   1.375  -0.487  1.00  0.00     0.019 C 
HETATM   14  C26 UNL     1      -5.265  -0.245  -1.810  1.00  0.00     0.096 A 
HETATM   15  C27 UNL     1      -4.830  -0.315  -3.177  1.00  0.00     0.208 A 
HETATM   16  O3  UNL     1      -6.162  -0.085  -2.913  1.00  0.00    -0.374 OA
HETATM   17  C28 UNL     1      -5.476  -1.512  -1.033  1.00  0.00     0.125 C 
HETATM   18  C29 UNL     1      -4.233  -2.183  -0.456  1.00  0.00     0.274 C 
HETATM   19  F1  UNL     1      -4.598  -3.413   0.067  1.00  0.00    -0.201 F 
HETATM   20  F2  UNL     1      -3.258  -2.429  -1.354  1.00  0.00    -0.201 F 
ENDROOT
BRANCH   1  21
HETATM   21  C12 UNL     1      -0.775   0.232  -0.189  1.00  0.00    -0.018 C 
HETATM   22  C11 UNL     1      -0.209  -0.703   0.535  1.00  0.00     0.001 C 
BRANCH  22  23
HETATM   23  C10 UNL     1       1.207  -0.767   0.878  1.00  0.00     0.144 C 
BRANCH  23  24
HETATM   24  C2  UNL     1       2.147  -0.316  -0.232  1.00  0.00     0.016 C 
HETATM   25  C1  UNL     1       1.964  -1.210  -1.443  1.00  0.00     0.013 C 
BRANCH  24  26
HETATM   26  C3  UNL     1       3.564  -0.397   0.290  1.00  0.00     0.037 C 
BRANCH  26  27
HETATM   27  C4  UNL     1       4.609   0.014  -0.697  1.00  0.00     0.273 C 
BRANCH  27  28
HETATM   28  N1  UNL     1       5.939  -0.092  -0.182  1.00  0.00     0.088 N 
HETATM   29  C5  UNL     1       6.288   0.843   0.852  1.00  0.00     0.272 C 
HETATM   30  C6  UNL     1       7.557   0.337   1.513  1.00  0.00     0.030 C 
HETATM   31  C7  UNL     1       8.658   0.116   0.517  1.00  0.00     0.003 C 
HETATM   32  C8  UNL     1       8.201  -0.633  -0.691  1.00  0.00     0.030 C 
HETATM   33  C9  UNL     1       6.920   0.001  -1.237  1.00  0.00     0.272 C 
ENDBRANCH  27  28
ENDBRANCH  26  27
ENDBRANCH  24  26
ENDBRANCH  23  24
BRANCH  23  34
HETATM   34  O1  UNL     1       1.566  -2.090   1.176  1.00  0.00    -0.391 OA
ATOM     35  H1  UNL     1       0.980  -2.371   1.868  1.00  0.00     0.210 HD
ENDBRANCH  23  34
ENDBRANCH  22  23
ENDBRANCH   1  21
BRANCH   6  36
HETATM   36  O2  UNL     1      -3.038   1.157   3.988  1.00  0.00    -0.360 OA
ATOM     37  H2  UNL     1      -2.516   1.943   3.876  1.00  0.00     0.217 HD
ENDBRANCH   6  36
TORSDOF 8
