REMARK  9 active torsions:
REMARK  status: ('A' for Active; 'I' for Inactive)
REMARK    1  A    between atoms: C2_2  and  C3_3 
REMARK    2  A    between atoms: C3_3  and  N1_4 
REMARK    3  A    between atoms: C3_3  and  C25_37 
REMARK    4  A    between atoms: N1_4  and  C4_6 
REMARK    5  A    between atoms: C6_10  and  C7_11 
REMARK    6  A    between atoms: C7_11  and  N3_13 
REMARK    7  A    between atoms: N3_13  and  C9_14 
REMARK    8  A    between atoms: N4_17  and  C12_18 
REMARK    9  A    between atoms: C15_21  and  O1_22 
ROOT
HETATM    1  C9  UNL     1       0.988  -1.231   0.815  1.00  0.00     0.116 A 
HETATM    2  C10 UNL     1       1.905  -0.632   1.701  1.00  0.00     0.062 A 
HETATM    3  C11 UNL     1       3.103  -0.130   1.237  1.00  0.00     0.096 A 
HETATM    4  N4  UNL     1       3.419  -0.202  -0.064  1.00  0.00    -0.338 N 
HETATM    5  C19 UNL     1       2.575  -0.768  -0.962  1.00  0.00     0.121 A 
HETATM    6  N5  UNL     1       2.892  -0.838  -2.263  1.00  0.00    -0.350 N 
ATOM      7  H5  UNL     1       3.789  -0.455  -2.562  1.00  0.00     0.166 HD
HETATM    8  C20 UNL     1       2.097  -1.382  -3.188  1.00  0.00     0.112 A 
HETATM    9  C21 UNL     1       0.894  -1.892  -2.763  1.00  0.00     0.061 A 
HETATM   10  C22 UNL     1       0.003  -2.490  -3.731  1.00  0.00     0.101 C 
HETATM   11  N6  UNL     1      -0.704  -2.955  -4.520  1.00  0.00    -0.191 NA
HETATM   12  C23 UNL     1       0.521  -1.846  -1.439  1.00  0.00     0.042 A 
HETATM   13  C24 UNL     1       1.384  -1.271  -0.527  1.00  0.00     0.050 A 
ENDROOT
BRANCH   1  14
HETATM   14  N3  UNL     1      -0.039  -1.659   1.227  1.00  0.00    -0.436 NA
BRANCH  14  15
HETATM   15  C7  UNL     1      -1.248  -2.217   1.395  1.00  0.00     0.211 C 
HETATM   16  C8  UNL     1      -1.421  -2.616   2.887  1.00  0.00     0.054 C 
BRANCH  15  17
HETATM   17  C6  UNL     1      -2.340  -1.183   1.203  1.00  0.00     0.077 A 
HETATM   18  C5  UNL     1      -2.351   0.099   1.712  1.00  0.00     0.135 A 
HETATM   19  N2  UNL     1      -3.516   0.664   1.303  1.00  0.00    -0.200 N 
HETATM   20  C4  UNL     1      -4.201  -0.225   0.573  1.00  0.00     0.678 A 
ATOM     21  H2  UNL     1      -3.820   1.614   1.518  1.00  0.00     0.183 HD
HETATM   22  N7  UNL     1      -3.480  -1.364   0.509  1.00  0.00    -0.191 N 
ATOM     23  H7  UNL     1      -3.752  -2.216   0.019  1.00  0.00     0.184 HD
BRANCH  20  24
HETATM   24  N1  UNL     1      -5.342  -0.034   0.032  1.00  0.00    -0.220 N 
ATOM     25  H1  UNL     1      -5.737  -0.812  -0.497  1.00  0.00     0.178 HD
BRANCH  24  26
HETATM   26  C3  UNL     1      -6.123   1.168   0.095  1.00  0.00     0.121 C 
BRANCH  26  27
HETATM   27  C2  UNL     1      -5.792   2.155  -0.970  1.00  0.00     0.023 C 
HETATM   28  C1  UNL     1      -5.972   1.671  -2.375  1.00  0.00     0.007 C 
ENDBRANCH  26  27
BRANCH  26  29
HETATM   29  C25 UNL     1      -7.565   0.844   0.268  1.00  0.00     0.051 C 
HETATM   30  C26 UNL     1      -8.261   0.256  -0.906  1.00  0.00     0.034 C 
HETATM   31  C27 UNL     1      -7.752  -0.113   1.455  1.00  0.00     0.034 C 
HETATM   32 CL1  UNL     1      -8.501   2.316   0.729  1.00  0.00    -0.118 Cl
ENDBRANCH  26  29
ENDBRANCH  24  26
ENDBRANCH  20  24
ENDBRANCH  15  17
ENDBRANCH  14  15
ENDBRANCH   1  14
BRANCH   4  33
HETATM   33  C12 UNL     1       4.679   0.334  -0.508  1.00  0.00     0.091 C 
HETATM   34  C13 UNL     1       5.207   1.452   0.350  1.00  0.00     0.028 C 
HETATM   35  C14 UNL     1       6.466   1.961  -0.346  1.00  0.00     0.034 C 
HETATM   36  C15 UNL     1       7.586   0.941  -0.120  1.00  0.00     0.120 C 
HETATM   37  C17 UNL     1       6.984  -0.409   0.182  1.00  0.00     0.034 C 
HETATM   38  C18 UNL     1       5.754  -0.721  -0.610  1.00  0.00     0.028 C 
BRANCH  36  39
HETATM   39  O1  UNL     1       8.277   1.373   1.011  1.00  0.00    -0.391 OA
HETATM   40  C16 UNL     1       9.605   1.637   0.772  1.00  0.00     0.202 C 
ENDBRANCH  36  39
ENDBRANCH   4  33
TORSDOF 9
