REMARK  7 active torsions:
REMARK  status: ('A' for Active; 'I' for Inactive)
REMARK    1  A    between atoms: C2_2  and  C3_3 
REMARK    2  A    between atoms: C10_12  and  N1_13 
REMARK    3  A    between atoms: C10_12  and  C11_17 
REMARK    4  A    between atoms: C14_22  and  C15_23 
REMARK    5  A    between atoms: N3_26  and  C18_27 
REMARK    6  A    between atoms: C19_32  and  C20_33 
REMARK       I    between atoms: C20_33  and  N6_35 
REMARK    7  A    between atoms: N6_35  and  C21_37 
ROOT
HETATM    1  C11 UNL     1      -3.645  -0.047  -0.878  1.00  0.00    -0.015 A 
HETATM    2  C12 UNL     1      -4.296   0.857  -1.726  1.00  0.00     0.027 A 
HETATM    3  C13 UNL     1      -3.551   1.754  -2.421  1.00  0.00     0.088 A 
HETATM    4  N2  UNL     1      -2.215   1.775  -2.298  1.00  0.00    -0.369 N 
ATOM      5  H2  UNL     1      -1.692   2.465  -2.837  1.00  0.00     0.165 HD
HETATM    6  C14 UNL     1      -1.531   0.939  -1.506  1.00  0.00     0.013 A 
HETATM    7  C27 UNL     1      -2.287   0.005  -0.781  1.00  0.00     0.035 A 
ENDROOT
BRANCH   6   8
HETATM    8  C15 UNL     1      -0.042   0.990  -1.392  1.00  0.00     0.038 C 
HETATM    9  C16 UNL     1       0.281   1.189   0.061  1.00  0.00     0.030 C 
HETATM   10  C17 UNL     1       1.142   0.052   0.601  1.00  0.00     0.127 C 
HETATM   11  N3  UNL     1       2.293  -0.037  -0.271  1.00  0.00    -0.346 N 
HETATM   12  C25 UNL     1       2.073  -0.215  -1.685  1.00  0.00     0.127 C 
HETATM   13  C26 UNL     1       0.575  -0.300  -1.894  1.00  0.00     0.030 C 
BRANCH  11  14
HETATM   14  C18 UNL     1       3.592   0.050   0.270  1.00  0.00     0.243 A 
HETATM   15  N4  UNL     1       3.964   0.212   1.545  1.00  0.00    -0.263 N 
HETATM   16  N5  UNL     1       5.267   0.246   1.650  1.00  0.00    -0.272 N 
ATOM     17  H4  UNL     1       3.318   0.297   2.330  1.00  0.00     0.190 HD
HETATM   18  C19 UNL     1       5.742   0.101   0.395  1.00  0.00     0.234 A 
ATOM     19  H5  UNL     1       5.812   0.359   2.505  1.00  0.00     0.189 HD
HETATM   20  O2  UNL     1       4.730  -0.014  -0.405  1.00  0.00    -0.254 OA
BRANCH  18  21
HETATM   21  C20 UNL     1       7.152   0.080   0.036  1.00  0.00     0.295 C 
HETATM   22  O1  UNL     1       7.471  -0.059  -1.159  1.00  0.00    -0.264 OA
HETATM   23  N6  UNL     1       8.163   0.217   1.037  1.00  0.00    -0.346 N 
ATOM     24  H6  UNL     1       7.902   0.331   2.017  1.00  0.00     0.163 HD
BRANCH  23  25
HETATM   25  C21 UNL     1       9.557   0.193   0.654  1.00  0.00     0.022 C 
HETATM   26  C22 UNL     1      10.406   0.356   1.899  1.00  0.00     0.037 C 
HETATM   27  C23 UNL     1       9.870   1.323  -0.315  1.00  0.00     0.037 C 
HETATM   28  C24 UNL     1       9.906  -1.109   0.006  1.00  0.00     0.037 C 
ENDBRANCH  23  25
ENDBRANCH  18  21
ENDBRANCH  11  14
ENDBRANCH   6   8
BRANCH   1  29
HETATM   29  C10 UNL     1      -4.418  -1.075  -0.143  1.00  0.00     0.174 C 
HETATM   30  C5  UNL     1      -5.718  -0.600   0.346  1.00  0.00    -0.032 C 
HETATM   31  C3  UNL     1      -5.908   0.464   1.111  1.00  0.00    -0.079 C 
HETATM   32  C6  UNL     1      -6.963  -1.331  -0.006  1.00  0.00     0.116 C 
HETATM   33  C4  UNL     1      -4.824   1.340   1.583  1.00  0.00     0.043 C 
HETATM   34  C7  UNL     1      -6.888  -2.493  -0.900  1.00  0.00     0.247 C 
HETATM   35  F1  UNL     1      -6.781  -3.694  -0.228  1.00  0.00    -0.206 F 
HETATM   36  F2  UNL     1      -8.064  -2.578  -1.653  1.00  0.00    -0.206 F 
HETATM   37  C8  UNL     1      -5.726  -2.364  -1.870  1.00  0.00     0.082 C 
HETATM   38  C9  UNL     1      -4.487  -2.293  -1.043  1.00  0.00     0.054 C 
BRANCH  31  39
HETATM   39  C2  UNL     1      -7.281   0.841   1.550  1.00  0.00     0.029 C 
HETATM   40  C1  UNL     1      -7.677   2.206   1.027  1.00  0.00     0.010 C 
ENDBRANCH  31  39
BRANCH  29  41
HETATM   41  N1  UNL     1      -3.678  -1.513   1.019  1.00  0.00    -0.062 N 
ATOM     42  H13 UNL     1      -3.601  -0.798   1.742  1.00  0.00     0.276 HD
ATOM     43  H12 UNL     1      -4.177  -2.205   1.578  1.00  0.00     0.276 HD
ATOM     44  H11 UNL     1      -2.775  -1.843   0.679  1.00  0.00     0.276 HD
ENDBRANCH  29  41
ENDBRANCH   1  29
TORSDOF 7
