REMARK  6 active torsions:
REMARK  status: ('A' for Active; 'I' for Inactive)
REMARK    1  A    between atoms: C2_2  and  C4_4 
REMARK    2  A    between atoms: C7_11  and  C8_12 
REMARK    3  A    between atoms: C9_17  and  S1_18 
REMARK    4  A    between atoms: S1_18  and  C10_19 
REMARK    5  A    between atoms: C10_19  and  C11_20 
REMARK    6  A    between atoms: C14_24  and  O1_25 
ROOT
HETATM    1  C8  UNL     1       0.203  -0.174  -0.397  1.00  0.00     0.192 A 
HETATM    2  N3  UNL     1       0.998  -1.202  -0.054  1.00  0.00    -0.275 N 
ATOM      3  H3  UNL     1       0.681  -2.089   0.338  1.00  0.00     0.189 HD
HETATM    4  N4  UNL     1       2.252  -0.883  -0.305  1.00  0.00    -0.272 N 
ATOM      5  H4  UNL     1       3.065  -1.478  -0.145  1.00  0.00     0.189 HD
HETATM    6  C9  UNL     1       2.271   0.333  -0.796  1.00  0.00     0.204 A 
HETATM    7  O2  UNL     1       1.001   0.755  -0.847  1.00  0.00    -0.266 OA
ENDROOT
BRANCH   1   8
HETATM    8  C7  UNL     1      -1.247  -0.054  -0.307  1.00  0.00     0.087 A 
HETATM    9  C6  UNL     1      -1.896   1.010  -0.947  1.00  0.00     0.066 A 
HETATM   10  C5  UNL     1      -3.262   1.044  -1.034  1.00  0.00     0.064 A 
HETATM   11  N2  UNL     1      -4.131   1.877  -1.685  1.00  0.00    -0.299 N 
HETATM   12  C18 UNL     1      -4.059   0.069  -0.503  1.00  0.00     0.036 A 
HETATM   13  N1  UNL     1      -5.382   1.410  -1.539  1.00  0.00    -0.299 N 
ATOM     14  H2  UNL     1      -3.870   2.718  -2.199  1.00  0.00     0.187 HD
HETATM   15  C4  UNL     1      -5.391   0.282  -0.803  1.00  0.00     0.063 A 
ATOM     16  H1  UNL     1      -6.214   1.850  -1.933  1.00  0.00     0.187 HD
HETATM   17  C17 UNL     1      -3.399  -0.974   0.130  1.00  0.00     0.104 A 
HETATM   18  N5  UNL     1      -2.054  -0.989   0.197  1.00  0.00    -0.361 N 
ATOM     19  H5  UNL     1      -1.617  -1.779   0.671  1.00  0.00     0.165 HD
BRANCH  15  20
HETATM   20  C2  UNL     1      -6.585  -0.426  -0.251  1.00  0.00    -0.059 C 
HETATM   21  C1  UNL     1      -7.215  -1.391  -1.185  1.00  0.00     0.045 C 
HETATM   22  C3  UNL     1      -6.590  -0.738   1.175  1.00  0.00     0.045 C 
ENDBRANCH  15  20
ENDBRANCH   1   8
BRANCH   6  23
HETATM   23  S1  UNL     1       3.661   1.326  -1.335  1.00  0.00    -0.080 SA
BRANCH  23  24
HETATM   24  C10 UNL     1       4.586   1.803   0.190  1.00  0.00     0.121 C 
BRANCH  24  25
HETATM   25  C11 UNL     1       5.710   0.860   0.445  1.00  0.00    -0.046 A 
HETATM   26  C12 UNL     1       5.613  -0.386   0.967  1.00  0.00     0.030 A 
HETATM   27  C13 UNL     1       6.763  -1.173   1.126  1.00  0.00     0.046 A 
HETATM   28 BR1  UNL     1       6.600  -2.946   1.831  1.00  0.00    -0.048 Br
HETATM   29  C14 UNL     1       8.018  -0.706   0.765  1.00  0.00     0.100 A 
HETATM   30  C15 UNL     1       8.121   0.561   0.238  1.00  0.00     0.046 A 
HETATM   31 BR2  UNL     1       9.793   1.285  -0.268  1.00  0.00    -0.048 Br
HETATM   32  C16 UNL     1       6.992   1.324   0.081  1.00  0.00     0.030 A 
BRANCH  29  33
HETATM   33  O1  UNL     1       9.127  -1.520   0.940  1.00  0.00    -0.358 OA
ATOM     34  H1  UNL     1       9.987  -1.200   0.693  1.00  0.00     0.217 HD
ENDBRANCH  29  33
ENDBRANCH  24  25
ENDBRANCH  23  24
ENDBRANCH   6  23
TORSDOF 6
