REMARK  3 active torsions:
REMARK  status: ('A' for Active; 'I' for Inactive)
REMARK    1  A    between atoms: N1_1  and  C1_4 
REMARK    2  A    between atoms: C3_10  and  N4_11 
REMARK    3  A    between atoms: N4_11  and  N5_13 
ROOT
HETATM    1  C1  UNL     1      -1.947   0.693   0.704  1.00  0.00     0.691 A 
HETATM    2  N2  UNL     1      -2.980   0.449  -0.102  1.00  0.00    -0.187 N 
ATOM      3  H2  UNL     1      -3.848   0.970   0.018  1.00  0.00     0.185 HD
HETATM    4  C2  UNL     1      -2.889  -0.476  -1.071  1.00  0.00     0.215 A 
HETATM    5  N3  UNL     1      -1.735  -1.153  -1.213  1.00  0.00    -0.185 N 
ATOM      6  H3  UNL     1      -1.667  -1.856  -1.949  1.00  0.00     0.185 HD
HETATM    7  C3  UNL     1      -0.673  -0.940  -0.426  1.00  0.00     0.712 A 
HETATM    8  N8  UNL     1      -0.810   0.005   0.540  1.00  0.00    -0.021 N 
ATOM      9  H8  UNL     1      -0.023   0.196   1.159  1.00  0.00     0.203 HD
ENDROOT
BRANCH   7  10
HETATM   10  N4  UNL     1       0.412  -1.612  -0.599  1.00  0.00    -0.129 N 
ATOM     11  H4  UNL     1       0.473  -2.313  -1.337  1.00  0.00     0.205 HD
BRANCH  10  12
HETATM   12  N5  UNL     1       1.505  -1.368   0.238  1.00  0.00    -0.262 N 
HETATM   13  C4  UNL     1       2.345  -0.452  -0.052  1.00  0.00     0.216 C 
HETATM   14  N6  UNL     1       2.205   0.347  -1.221  1.00  0.00    -0.065 NA
HETATM   15  N7  UNL     1       3.434  -0.239   0.821  1.00  0.00    -0.065 NA
ATOM     16  H5  UNL     1       1.632  -1.924   1.084  1.00  0.00     0.190 HD
ENDBRANCH  10  12
ENDBRANCH   7  10
BRANCH   1  17
HETATM   17  N1  UNL     1      -2.017   1.582   1.643  1.00  0.00    -0.234 N 
ATOM     18  H12 UNL     1      -2.883   2.106   1.768  1.00  0.00     0.174 HD
ATOM     19  H11 UNL     1      -1.226   1.769   2.260  1.00  0.00     0.174 HD
ENDBRANCH   1  17
TORSDOF 3
