REMARK  7 active torsions:
REMARK  status: ('A' for Active; 'I' for Inactive)
REMARK    1  A    between atoms: C2_2  and  C3_3 
REMARK    2  A    between atoms: C3_3  and  O1_4 
REMARK    3  A    between atoms: O1_4  and  C4_5 
REMARK    4  A    between atoms: C4_5  and  O3_7 
REMARK    5  A    between atoms: O3_7  and  C5_8 
REMARK    6  A    between atoms: C8_11  and  C9_12 
REMARK    7  A    between atoms: C12_18  and  N2_19 
ROOT
HETATM    1  C5  UNL     1      -1.082  -0.710   0.466  1.00  0.00     0.216 C 
HETATM    2  C6  UNL     1      -2.063   0.400   0.492  1.00  0.00     0.045 A 
HETATM    3  C7  UNL     1      -2.103   1.773   0.618  1.00  0.00     0.045 A 
HETATM    4  C8  UNL     1      -3.428   2.160   0.548  1.00  0.00     0.038 A 
HETATM    5  C10 UNL     1      -4.134   0.985   0.381  1.00  0.00     0.095 A 
HETATM    6 BR1  UNL     1      -6.054   0.937   0.223  1.00  0.00    -0.030 Br
HETATM    7  N1  UNL     1      -3.301  -0.049   0.351  1.00  0.00    -0.339 N 
HETATM    8  C11 UNL     1      -3.331  -1.501   0.212  1.00  0.00     0.165 C 
HETATM    9  C12 UNL     1      -1.893  -1.877  -0.054  1.00  0.00     0.237 C 
ENDROOT
BRANCH   1  10
HETATM   10  O3  UNL     1       0.038  -0.427  -0.351  1.00  0.00    -0.284 OA
BRANCH  10  11
HETATM   11  C4  UNL     1       1.341  -0.478   0.148  1.00  0.00     0.407 C 
HETATM   12  O2  UNL     1       1.492  -0.789   1.364  1.00  0.00    -0.229 OA
BRANCH  11  13
HETATM   13  O1  UNL     1       2.461  -0.214  -0.595  1.00  0.00    -0.298 OA
BRANCH  13  14
HETATM   14  C3  UNL     1       3.781  -0.280  -0.037  1.00  0.00     0.180 C 
BRANCH  14  15
HETATM   15  C2  UNL     1       4.826   0.049  -1.048  1.00  0.00     0.022 C 
HETATM   16  C1  UNL     1       6.177  -0.042  -0.387  1.00  0.00     0.007 C 
ENDBRANCH  14  15
ENDBRANCH  13  14
ENDBRANCH  11  13
ENDBRANCH  10  11
ENDBRANCH   1  10
BRANCH   9  17
HETATM   17  N2  UNL     1      -1.635  -2.023  -1.481  1.00  0.00    -0.071 N 
ATOM     18  H23 UNL     1      -1.811  -1.163  -2.000  1.00  0.00     0.274 HD
ATOM     19  H22 UNL     1      -0.641  -2.113  -1.691  1.00  0.00     0.274 HD
ATOM     20  H21 UNL     1      -2.182  -2.810  -1.831  1.00  0.00     0.274 HD
ENDBRANCH   9  17
BRANCH   4  21
HETATM   21  C9  UNL     1      -3.977   3.518   0.632  1.00  0.00     0.272 C 
HETATM   22  O4  UNL     1      -5.217   3.667   0.547  1.00  0.00    -0.301 OA
ENDBRANCH   4  21
TORSDOF 7
