REMARK  5 active torsions:
REMARK  status: ('A' for Active; 'I' for Inactive)
REMARK    1  A    between atoms: N1_2  and  N2_4 
REMARK    2  A    between atoms: C2_6  and  N3_7 
REMARK    3  A    between atoms: N3_7  and  C3_9 
REMARK    4  A    between atoms: C3_9  and  C4_10 
REMARK    5  A    between atoms: C6_12  and  N4_13 
ROOT
HETATM    1  N3  UNL     1       0.086  -0.423   0.123  1.00  0.00    -0.385 N 
ATOM      2  H3  UNL     1      -0.403  -1.161  -0.383  1.00  0.00     0.160 HD
ENDROOT
BRANCH   1   3
HETATM    3  C2  UNL     1       1.488  -0.516   0.440  1.00  0.00     0.192 C 
HETATM    4  N2  UNL     1       2.218   0.498   0.156  1.00  0.00    -0.301 N 
ATOM      5  H2  UNL     1       1.794   1.320  -0.275  1.00  0.00     0.187 HD
BRANCH   4   6
HETATM    6  N1  UNL     1       3.577   0.490   0.428  1.00  0.00    -0.340 N 
HETATM    7  C1  UNL     1       4.410  -0.590  -0.029  1.00  0.00     0.167 C 
ATOM      8  H1  UNL     1       3.991   1.258   0.957  1.00  0.00     0.179 HD
ENDBRANCH   4   6
ENDBRANCH   1   3
BRANCH   1   9
HETATM    9  C3  UNL     1      -0.575   0.754   0.555  1.00  0.00     0.127 C 
BRANCH   9  10
HETATM   10  C4  UNL     1      -2.010   0.798   0.225  1.00  0.00     0.036 A 
HETATM   11  C5  UNL     1      -2.453   0.725  -1.207  1.00  0.00     0.041 A 
HETATM   12  C6  UNL     1      -2.734  -0.422  -0.298  1.00  0.00     0.189 A 
BRANCH  12  13
HETATM   13  N4  UNL     1      -4.079  -0.565   0.242  1.00  0.00    -0.075 N 
ATOM     14  H43 UNL     1      -4.063  -0.562   1.262  1.00  0.00     0.274 HD
ATOM     15  H42 UNL     1      -4.627   0.280   0.080  1.00  0.00     0.274 HD
ATOM     16  H41 UNL     1      -4.567  -1.388  -0.111  1.00  0.00     0.274 HD
ENDBRANCH  12  13
ENDBRANCH   9  10
ENDBRANCH   1   9
TORSDOF 5
