REMARK  6 active torsions:
REMARK  status: ('A' for Active; 'I' for Inactive)
REMARK    1  A    between atoms: N1_1  and  C1_5 
REMARK    2  A    between atoms: C1_5  and  C2_6 
REMARK    3  A    between atoms: C2_6  and  C3_7 
REMARK    4  A    between atoms: C3_7  and  C4_8 
REMARK    5  A    between atoms: C4_8  and  N2_9 
REMARK    6  A    between atoms: C6_14  and  N3_15 
ROOT
HETATM    1  C4  UNL     1       1.004   0.195   0.054  1.00  0.00     0.153 A 
HETATM    2  C5  UNL     1       1.497   0.961  -1.143  1.00  0.00     0.076 A 
HETATM    3  C6  UNL     1       2.112  -0.354  -0.840  1.00  0.00     0.221 A 
ENDROOT
BRANCH   1   4
HETATM    4  C3  UNL     1      -0.289  -0.576  -0.080  1.00  0.00     0.042 C 
BRANCH   4   5
HETATM    5  C2  UNL     1      -1.483   0.261   0.400  1.00  0.00     0.030 C 
BRANCH   5   6
HETATM    6  C1  UNL     1      -2.702  -0.636   0.207  1.00  0.00     0.230 C 
BRANCH   6   7
HETATM    7  N1  UNL     1      -3.920  -0.023   0.604  1.00  0.00    -0.079 N 
ATOM      8  H13 UNL     1      -3.862   0.307   1.567  1.00  0.00     0.274 HD
ATOM      9  H12 UNL     1      -4.048   0.870   0.127  1.00  0.00     0.274 HD
ATOM     10  H11 UNL     1      -4.735  -0.623   0.475  1.00  0.00     0.274 HD
ENDBRANCH   6   7
ENDBRANCH   5   6
ENDBRANCH   4   5
ENDBRANCH   1   4
BRANCH   1  11
HETATM   11  N2  UNL     1       1.393   0.640   1.380  1.00  0.00    -0.068 N 
ATOM     12  H23 UNL     1       0.633   1.186   1.787  1.00  0.00     0.275 HD
ATOM     13  H22 UNL     1       1.414  -0.162   2.010  1.00  0.00     0.275 HD
ATOM     14  H21 UNL     1       2.266   1.160   1.470  1.00  0.00     0.275 HD
ENDBRANCH   1  11
BRANCH   3  15
HETATM   15  N3  UNL     1       3.441  -0.348  -0.240  1.00  0.00    -0.072 N 
ATOM     16  H33 UNL     1       3.679   0.590   0.082  1.00  0.00     0.274 HD
ATOM     17  H32 UNL     1       3.428  -0.843   0.652  1.00  0.00     0.274 HD
ATOM     18  H31 UNL     1       4.182  -0.715  -0.838  1.00  0.00     0.274 HD
ENDBRANCH   3  15
TORSDOF 6
