REMARK  4 active torsions:
REMARK  status: ('A' for Active; 'I' for Inactive)
REMARK    1  A    between atoms: N1_1  and  N2_4 
REMARK    2  A    between atoms: N2_4  and  N3_6 
REMARK    3  A    between atoms: N3_6  and  N4_8 
REMARK    4  A    between atoms: C1_10  and  N5_11 
ROOT
HETATM    1  N4  UNL     1      -1.064  -0.297  -0.342  1.00  0.00    -0.280 N 
ATOM      2  H4  UNL     1      -0.890   0.649  -0.681  1.00  0.00     0.189 HD
HETATM    3  C1  UNL     1      -0.085  -0.943   0.188  1.00  0.00     0.206 C 
ENDROOT
BRANCH   1   4
HETATM    4  N3  UNL     1      -2.348  -0.820  -0.478  1.00  0.00    -0.228 N 
ATOM      5  H3  UNL     1      -2.497  -1.731  -0.911  1.00  0.00     0.210 HD
BRANCH   4   6
HETATM    6  N2  UNL     1      -3.412  -0.077  -0.013  1.00  0.00    -0.235 N 
ATOM      7  H2  UNL     1      -4.360  -0.449   0.039  1.00  0.00     0.209 HD
BRANCH   6   8
HETATM    8  N1  UNL     1      -3.099   1.201   0.375  1.00  0.00    -0.330 N 
ATOM      9  H12 UNL     1      -2.146   1.559   0.318  1.00  0.00     0.178 HD
ATOM     10  H11 UNL     1      -3.886   1.751   0.719  1.00  0.00     0.178 HD
ENDBRANCH   6   8
ENDBRANCH   4   6
ENDBRANCH   1   4
BRANCH   3  11
HETATM   11  N5  UNL     1       1.201  -0.358   0.299  1.00  0.00    -0.312 N 
HETATM   12  C2  UNL     1       2.132  -0.726   1.195  1.00  0.00     0.115 A 
HETATM   13  C3  UNL     1       3.260   0.072   0.998  1.00  0.00     0.106 A 
HETATM   14  N6  UNL     1       2.977   0.910  -0.023  1.00  0.00    -0.360 N 
HETATM   15  C4  UNL     1       1.709   0.635  -0.444  1.00  0.00     0.188 A 
ATOM     16  H6  UNL     1       3.599   1.620  -0.409  1.00  0.00     0.166 HD
ENDBRANCH   3  11
TORSDOF 4
