REMARK  19 active torsions:
REMARK  status: ('A' for Active; 'I' for Inactive)
REMARK    1  A    between atoms: C3_3  and  C4_4 
REMARK    2  A    between atoms: C3_3  and  C24_41 
REMARK       I    between atoms: C4_4  and  N1_6 
REMARK    3  A    between atoms: N1_6  and  C5_8 
REMARK    4  A    between atoms: N2_12  and  C7_13 
REMARK    5  A    between atoms: C7_13  and  C8_14 
REMARK    6  A    between atoms: C7_13  and  C15_21 
REMARK    7  A    between atoms: C8_14  and  C9_15 
REMARK    8  A    between atoms: C15_21  and  O4_22 
REMARK    9  A    between atoms: C15_21  and  N3_24 
REMARK   10  A    between atoms: N3_24  and  C16_26 
REMARK   11  A    between atoms: C16_26  and  C17_27 
REMARK   12  A    between atoms: C16_26  and  C19_29 
REMARK   13  A    between atoms: C19_29  and  O5_30 
REMARK   14  A    between atoms: C19_29  and  C20_32 
REMARK   15  A    between atoms: C20_32  and  C21_33 
REMARK   16  A    between atoms: C21_33  and  O6_34 
REMARK   17  A    between atoms: C21_33  and  C22_36 
REMARK   18  A    between atoms: C24_41  and  N4_43 
REMARK   19  A    between atoms: N4_43  and  C25_45 
ROOT
HETATM    1  C7  UNL     1      -3.136  -0.733   0.282  1.00  0.00     0.167 C 
ENDROOT
BRANCH   1   2
HETATM    2  N2  UNL     1      -1.868  -0.448  -0.328  1.00  0.00    -0.206 N 
HETATM    3  O3  UNL     1      -1.600  -0.141  -1.664  1.00  0.00    -0.191 OA
HETATM    4  C6  UNL     1      -0.239   0.113  -1.835  1.00  0.00     0.313 C 
HETATM    5  C5  UNL     1       0.249   0.493  -0.507  1.00  0.00     0.281 C 
HETATM    6  O2  UNL     1       0.378   0.018  -2.930  1.00  0.00    -0.260 OA
HETATM    7  C23 UNL     1      -0.598  -0.380   0.364  1.00  0.00     0.277 C 
HETATM    8  O9  UNL     1      -0.288  -0.932   1.449  1.00  0.00    -0.268 OA
BRANCH   5   9
HETATM    9  N1  UNL     1       1.676   0.229  -0.305  1.00  0.00    -0.335 N 
HETATM   10  C4  UNL     1       2.444   0.954   0.620  1.00  0.00     0.255 C 
HETATM   11  O1  UNL     1       1.734   1.829   1.257  1.00  0.00    -0.268 OA
ATOM     12  H1  UNL     1       2.125  -0.504  -0.853  1.00  0.00     0.164 HD
BRANCH  10  13
HETATM   13  C3  UNL     1       3.840   0.879   0.959  1.00  0.00     0.065 C 
HETATM   14  C2  UNL     1       4.318   1.685   1.938  1.00  0.00    -0.011 C 
HETATM   15  C1  UNL     1       3.529   2.653   2.704  1.00  0.00     0.037 C 
BRANCH  13  16
HETATM   16  C24 UNL     1       4.845   0.036   0.335  1.00  0.00     0.112 C 
HETATM   17  S1  UNL     1       4.390  -0.956  -0.907  1.00  0.00    -0.060 SA
BRANCH  16  18
HETATM   18  N4  UNL     1       6.212  -0.060   0.725  1.00  0.00    -0.375 N 
ATOM     19  H4  UNL     1       6.552   0.472   1.526  1.00  0.00     0.161 HD
BRANCH  18  20
HETATM   20  C25 UNL     1       7.140  -0.931  -0.031  1.00  0.00     0.086 C 
HETATM   21  C26 UNL     1       7.254  -0.328  -1.400  1.00  0.00     0.025 C 
HETATM   22  C27 UNL     1       8.635   0.139  -1.733  1.00  0.00     0.002 C 
HETATM   23  C28 UNL     1       9.323   0.939  -0.687  1.00  0.00     0.001 C 
HETATM   24  C29 UNL     1       9.094   0.464   0.695  1.00  0.00     0.006 C 
HETATM   25  C30 UNL     1       8.462  -0.898   0.714  1.00  0.00     0.004 C 
HETATM   26  C31 UNL     1       9.424  -1.944   0.182  1.00  0.00     0.012 C 
ENDBRANCH  18  20
ENDBRANCH  16  18
ENDBRANCH  13  16
ENDBRANCH  10  13
ENDBRANCH   5   9
ENDBRANCH   1   2
BRANCH   1  27
HETATM   27  C8  UNL     1      -3.300  -2.051   0.943  1.00  0.00     0.037 C 
BRANCH  27  28
HETATM   28  C9  UNL     1      -3.192  -3.245   0.082  1.00  0.00    -0.012 C 
HETATM   29  C10 UNL     1      -1.929  -3.532  -0.632  1.00  0.00     0.005 C 
HETATM   30  C11 UNL     1      -1.776  -5.019  -0.943  1.00  0.00     0.000 C 
HETATM   31  C12 UNL     1      -3.059  -5.730  -1.188  1.00  0.00     0.000 C 
HETATM   32  C13 UNL     1      -4.150  -5.477  -0.191  1.00  0.00     0.000 C 
HETATM   33  C14 UNL     1      -3.645  -4.513   0.853  1.00  0.00     0.005 C 
ENDBRANCH  27  28
ENDBRANCH   1  27
BRANCH   1  34
HETATM   34  C15 UNL     1      -3.541   0.408   1.241  1.00  0.00     0.239 C 
BRANCH  34  35
HETATM   35  O4  UNL     1      -4.778   0.092   1.793  1.00  0.00    -0.375 OA
ATOM     36  H4  UNL     1      -5.027   0.794   2.383  1.00  0.00     0.212 HD
ENDBRANCH  34  35
BRANCH  34  37
HETATM   37  N3  UNL     1      -3.437   1.641   0.585  1.00  0.00    -0.389 N 
ATOM     38  H3  UNL     1      -2.759   2.320   0.930  1.00  0.00     0.156 HD
BRANCH  37  39
HETATM   39  C16 UNL     1      -4.217   1.983  -0.517  1.00  0.00     0.107 C 
BRANCH  39  40
HETATM   40  C17 UNL     1      -3.795   3.370  -1.015  1.00  0.00     0.023 C 
HETATM   41  C18 UNL     1      -2.353   3.403  -1.450  1.00  0.00     0.007 C 
ENDBRANCH  39  40
BRANCH  39  42
HETATM   42  C19 UNL     1      -5.719   2.088  -0.298  1.00  0.00     0.143 C 
BRANCH  42  43
HETATM   43  O5  UNL     1      -6.203   2.448  -1.596  1.00  0.00    -0.393 OA
ATOM     44  H5  UNL     1      -7.141   2.514  -1.459  1.00  0.00     0.210 HD
ENDBRANCH  42  43
BRANCH  42  45
HETATM   45  C20 UNL     1      -6.074   3.129   0.712  1.00  0.00     0.076 C 
BRANCH  45  46
HETATM   46  C21 UNL     1      -7.555   3.195   0.975  1.00  0.00     0.221 C 
BRANCH  46  47
HETATM   47  O6  UNL     1      -7.668   4.233   1.976  1.00  0.00    -0.385 OA
ATOM     48  H6  UNL     1      -8.602   4.275   2.142  1.00  0.00     0.210 HD
ENDBRANCH  46  47
BRANCH  46  49
HETATM   49  C22 UNL     1      -8.403   3.620  -0.142  1.00  0.00     0.203 C 
HETATM   50  O7  UNL     1      -8.804   4.831  -0.174  1.00  0.00    -0.646 OA
HETATM   51  O8  UNL     1      -8.843   2.846  -1.199  1.00  0.00    -0.646 OA
ENDBRANCH  46  49
ENDBRANCH  45  46
ENDBRANCH  42  45
ENDBRANCH  39  42
ENDBRANCH  37  39
ENDBRANCH  34  37
ENDBRANCH   1  34
TORSDOF 19
