REMARK  4 active torsions:
REMARK  status: ('A' for Active; 'I' for Inactive)
REMARK    1  A    between atoms: C4_6  and  C5_7 
REMARK    2  A    between atoms: N2_8  and  N3_10 
REMARK       I    between atoms: N3_10  and  C6_12 
REMARK    3  A    between atoms: N6_20  and  S1_21 
REMARK    4  A    between atoms: S1_21  and  N7_22 
ROOT
HETATM    1  C1  UNL     1       0.610   2.272  -2.705  1.00  0.00     0.123 C 
HETATM    2  C2  UNL     1      -0.300   1.655  -2.162  1.00  0.00    -0.074 C 
HETATM    3  N1  UNL     1      -1.351   0.971  -1.547  1.00  0.00    -0.314 N 
ATOM      4  H1  UNL     1      -2.169   0.696  -2.090  1.00  0.00     0.176 HD
HETATM    5  C3  UNL     1      -1.285   0.691  -0.302  1.00  0.00     0.110 C 
HETATM    6  C4  UNL     1      -0.090   1.098   0.471  1.00  0.00     0.095 C 
HETATM    7  C7  UNL     1      -0.298   0.864   1.966  1.00  0.00     0.019 C 
HETATM    8  C8  UNL     1      -0.915  -0.509   2.118  1.00  0.00     0.022 C 
HETATM    9  C9  UNL     1      -2.383  -0.368   1.697  1.00  0.00     0.144 C 
HETATM   10  N6  UNL     1      -2.370  -0.004   0.293  1.00  0.00    -0.247 N 
ENDROOT
BRANCH   6  11
HETATM   11  C5  UNL     1       1.096   0.263   0.078  1.00  0.00     0.092 C 
HETATM   12  N2  UNL     1       2.057   0.180   0.949  1.00  0.00    -0.313 N 
ATOM     13  H2  UNL     1       1.960   0.675   1.836  1.00  0.00     0.185 HD
BRANCH  12  14
HETATM   14  N3  UNL     1       3.212  -0.557   0.718  1.00  0.00    -0.275 N 
HETATM   15  C6  UNL     1       3.950  -0.328  -0.475  1.00  0.00     0.200 C 
HETATM   16  N4  UNL     1       4.309   0.851  -0.855  1.00  0.00    -0.372 N 
HETATM   17  N5  UNL     1       4.293  -1.461  -1.260  1.00  0.00    -0.062 NA
ATOM     18  H42 UNL     1       4.063   1.665  -0.291  1.00  0.00     0.158 HD
ATOM     19  H41 UNL     1       4.839   1.015  -1.711  1.00  0.00     0.158 HD
ATOM     20  H3  UNL     1       3.526  -1.252   1.395  1.00  0.00     0.189 HD
ENDBRANCH  12  14
ENDBRANCH   6  11
BRANCH  10  21
HETATM   21  S1  UNL     1      -3.734  -0.447  -0.662  1.00  0.00     0.320 S 
HETATM   22  O1  UNL     1      -4.401   0.750  -1.271  1.00  0.00    -0.182 OA
HETATM   23  O2  UNL     1      -4.761  -1.175   0.149  1.00  0.00    -0.182 OA
BRANCH  21  24
HETATM   24  N7  UNL     1      -3.181  -1.515  -1.902  1.00  0.00    -0.311 N 
ATOM     25  H72 UNL     1      -2.216  -1.820  -2.032  1.00  0.00     0.170 HD
ATOM     26  H71 UNL     1      -3.988  -1.777  -2.467  1.00  0.00     0.170 HD
ENDBRANCH  21  24
ENDBRANCH  10  21
TORSDOF 4
