REMARK  4 active torsions:
REMARK  status: ('A' for Active; 'I' for Inactive)
REMARK    1  A    between atoms: N1_1  and  C1_4 
REMARK    2  A    between atoms: C8_13  and  N3_14 
REMARK    3  A    between atoms: N3_14  and  N4_16 
REMARK    4  A    between atoms: C9_18  and  C10_19 
ROOT
HETATM    1  N3  UNL     1      -1.376   0.769   1.008  1.00  0.00    -0.297 N 
ATOM      2  H3  UNL     1      -1.541   1.442   1.757  1.00  0.00     0.187 HD
ENDROOT
BRANCH   1   3
HETATM    3  C8  UNL     1      -2.395   0.189   0.492  1.00  0.00     0.104 A 
HETATM    4  C1  UNL     1      -2.504  -0.795  -0.561  1.00  0.00     0.129 A 
HETATM    5  N2  UNL     1      -3.917  -1.083  -0.744  1.00  0.00    -0.340 N 
HETATM    6  C2  UNL     1      -4.669  -0.305   0.165  1.00  0.00     0.046 A 
ATOM      7  H2  UNL     1      -4.304  -1.741  -1.420  1.00  0.00     0.167 HD
HETATM    8  C3  UNL     1      -6.030  -0.225   0.376  1.00  0.00     0.030 A 
HETATM    9  C7  UNL     1      -3.799   0.455   0.907  1.00  0.00     0.022 A 
HETATM   10  C4  UNL     1      -6.565   0.619   1.336  1.00  0.00     0.002 A 
HETATM   11  C5  UNL     1      -5.694   1.381   2.081  1.00  0.00     0.001 A 
HETATM   12  C6  UNL     1      -4.338   1.286   1.855  1.00  0.00     0.016 A 
BRANCH   4  13
HETATM   13  N1  UNL     1      -1.562  -1.338  -1.223  1.00  0.00    -0.384 N 
ATOM     14  H12 UNL     1      -1.639  -2.032  -1.966  1.00  0.00     0.157 HD
ATOM     15  H11 UNL     1      -0.571  -1.136  -1.095  1.00  0.00     0.157 HD
ENDBRANCH   4  13
ENDBRANCH   1   3
BRANCH   1  16
HETATM   16  N4  UNL     1      -0.089   0.550   0.627  1.00  0.00    -0.310 N 
HETATM   17  C9  UNL     1       0.680   1.380  -0.003  1.00  0.00     0.124 C 
ATOM     18  H4  UNL     1       0.311  -0.359   0.861  1.00  0.00     0.186 HD
BRANCH  17  19
HETATM   19  C10 UNL     1       2.049   0.967  -0.333  1.00  0.00     0.057 A 
HETATM   20  C11 UNL     1       2.542  -0.263   0.023  1.00  0.00     0.033 A 
HETATM   21  C12 UNL     1       3.856  -0.576  -0.327  1.00  0.00    -0.001 A 
HETATM   22  C13 UNL     1       4.398  -1.800   0.009  1.00  0.00     0.014 A 
HETATM   23  C17 UNL     1       4.644   0.330  -1.015  1.00  0.00     0.089 A 
HETATM   24  C14 UNL     1       5.686  -2.183  -0.300  1.00  0.00     0.001 A 
HETATM   25  C15 UNL     1       6.462  -1.267  -0.989  1.00  0.00     0.003 A 
HETATM   26  C16 UNL     1       5.938  -0.044  -1.330  1.00  0.00     0.038 A 
HETATM   27  O1  UNL     1       4.135   1.479  -1.328  1.00  0.00    -0.274 OA
HETATM   28  C18 UNL     1       2.894   1.826  -1.021  1.00  0.00     0.300 A 
HETATM   29  O2  UNL     1       2.416   2.954  -1.337  1.00  0.00    -0.259 OA
ENDBRANCH  17  19
ENDBRANCH   1  16
TORSDOF 4
