REMARK  4 active torsions:
REMARK  status: ('A' for Active; 'I' for Inactive)
REMARK    1  A    between atoms: O1_2  and  C2_3 
REMARK    2  A    between atoms: C3_4  and  O2_5 
REMARK    3  A    between atoms: C4_7  and  C5_8 
REMARK    4  A    between atoms: C5_8  and  O3_11 
ROOT
HETATM    1  C2  UNL     1      -0.339   0.671  -1.363  1.00  0.00     0.129 A 
HETATM    2  C3  UNL     1       0.988   0.353  -1.321  1.00  0.00     0.111 A 
HETATM    3  C4  UNL     1       1.607  -0.297  -0.227  1.00  0.00     0.018 A 
HETATM    4  C9  UNL     1       0.756  -0.595   0.802  1.00  0.00    -0.034 A 
HETATM    5  C10 UNL     1       1.091  -1.454   1.981  1.00  0.00     0.050 C 
HETATM    6  C11 UNL     1      -0.621  -0.273   0.788  1.00  0.00     0.046 A 
HETATM    7  C12 UNL     1      -1.162   0.367  -0.315  1.00  0.00     0.080 A 
HETATM    8  N1  UNL     1      -2.549   0.672  -0.289  1.00  0.00    -0.378 N 
ATOM      9  H1  UNL     1      -2.879   1.402  -0.921  1.00  0.00     0.160 HD
HETATM   10  C13 UNL     1      -3.526   0.039   0.552  1.00  0.00     0.030 C 
HETATM   11  C14 UNL     1      -4.394   1.084   1.229  1.00  0.00     0.038 C 
HETATM   12  C15 UNL     1      -4.373  -0.837  -0.370  1.00  0.00     0.038 C 
HETATM   13  C16 UNL     1      -2.947  -0.828   1.641  1.00  0.00     0.114 C 
HETATM   14  C17 UNL     1      -1.520  -0.530   1.895  1.00  0.00     0.164 C 
HETATM   15  O4  UNL     1      -1.091  -0.498   3.059  1.00  0.00    -0.292 OA
ENDROOT
BRANCH   3  16
HETATM   16  C5  UNL     1       3.000  -0.652  -0.284  1.00  0.00     0.083 C 
HETATM   17  C6  UNL     1       3.220  -1.735  -1.408  1.00  0.00     0.051 C 
HETATM   18  C7  UNL     1       3.911   0.473  -0.793  1.00  0.00     0.051 C 
BRANCH  16  19
HETATM   19  O3  UNL     1       3.683  -1.146   0.779  1.00  0.00    -0.381 OA
HETATM   20  C8  UNL     1       4.129  -0.211   1.711  1.00  0.00     0.203 C 
ENDBRANCH  16  19
ENDBRANCH   3  16
BRANCH   2  21
HETATM   21  O2  UNL     1       1.739   0.692  -2.412  1.00  0.00    -0.357 OA
ATOM     22  H2  UNL     1       2.662   0.471  -2.383  1.00  0.00     0.217 HD
ENDBRANCH   2  21
BRANCH   1  23
HETATM   23  O1  UNL     1      -0.890   1.308  -2.464  1.00  0.00    -0.351 OA
HETATM   24  C1  UNL     1      -0.967   2.701  -2.601  1.00  0.00     0.210 C 
ENDBRANCH   1  23
TORSDOF 4
