REMARK  3 active torsions:
REMARK  status: ('A' for Active; 'I' for Inactive)
REMARK    1  A    between atoms: C6_6  and  N1_7 
REMARK       I    between atoms: N1_7  and  C7_9 
REMARK    2  A    between atoms: C7_9  and  C8_11 
REMARK    3  A    between atoms: N2_15  and  C10_16 
ROOT
HETATM    1  C8  UNL     1       0.510   0.097  -0.033  1.00  0.00     0.188 A 
HETATM    2  O2  UNL     1       0.710   1.147  -0.810  1.00  0.00    -0.275 OA
HETATM    3  C9  UNL     1       1.985   1.322  -1.033  1.00  0.00     0.228 A 
HETATM    4  S1  UNL     1       2.608   2.526  -1.953  1.00  0.00    -0.032 SA
HETATM    5  N2  UNL     1       2.689   0.366  -0.392  1.00  0.00    -0.268 N 
HETATM    6  C16 UNL     1       1.774  -0.391   0.225  1.00  0.00     0.166 A 
HETATM    7  N3  UNL     1       2.078  -1.515   1.018  1.00  0.00    -0.079 NA
ENDROOT
BRANCH   1   8
HETATM    8  C7  UNL     1      -0.792  -0.420   0.440  1.00  0.00     0.283 C 
HETATM    9  N1  UNL     1      -1.952   0.231   0.055  1.00  0.00    -0.321 N 
ATOM     10  H1  UNL     1      -1.844   1.051  -0.542  1.00  0.00     0.169 HD
HETATM   11  O1  UNL     1      -0.757  -1.418   1.161  1.00  0.00    -0.265 OA
BRANCH   9  12
HETATM   12  C6  UNL     1      -3.275  -0.133   0.412  1.00  0.00     0.035 A 
HETATM   13  C5  UNL     1      -3.673  -1.302   0.994  1.00  0.00     0.029 A 
HETATM   14  C4  UNL     1      -5.005  -1.581   1.333  1.00  0.00     0.003 A 
HETATM   15  C3  UNL     1      -5.981  -0.662   1.085  1.00  0.00     0.007 A 
HETATM   16  C2  UNL     1      -5.617   0.527   0.499  1.00  0.00    -0.060 A 
HETATM   17  C1  UNL     1      -6.655   1.575   0.203  1.00  0.00     0.048 C 
HETATM   18  C17 UNL     1      -4.313   0.790   0.171  1.00  0.00     0.036 A 
ENDBRANCH   9  12
ENDBRANCH   1   8
BRANCH   5  19
HETATM   19  C10 UNL     1       4.102   0.192  -0.372  1.00  0.00     0.043 A 
HETATM   20  C11 UNL     1       4.768  -0.324  -1.469  1.00  0.00     0.030 A 
HETATM   21  C12 UNL     1       6.134  -0.497  -1.462  1.00  0.00     0.002 A 
HETATM   22  C13 UNL     1       6.893  -0.161  -0.357  1.00  0.00     0.000 A 
HETATM   23  C14 UNL     1       6.248   0.353   0.746  1.00  0.00     0.002 A 
HETATM   24  C15 UNL     1       4.877   0.520   0.722  1.00  0.00     0.030 A 
ENDBRANCH   5  19
TORSDOF 3
