REMARK  4 active torsions:
REMARK  status: ('A' for Active; 'I' for Inactive)
REMARK    1  A    between atoms: C3_5  and  C4_6 
REMARK    2  A    between atoms: C7_9  and  N2_10 
REMARK    3  A    between atoms: C10_15  and  C11_16 
REMARK       I    between atoms: C11_16  and  N3_18 
REMARK    4  A    between atoms: N3_18  and  C12_20 
ROOT
HETATM    1  N1  UNL     1      -1.112  -3.978  -2.068  1.00  0.00    -0.093 NA
HETATM    2  C1  UNL     1       0.127  -3.281  -1.795  1.00  0.00     0.103 A 
HETATM    3  S1  UNL     1       1.703  -3.733  -2.209  1.00  0.00    -0.085 SA
HETATM    4  C2  UNL     1       2.548  -2.438  -1.553  1.00  0.00     0.065 A 
HETATM    5  C3  UNL     1       1.554  -1.632  -0.997  1.00  0.00    -0.001 A 
HETATM    6  C10 UNL     1       0.275  -2.056  -1.108  1.00  0.00     0.075 A 
ENDROOT
BRANCH   6   7
HETATM    7  C11 UNL     1      -0.946  -1.387  -0.606  1.00  0.00     0.259 C 
HETATM    8  O3  UNL     1      -2.060  -1.903  -0.977  1.00  0.00    -0.267 OA
HETATM    9  N3  UNL     1      -1.003  -0.269   0.227  1.00  0.00    -0.323 N 
ATOM     10  H3  UNL     1      -0.130   0.154   0.541  1.00  0.00     0.169 HD
BRANCH   9  11
HETATM   11  C12 UNL     1      -2.255   0.312   0.662  1.00  0.00     0.035 A 
HETATM   12  C13 UNL     1      -2.310   1.679   0.831  1.00  0.00     0.029 A 
HETATM   13  C14 UNL     1      -3.453   2.311   1.273  1.00  0.00     0.002 A 
HETATM   14  C15 UNL     1      -4.562   1.543   1.551  1.00  0.00     0.000 A 
HETATM   15  C16 UNL     1      -4.493   0.183   1.379  1.00  0.00     0.002 A 
HETATM   16  C17 UNL     1      -3.335  -0.468   0.930  1.00  0.00     0.029 A 
ENDBRANCH   9  11
ENDBRANCH   6   7
BRANCH   5  17
HETATM   17  C4  UNL     1       2.075  -0.323  -0.453  1.00  0.00    -0.024 A 
HETATM   18  C5  UNL     1       2.811  -0.276   0.704  1.00  0.00     0.015 A 
HETATM   19  C6  UNL     1       3.362   0.899   1.160  1.00  0.00     0.037 A 
HETATM   20  C7  UNL     1       3.188   2.071   0.460  1.00  0.00     0.102 A 
HETATM   21  C8  UNL     1       2.448   2.021  -0.702  1.00  0.00     0.037 A 
HETATM   22  C9  UNL     1       1.893   0.848  -1.165  1.00  0.00     0.015 A 
BRANCH  20  23
HETATM   23  N2  UNL     1       3.763   3.274   0.946  1.00  0.00    -0.116 N 
HETATM   24  O1  UNL     1       4.423   3.267   2.001  1.00  0.00    -0.532 OA
HETATM   25  O2  UNL     1       3.623   4.473   0.293  1.00  0.00    -0.532 OA
ENDBRANCH  20  23
ENDBRANCH   5  17
TORSDOF 4
