REMARK  1 active torsions:
REMARK  status: ('A' for Active; 'I' for Inactive)
REMARK    1  A    between atoms: C3_4  and  C4_5 
ROOT
HETATM    1  F1  UNL     1       2.238   1.196   1.749  1.00  0.00    -0.244 F 
HETATM    2  C1  UNL     1       2.569  -0.079   1.427  1.00  0.00     0.208 C 
HETATM    3  C2  UNL     1       1.498  -0.869   0.752  1.00  0.00     0.049 C 
HETATM    4  C3  UNL     1       0.773  -0.279  -0.380  1.00  0.00     0.015 C 
HETATM    5  C14 UNL     1       1.404   0.878  -1.099  1.00  0.00     0.126 C 
HETATM    6  N1  UNL     1       2.715   0.505  -1.622  1.00  0.00    -0.374 N 
ATOM      7  H1  UNL     1       2.853   0.493  -2.633  1.00  0.00     0.161 HD
HETATM    8  C15 UNL     1       3.822   0.153  -0.771  1.00  0.00     0.126 A 
HETATM    9  N2  UNL     1       5.108   0.024  -1.187  1.00  0.00    -0.286 N 
ATOM     10  H2  UNL     1       5.446   0.158  -2.140  1.00  0.00     0.188 HD
HETATM   11  N3  UNL     1       5.852  -0.308  -0.132  1.00  0.00    -0.310 N 
ATOM     12  H3  UNL     1       6.859  -0.468  -0.159  1.00  0.00     0.186 HD
HETATM   13  C16 UNL     1       5.087  -0.403   0.978  1.00  0.00     0.121 A 
HETATM   14  C17 UNL     1       3.820  -0.116   0.585  1.00  0.00     0.037 A 
ENDROOT
BRANCH   4  15
HETATM   15  C4  UNL     1      -0.706  -0.060  -0.117  1.00  0.00    -0.034 C 
HETATM   16  C5  UNL     1      -0.998   0.832   1.037  1.00  0.00     0.014 C 
HETATM   17  C6  UNL     1      -2.499   0.883   1.217  1.00  0.00    -0.013 C 
HETATM   18  C7  UNL     1      -3.175   1.524   0.039  1.00  0.00     0.009 C 
HETATM   19  C11 UNL     1      -3.114  -0.473   1.420  1.00  0.00     0.009 C 
HETATM   20  C8  UNL     1      -2.837   0.693  -1.182  1.00  0.00    -0.013 C 
HETATM   21  C9  UNL     1      -3.404  -0.681  -1.060  1.00  0.00     0.009 C 
HETATM   22  C13 UNL     1      -1.331   0.602  -1.339  1.00  0.00     0.014 C 
HETATM   23  C10 UNL     1      -2.851  -1.313   0.193  1.00  0.00    -0.013 C 
HETATM   24  C12 UNL     1      -1.349  -1.419   0.052  1.00  0.00     0.014 C 
ENDBRANCH   4  15
TORSDOF 1
