REMARK  9 active torsions:
REMARK  status: ('A' for Active; 'I' for Inactive)
REMARK    1  A    between atoms: N1_2  and  C4_5 
REMARK    2  A    between atoms: N2_8  and  C7_9 
REMARK    3  A    between atoms: C7_9  and  O1_10 
REMARK    4  A    between atoms: C7_9  and  C8_12 
REMARK    5  A    between atoms: C8_12  and  C9_13 
REMARK    6  A    between atoms: C9_13  and  C10_14 
REMARK    7  A    between atoms: C11_15  and  C12_16 
REMARK    8  A    between atoms: C18_23  and  C19_24 
REMARK    9  A    between atoms: C19_24  and  O2_25 
ROOT
HETATM    1  C7  UNL     1      -0.713   0.208   0.724  1.00  0.00     0.358 C 
ENDROOT
BRANCH   1   2
HETATM    2  N2  UNL     1       0.610   0.664   0.299  1.00  0.00     0.123 N 
HETATM    3  C6  UNL     1       1.444   0.635   1.492  1.00  0.00     0.278 C 
HETATM    4  C5  UNL     1       2.840   1.115   1.229  1.00  0.00     0.064 C 
HETATM    5  C4  UNL     1       3.494   0.398   0.074  1.00  0.00     0.193 C 
HETATM    6  C20 UNL     1       2.560  -0.642  -0.450  1.00  0.00     0.071 C 
HETATM    7  C18 UNL     1       1.170  -0.110  -0.766  1.00  0.00     0.251 C 
BRANCH   5   8
HETATM    8  N1  UNL     1       4.716  -0.268   0.480  1.00  0.00    -0.074 N 
HETATM    9  C1  UNL     1       4.450  -1.445   1.266  1.00  0.00     0.272 C 
HETATM   10  C2  UNL     1       5.472  -0.594  -0.695  1.00  0.00     0.272 C 
HETATM   11  C3  UNL     1       5.531   0.620   1.306  1.00  0.00     0.272 C 
ENDBRANCH   5   8
BRANCH   7  12
HETATM   12  C19 UNL     1       1.340   0.770  -2.000  1.00  0.00     0.200 C 
BRANCH  12  13
HETATM   13  O2  UNL     1       1.891   0.009  -3.049  1.00  0.00    -0.399 OA
ATOM     14  H2  UNL     1       1.997   0.557  -3.818  1.00  0.00     0.209 HD
ENDBRANCH  12  13
ENDBRANCH   7  12
ENDBRANCH   1   2
BRANCH   1  15
HETATM   15  O1  UNL     1      -0.529  -1.166   1.002  1.00  0.00    -0.368 OA
ATOM     16  H1  UNL     1      -1.388  -1.462   1.278  1.00  0.00     0.212 HD
ENDBRANCH   1  15
BRANCH   1  17
HETATM   17  C8  UNL     1      -1.662   0.369  -0.408  1.00  0.00     0.086 C 
BRANCH  17  18
HETATM   18  C9  UNL     1      -3.072  -0.038  -0.158  1.00  0.00     0.028 C 
HETATM   19  C13 UNL     1      -3.850   0.319  -1.435  1.00  0.00     0.023 C 
HETATM   20  C14 UNL     1      -5.316   0.073  -1.299  1.00  0.00     0.002 C 
HETATM   21  C15 UNL     1      -5.578  -1.375  -0.950  1.00  0.00     0.000 C 
HETATM   22  C16 UNL     1      -4.809  -1.700   0.287  1.00  0.00     0.002 C 
HETATM   23  C17 UNL     1      -3.307  -1.485   0.095  1.00  0.00     0.023 C 
BRANCH  18  24
HETATM   24  C10 UNL     1      -3.636   0.761   0.952  1.00  0.00    -0.096 C 
HETATM   25  C11 UNL     1      -4.096   1.426   1.841  1.00  0.00    -0.095 C 
BRANCH  25  26
HETATM   26  C12 UNL     1      -4.656   2.259   2.929  1.00  0.00     0.178 C 
HETATM   27 BR1  UNL     1      -3.544   1.973   4.476  1.00  0.00    -0.083 Br
ENDBRANCH  25  26
ENDBRANCH  18  24
ENDBRANCH  17  18
ENDBRANCH   1  17
TORSDOF 9
