REMARK  5 active torsions:
REMARK  status: ('A' for Active; 'I' for Inactive)
REMARK    1  A    between atoms: C2_2  and  C3_3 
REMARK    2  A    between atoms: C2_2  and  C4_5 
REMARK    3  A    between atoms: C4_5  and  N1_6 
REMARK    4  A    between atoms: C4_5  and  C16_20 
REMARK       I    between atoms: N1_6  and  C5_8 
REMARK    5  A    between atoms: C5_8  and  C6_10 
REMARK       I    between atoms: C16_20  and  N2_22 
REMARK       I    between atoms: N3_25  and  C19_26 
ROOT
HETATM    1  C4  UNL     1       0.787  -0.795  -0.358  1.00  0.00     0.181 C 
ENDROOT
BRANCH   1   2
HETATM    2  C2  UNL     1       1.017  -2.274  -0.495  1.00  0.00     0.027 C 
HETATM    3  C1  UNL     1      -0.006  -2.836  -1.461  1.00  0.00     0.014 C 
BRANCH   2   4
HETATM    4  C3  UNL     1       1.181  -3.046   0.758  1.00  0.00     0.121 C 
HETATM    5 CL1  UNL     1      -0.254  -3.230   1.753  1.00  0.00    -0.130 Cl
ENDBRANCH   2   4
ENDBRANCH   1   2
BRANCH   1   6
HETATM    6  N1  UNL     1      -0.567  -0.534   0.127  1.00  0.00    -0.347 N 
HETATM    7  C5  UNL     1      -1.561   0.068  -0.692  1.00  0.00     0.227 C 
HETATM    8  O1  UNL     1      -1.223   0.371  -1.865  1.00  0.00    -0.273 OA
ATOM      9  H1  UNL     1      -0.806  -0.792   1.084  1.00  0.00     0.163 HD
BRANCH   7  10
HETATM   10  C6  UNL     1      -2.926   0.346  -0.245  1.00  0.00     0.042 C 
HETATM   11  C7  UNL     1      -3.601  -0.969   0.168  1.00  0.00     0.024 C 
HETATM   12  C8  UNL     1      -5.021  -0.720   0.584  1.00  0.00    -0.013 C 
HETATM   13  C9  UNL     1      -5.099   0.255   1.737  1.00  0.00     0.009 C 
HETATM   14  C13 UNL     1      -5.779  -0.183  -0.601  1.00  0.00     0.009 C 
HETATM   15  C10 UNL     1      -4.402   1.522   1.308  1.00  0.00    -0.013 C 
HETATM   16  C11 UNL     1      -5.174   2.110   0.153  1.00  0.00     0.009 C 
HETATM   17  C15 UNL     1      -2.972   1.243   0.974  1.00  0.00     0.024 C 
HETATM   18  C12 UNL     1      -5.178   1.130  -0.996  1.00  0.00    -0.013 C 
HETATM   19  C14 UNL     1      -3.732   0.893  -1.383  1.00  0.00     0.024 C 
ENDBRANCH   7  10
ENDBRANCH   1   6
BRANCH   1  20
HETATM   20  C16 UNL     1       1.752  -0.246   0.623  1.00  0.00     0.243 C 
HETATM   21  O2  UNL     1       1.252   0.127   1.761  1.00  0.00    -0.271 OA
HETATM   22  N2  UNL     1       3.135  -0.109   0.395  1.00  0.00    -0.347 N 
HETATM   23  C17 UNL     1       3.734  -0.441  -0.841  1.00  0.00     0.145 C 
HETATM   24  C21 UNL     1       3.957   0.388   1.491  1.00  0.00     0.145 C 
HETATM   25  C18 UNL     1       4.903   0.443  -1.219  1.00  0.00     0.145 C 
HETATM   26  N3  UNL     1       5.491   1.149  -0.133  1.00  0.00    -0.353 N 
HETATM   27  C19 UNL     1       6.881   1.406  -0.125  1.00  0.00     0.184 C 
HETATM   28  C20 UNL     1       4.682   1.611   0.969  1.00  0.00     0.145 C 
HETATM   29  N4  UNL     1       7.776   0.584   0.299  1.00  0.00    -0.374 N 
HETATM   30  N5  UNL     1       7.328   2.663  -0.621  1.00  0.00    -0.064 NA
ATOM     31  H42 UNL     1       7.456  -0.317   0.654  1.00  0.00     0.158 HD
ATOM     32  H41 UNL     1       8.779   0.769   0.305  1.00  0.00     0.158 HD
ENDBRANCH   1  20
TORSDOF 5
