REMARK  3 active torsions:
REMARK  status: ('A' for Active; 'I' for Inactive)
REMARK    1  A    between atoms: C4_5  and  C5_6 
REMARK    2  A    between atoms: C11_12  and  C12_13 
REMARK    3  A    between atoms: C12_13  and  N1_14 
ROOT
HETATM    1  C5  UNL     1      -0.451   0.534  -0.262  1.00  0.00    -0.006 C 
HETATM    2  C6  UNL     1      -1.030   1.387  -1.335  1.00  0.00     0.018 C 
HETATM    3  C7  UNL     1       0.443   1.748  -1.566  1.00  0.00    -0.008 C 
HETATM    4  C8  UNL     1       0.703   2.519  -0.286  1.00  0.00     0.010 C 
HETATM    5  C9  UNL     1       0.227   1.491   0.708  1.00  0.00    -0.002 C 
HETATM    6  C10 UNL     1       1.371   0.612   1.124  1.00  0.00     0.012 C 
HETATM    7  C11 UNL     1       1.972   0.342  -0.243  1.00  0.00     0.007 C 
HETATM    8  C13 UNL     1       0.739   0.321  -1.142  1.00  0.00     0.006 C 
ENDROOT
BRANCH   1   9
HETATM    9  C4  UNL     1      -1.211  -0.525   0.371  1.00  0.00     0.134 C 
HETATM   10  C3  UNL     1      -1.935  -1.506  -0.477  1.00  0.00     0.038 C 
HETATM   11  C2  UNL     1      -2.907  -2.065   0.578  1.00  0.00     0.068 C 
HETATM   12  C1  UNL     1      -3.242  -0.787   1.309  1.00  0.00     0.307 C 
HETATM   13  F1  UNL     1      -4.335  -0.231   0.669  1.00  0.00    -0.220 F 
HETATM   14  O1  UNL     1      -2.194   0.097   1.149  1.00  0.00    -0.351 OA
ENDBRANCH   1   9
BRANCH   7  15
HETATM   15  C12 UNL     1       2.725  -0.993  -0.325  1.00  0.00     0.134 C 
BRANCH  15  16
HETATM   16  N1  UNL     1       3.655  -1.111   0.791  1.00  0.00    -0.143 NA
HETATM   17 CL1  UNL     1       5.305  -1.288   0.335  1.00  0.00    -0.004 Cl
ENDBRANCH  15  16
ENDBRANCH   7  15
TORSDOF 3
