REMARK  4 active torsions:
REMARK  status: ('A' for Active; 'I' for Inactive)
REMARK    1  A    between atoms: O1_1  and  C1_3 
REMARK    2  A    between atoms: C1_3  and  C2_4 
REMARK    3  A    between atoms: C1_3  and  C11_15 
REMARK    4  A    between atoms: C2_4  and  C3_5 
ROOT
HETATM    1  C3  UNL     1      -1.107   0.280  -0.378  1.00  0.00     0.065 C 
HETATM    2  C4  UNL     1      -2.170   0.970   0.502  1.00  0.00    -0.004 C 
HETATM    3  C5  UNL     1      -2.479   0.214   1.745  1.00  0.00     0.005 C 
HETATM    4  C6  UNL     1      -3.721  -0.607   1.474  1.00  0.00     0.005 C 
HETATM    5  C7  UNL     1      -3.814  -0.556  -0.036  1.00  0.00    -0.009 C 
HETATM    6  C8  UNL     1      -3.447   0.891  -0.305  1.00  0.00     0.010 C 
HETATM    7  C9  UNL     1      -2.852  -1.526  -0.600  1.00  0.00     0.084 C 
HETATM    8  C10 UNL     1      -1.401  -1.144  -0.575  1.00  0.00     0.248 C 
HETATM    9  F1  UNL     1      -0.850  -1.616  -1.771  1.00  0.00    -0.206 F 
HETATM   10  F2  UNL     1      -0.822  -1.881   0.439  1.00  0.00    -0.206 F 
ENDROOT
BRANCH   1  11
HETATM   11  C2  UNL     1       0.246   0.667   0.116  1.00  0.00     0.045 C 
BRANCH  11  12
HETATM   12  C1  UNL     1       1.430   0.152  -0.587  1.00  0.00     0.147 C 
BRANCH  12  13
HETATM   13  O1  UNL     1       1.656  -1.184  -0.653  1.00  0.00    -0.393 OA
ATOM     14  H1  UNL     1       2.421  -1.517  -1.107  1.00  0.00     0.210 HD
ENDBRANCH  12  13
BRANCH  12  15
HETATM   15  C11 UNL     1       2.725   0.802  -0.110  1.00  0.00     0.150 C 
HETATM   16  C12 UNL     1       3.852   0.507  -1.075  1.00  0.00     0.036 C 
HETATM   17  C13 UNL     1       5.024   0.509  -0.082  1.00  0.00     0.029 C 
HETATM   18  C14 UNL     1       4.360  -0.195   1.082  1.00  0.00     0.168 C 
HETATM   19  O2  UNL     1       3.103   0.341   1.120  1.00  0.00    -0.383 OA
ENDBRANCH  12  15
ENDBRANCH  11  12
ENDBRANCH   1  11
TORSDOF 4
