REMARK  10 active torsions:
REMARK  status: ('A' for Active; 'I' for Inactive)
REMARK    1  A    between atoms: C2_2  and  C4_4 
REMARK    2  A    between atoms: C4_4  and  O1_5 
REMARK    3  A    between atoms: C4_4  and  C5_7 
REMARK    4  A    between atoms: C5_7  and  C7_9 
REMARK    5  A    between atoms: C7_9  and  O2_10 
REMARK    6  A    between atoms: C7_9  and  C8_12 
REMARK    7  A    between atoms: C10_14  and  O3_15 
REMARK    8  A    between atoms: C21_27  and  O4_28 
REMARK    9  A    between atoms: O4_28  and  C22_29 
REMARK   10  A    between atoms: C22_29  and  C23_31 
ROOT
HETATM    1  C8  UNL     1       2.209  -0.121  -0.421  1.00  0.00     0.017 C 
HETATM    2  C9  UNL     1       1.659  -1.491  -0.651  1.00  0.00     0.039 C 
HETATM    3  C10 UNL     1       0.227  -1.496  -1.036  1.00  0.00     0.127 C 
HETATM    4  C11 UNL     1      -0.641  -0.453  -0.377  1.00  0.00    -0.008 C 
HETATM    5  C12 UNL     1      -1.043   0.517  -1.477  1.00  0.00     0.019 C 
HETATM    6  C13 UNL     1       0.024   0.294   0.752  1.00  0.00    -0.003 C 
HETATM    7  C14 UNL     1       1.480   0.428   0.753  1.00  0.00     0.012 C 
HETATM    8  C15 UNL     1      -0.523  -0.332   2.047  1.00  0.00     0.010 C 
HETATM    9  C16 UNL     1      -1.958  -0.378   1.622  1.00  0.00    -0.006 C 
HETATM   10  C17 UNL     1      -2.850  -1.336   2.278  1.00  0.00     0.016 C 
HETATM   11  C18 UNL     1      -3.692  -1.875   1.131  1.00  0.00    -0.020 C 
HETATM   12  C19 UNL     1      -5.144  -1.605   1.288  1.00  0.00     0.017 C 
HETATM   13  C20 UNL     1      -3.383  -3.330   0.970  1.00  0.00     0.017 C 
HETATM   14  C21 UNL     1      -3.119  -1.173  -0.151  1.00  0.00     0.145 C 
HETATM   15  C29 UNL     1      -1.742  -1.131   0.291  1.00  0.00     0.031 C 
ENDROOT
BRANCH   1  16
HETATM   16  C7  UNL     1       3.695  -0.288  -0.022  1.00  0.00     0.128 C 
BRANCH  16  17
HETATM   17  C5  UNL     1       4.333   1.011   0.220  1.00  0.00     0.040 C 
HETATM   18  C6  UNL     1       4.240   1.998  -0.930  1.00  0.00     0.015 C 
BRANCH  17  19
HETATM   19  C4  UNL     1       5.759   0.965   0.663  1.00  0.00     0.127 C 
BRANCH  19  20
HETATM   20  C2  UNL     1       6.784   0.574  -0.353  1.00  0.00     0.006 C 
HETATM   21  C1  UNL     1       8.200   0.846   0.223  1.00  0.00     0.012 C 
HETATM   22  C3  UNL     1       6.786  -0.932  -0.553  1.00  0.00     0.012 C 
ENDBRANCH  19  20
BRANCH  19  23
HETATM   23  O1  UNL     1       6.090   2.370   0.926  1.00  0.00    -0.395 OA
ATOM     24  H1  UNL     1       5.439   2.618   1.572  1.00  0.00     0.210 HD
ENDBRANCH  19  23
ENDBRANCH  17  19
ENDBRANCH  16  17
BRANCH  16  25
HETATM   25  O2  UNL     1       3.668  -1.084   1.127  1.00  0.00    -0.395 OA
ATOM     26  H2  UNL     1       3.255  -1.925   0.970  1.00  0.00     0.210 HD
ENDBRANCH  16  25
ENDBRANCH   1  16
BRANCH   3  27
HETATM   27  O3  UNL     1      -0.229  -2.811  -0.777  1.00  0.00    -0.395 OA
ATOM     28  H3  UNL     1      -1.146  -2.814  -1.024  1.00  0.00     0.210 HD
ENDBRANCH   3  27
BRANCH  14  29
HETATM   29  O4  UNL     1      -3.870   0.021  -0.209  1.00  0.00    -0.311 OA
BRANCH  29  30
HETATM   30  C22 UNL     1      -4.791   0.194  -1.233  1.00  0.00     0.295 C 
HETATM   31  O5  UNL     1      -4.859  -0.789  -2.056  1.00  0.00    -0.259 OA
BRANCH  30  32
HETATM   32  C23 UNL     1      -5.647   1.320  -1.458  1.00  0.00     0.061 A 
HETATM   33  C24 UNL     1      -6.623   1.228  -2.450  1.00  0.00     0.019 A 
HETATM   34  C25 UNL     1      -7.490   2.258  -2.724  1.00  0.00     0.001 A 
HETATM   35  C26 UNL     1      -7.422   3.441  -2.012  1.00  0.00     0.002 A 
HETATM   36  C27 UNL     1      -6.466   3.569  -1.020  1.00  0.00     0.025 A 
HETATM   37  C28 UNL     1      -5.607   2.500  -0.774  1.00  0.00     0.050 A 
HETATM   38 CL1  UNL     1      -4.422   2.682   0.499  1.00  0.00    -0.083 Cl
ENDBRANCH  30  32
ENDBRANCH  29  30
ENDBRANCH  14  29
TORSDOF 10
