REMARK  8 active torsions:
REMARK  status: ('A' for Active; 'I' for Inactive)
REMARK    1  A    between atoms: C2_2  and  C3_3 
REMARK    2  A    between atoms: C3_3  and  O1_4 
REMARK    3  A    between atoms: C3_3  and  N1_6 
REMARK    4  A    between atoms: C14_18  and  C15_19 
REMARK       I    between atoms: C15_19  and  N2_21 
REMARK    5  A    between atoms: C19_26  and  C20_27 
REMARK       I    between atoms: C20_27  and  N3_29 
REMARK    6  A    between atoms: C24_33  and  C25_34 
REMARK       I    between atoms: C25_34  and  N4_36 
REMARK    7  A    between atoms: N4_36  and  C26_38 
REMARK    8  A    between atoms: C26_38  and  C27_39 
ROOT
HETATM    1  C15 UNL     1      -0.938   0.325  -0.637  1.00  0.00     0.244 C 
HETATM    2  O2  UNL     1      -0.341  -0.527  -1.397  1.00  0.00    -0.271 OA
HETATM    3  N2  UNL     1       0.016   1.141   0.028  1.00  0.00    -0.334 N 
HETATM    4  C16 UNL     1      -0.321   2.307   0.822  1.00  0.00     0.130 C 
HETATM    5  C17 UNL     1       0.821   3.279   0.413  1.00  0.00     0.060 C 
HETATM    6  C18 UNL     1       1.966   2.289   0.693  1.00  0.00     0.203 C 
HETATM    7  F2  UNL     1       2.057   2.289   2.086  1.00  0.00    -0.247 F 
HETATM    8  C19 UNL     1       1.477   1.012   0.135  1.00  0.00     0.213 C 
ENDROOT
BRANCH   1   9
HETATM    9  C14 UNL     1      -2.407   0.383  -0.519  1.00  0.00     0.190 C 
HETATM   10  N1  UNL     1      -3.052   1.409  -1.309  1.00  0.00    -0.350 N 
HETATM   11  C4  UNL     1      -2.749   1.197  -2.771  1.00  0.00     0.125 C 
HETATM   12  C5  UNL     1      -3.568  -0.022  -3.150  1.00  0.00     0.021 C 
HETATM   13  C6  UNL     1      -4.201  -0.600  -1.882  1.00  0.00     0.017 C 
HETATM   14  C7  UNL     1      -3.125  -0.913  -0.824  1.00  0.00     0.025 C 
HETATM   15  C8  UNL     1      -2.331  -2.024  -1.391  1.00  0.00     0.015 C 
HETATM   16  C12 UNL     1      -3.863  -1.423   0.386  1.00  0.00     0.110 C 
HETATM   17  C9  UNL     1      -3.201  -3.233  -1.711  1.00  0.00     0.001 C 
HETATM   18  C10 UNL     1      -4.059  -3.679  -0.590  1.00  0.00     0.003 C 
HETATM   19  C11 UNL     1      -4.762  -2.585   0.129  1.00  0.00     0.044 C 
HETATM   20  C13 UNL     1      -2.944  -1.789   1.530  1.00  0.00     0.053 C 
HETATM   21  F1  UNL     1      -4.674  -0.387   0.866  1.00  0.00    -0.242 F 
BRANCH  10  22
HETATM   22  C3  UNL     1      -3.850   2.491  -1.025  1.00  0.00     0.122 C 
BRANCH  22  23
HETATM   23  C2  UNL     1      -4.500   3.020   0.166  1.00  0.00     0.021 A 
HETATM   24  C1  UNL     1      -6.054   3.086   0.009  1.00  0.00     0.024 C 
HETATM   25  C30 UNL     1      -3.918   4.372   0.609  1.00  0.00     0.018 A 
HETATM   26  C31 UNL     1      -4.015   3.166   1.515  1.00  0.00     0.018 A 
ENDBRANCH  22  23
BRANCH  22  27
HETATM   27  O1  UNL     1      -4.105   3.255  -2.063  1.00  0.00    -0.349 OA
ATOM     28  H1  UNL     1      -3.681   2.910  -2.840  1.00  0.00     0.219 HD
ENDBRANCH  22  27
ENDBRANCH  10  22
ENDBRANCH   1   9
BRANCH   8  29
HETATM   29  C20 UNL     1       1.856  -0.200   0.880  1.00  0.00     0.246 C 
HETATM   30  O3  UNL     1       0.874  -1.036   1.041  1.00  0.00    -0.271 OA
HETATM   31  N3  UNL     1       3.060  -0.597   1.432  1.00  0.00    -0.337 N 
HETATM   32  C21 UNL     1       3.221  -1.923   2.123  1.00  0.00     0.127 C 
HETATM   33  C24 UNL     1       4.380  -0.047   1.615  1.00  0.00     0.179 C 
HETATM   34  C22 UNL     1       3.792  -1.437   3.455  1.00  0.00     0.022 C 
HETATM   35  C23 UNL     1       4.513  -0.148   3.151  1.00  0.00     0.037 C 
BRANCH  33  36
HETATM   36  C25 UNL     1       5.485  -0.775   0.987  1.00  0.00     0.240 C 
HETATM   37  O4  UNL     1       6.587  -0.768   1.656  1.00  0.00    -0.271 OA
HETATM   38  N4  UNL     1       5.468  -1.459  -0.241  1.00  0.00    -0.359 N 
ATOM     39  H4  UNL     1       4.615  -1.467  -0.799  1.00  0.00     0.162 HD
BRANCH  38  40
HETATM   40  C26 UNL     1       6.663  -2.163  -0.733  1.00  0.00     0.127 C 
BRANCH  40  41
HETATM   41  C27 UNL     1       7.856  -1.266  -0.859  1.00  0.00     0.003 A 
HETATM   42  C28 UNL     1       7.849  -0.087  -1.738  1.00  0.00     0.007 A 
HETATM   43  C29 UNL     1       8.715  -1.273  -2.086  1.00  0.00     0.007 A 
ENDBRANCH  40  41
ENDBRANCH  38  40
ENDBRANCH  33  36
ENDBRANCH   8  29
TORSDOF 8
