REMARK  15 active torsions:
REMARK  status: ('A' for Active; 'I' for Inactive)
REMARK    1  A    between atoms: C7_7  and  C8_8 
REMARK    2  A    between atoms: C8_8  and  C9_9 
REMARK    3  A    between atoms: C9_9  and  N1_10 
REMARK    4  A    between atoms: C9_9  and  C10_14 
REMARK    5  A    between atoms: C10_14  and  N2_15 
REMARK    6  A    between atoms: N2_15  and  C11_17 
REMARK    7  A    between atoms: C13_23  and  N5_24 
REMARK    8  A    between atoms: N5_24  and  C14_26 
REMARK    9  A    between atoms: C14_26  and  C15_27 
REMARK   10  A    between atoms: C15_27  and  C16_28 
REMARK   11  A    between atoms: C16_28  and  C17_29 
REMARK   12  A    between atoms: C17_29  and  C18_30 
REMARK   13  A    between atoms: C18_30  and  C19_31 
REMARK   14  A    between atoms: C19_31  and  C20_32 
REMARK   15  A    between atoms: C20_32  and  N6_33 
ROOT
HETATM    1  C11 UNL     1      -1.425   1.099   0.614  1.00  0.00     0.693 A 
HETATM    2  N3  UNL     1      -0.784   1.932   1.429  1.00  0.00    -0.187 N 
ATOM      3  H3  UNL     1      -1.340   2.574   1.994  1.00  0.00     0.185 HD
HETATM    4  C12 UNL     1       0.549   1.976   1.550  1.00  0.00     0.215 A 
HETATM    5  N4  UNL     1       1.254   1.112   0.785  1.00  0.00    -0.187 N 
ATOM      6  H4  UNL     1       2.273   1.103   0.836  1.00  0.00     0.185 HD
HETATM    7  C13 UNL     1       0.619   0.266  -0.041  1.00  0.00     0.693 A 
HETATM    8  N7  UNL     1      -0.718   0.233  -0.151  1.00  0.00    -0.022 N 
ATOM      9  H7  UNL     1      -1.183  -0.417  -0.785  1.00  0.00     0.203 HD
ENDROOT
BRANCH   1  10
HETATM   10  N2  UNL     1      -2.707   1.123   0.561  1.00  0.00    -0.224 N 
ATOM     11  H2  UNL     1      -3.206   0.487  -0.061  1.00  0.00     0.177 HD
BRANCH  10  12
HETATM   12  C10 UNL     1      -3.435   2.047   1.380  1.00  0.00     0.171 C 
BRANCH  12  13
HETATM   13  C9  UNL     1      -4.877   2.219   1.007  1.00  0.00     0.206 C 
BRANCH  13  14
HETATM   14  C8  UNL     1      -5.717   0.999   1.079  1.00  0.00     0.073 C 
BRANCH  14  15
HETATM   15  C7  UNL     1      -5.359  -0.104   0.167  1.00  0.00    -0.050 A 
HETATM   16  C5  UNL     1      -5.661   0.031  -1.172  1.00  0.00    -0.056 A 
HETATM   17  C4  UNL     1      -5.337  -1.019  -2.005  1.00  0.00     0.008 A 
HETATM   18  C6  UNL     1      -6.321   1.269  -1.720  1.00  0.00     0.049 C 
HETATM   19  C3  UNL     1      -4.734  -2.168  -1.537  1.00  0.00     0.007 A 
HETATM   20  C2  UNL     1      -4.424  -2.320  -0.199  1.00  0.00    -0.061 A 
HETATM   21  C1  UNL     1      -3.773  -3.558   0.317  1.00  0.00     0.048 C 
HETATM   22  C21 UNL     1      -4.746  -1.274   0.636  1.00  0.00     0.014 A 
ENDBRANCH  14  15
ENDBRANCH  13  14
BRANCH  13  23
HETATM   23  N1  UNL     1      -5.433   3.162   2.000  1.00  0.00    -0.073 N 
ATOM     24  H13 UNL     1      -6.428   3.346   1.871  1.00  0.00     0.274 HD
ATOM     25  H12 UNL     1      -5.499   2.770   2.939  1.00  0.00     0.274 HD
ATOM     26  H11 UNL     1      -4.855   4.001   1.950  1.00  0.00     0.274 HD
ENDBRANCH  13  23
ENDBRANCH  12  13
ENDBRANCH  10  12
ENDBRANCH   1  10
BRANCH   7  27
HETATM   27  N5  UNL     1       1.291  -0.558  -0.769  1.00  0.00    -0.226 N 
ATOM     28  H5  UNL     1       0.761  -1.179  -1.380  1.00  0.00     0.177 HD
BRANCH  27  29
HETATM   29  C14 UNL     1       2.724  -0.677  -0.794  1.00  0.00     0.138 C 
BRANCH  29  30
HETATM   30  C15 UNL     1       3.357   0.360  -1.661  1.00  0.00     0.020 C 
BRANCH  30  31
HETATM   31  C16 UNL     1       4.858   0.250  -1.705  1.00  0.00     0.002 C 
BRANCH  31  32
HETATM   32  C17 UNL     1       5.514   0.401  -0.374  1.00  0.00     0.000 C 
BRANCH  32  33
HETATM   33  C18 UNL     1       7.019   0.291  -0.452  1.00  0.00     0.002 C 
BRANCH  33  34
HETATM   34  C19 UNL     1       7.488  -1.025  -0.991  1.00  0.00     0.027 C 
BRANCH  34  35
HETATM   35  C20 UNL     1       7.047  -2.197  -0.167  1.00  0.00     0.229 C 
BRANCH  35  36
HETATM   36  N6  UNL     1       7.522  -2.152   1.188  1.00  0.00    -0.079 N 
ATOM     37  H63 UNL     1       8.537  -2.054   1.213  1.00  0.00     0.274 HD
ATOM     38  H62 UNL     1       7.257  -1.275   1.636  1.00  0.00     0.274 HD
ATOM     39  H61 UNL     1       7.222  -2.949   1.749  1.00  0.00     0.274 HD
ENDBRANCH  35  36
ENDBRANCH  34  35
ENDBRANCH  33  34
ENDBRANCH  32  33
ENDBRANCH  31  32
ENDBRANCH  30  31
ENDBRANCH  29  30
ENDBRANCH  27  29
ENDBRANCH   7  27
TORSDOF 15
