REMARK  7 active torsions:
REMARK  status: ('A' for Active; 'I' for Inactive)
REMARK       I    between atoms: C1_2  and  N1_3 
REMARK    1  A    between atoms: C1_2  and  C13_21 
REMARK    2  A    between atoms: N1_3  and  C2_5 
REMARK       I    between atoms: N2_8  and  C5_9 
REMARK    3  A    between atoms: C5_9  and  C6_11 
REMARK    4  A    between atoms: C19_27  and  C20_28 
REMARK    5  A    between atoms: C19_27  and  C21_31 
REMARK    6  A    between atoms: C20_28  and  O3_29 
REMARK    7  A    between atoms: C21_31  and  C22_32 
ROOT
HETATM    1  O1  UNL     1      -0.939  -1.910  -1.479  1.00  0.00    -0.273 OA
HETATM    2  C1  UNL     1      -1.650  -0.868  -1.167  1.00  0.00     0.223 C 
HETATM    3  N1  UNL     1      -0.845   0.086  -0.528  1.00  0.00    -0.356 N 
ATOM      4  H1  UNL     1      -1.292   0.954  -0.231  1.00  0.00     0.162 HD
ENDROOT
BRANCH   3   5
HETATM    5  C2  UNL     1       0.574  -0.062  -0.255  1.00  0.00     0.087 C 
HETATM    6  C3  UNL     1       0.726  -0.008   1.250  1.00  0.00     0.045 C 
HETATM    7  C4  UNL     1       2.127  -0.231   1.703  1.00  0.00     0.127 C 
HETATM    8  N2  UNL     1       3.092   0.250   0.729  1.00  0.00    -0.352 N 
HETATM    9  C5  UNL     1       4.377  -0.351   0.691  1.00  0.00     0.224 C 
HETATM   10  C11 UNL     1       2.680   1.314  -0.150  1.00  0.00     0.127 C 
HETATM   11  O2  UNL     1       4.664  -1.287   1.472  1.00  0.00    -0.273 OA
HETATM   12  C12 UNL     1       1.396   1.047  -0.879  1.00  0.00     0.045 C 
BRANCH   9  13
HETATM   13  C6  UNL     1       5.437   0.085  -0.258  1.00  0.00     0.081 C 
HETATM   14  C7  UNL     1       6.649  -0.813  -0.179  1.00  0.00     0.041 C 
HETATM   15  C8  UNL     1       7.915  -0.136  -0.667  1.00  0.00     0.233 C 
HETATM   16  N3  UNL     1       8.244   1.014   0.159  1.00  0.00    -0.075 N 
HETATM   17  C9  UNL     1       7.117   1.385   0.995  1.00  0.00     0.233 C 
ATOM     18  H32 UNL     1       9.087   0.854   0.710  1.00  0.00     0.277 HD
ATOM     19  H31 UNL     1       8.574   1.800  -0.401  1.00  0.00     0.277 HD
HETATM   20  C10 UNL     1       5.892   1.482   0.129  1.00  0.00     0.041 C 
ENDBRANCH   9  13
ENDBRANCH   3   5
BRANCH   2  21
HETATM   21  C13 UNL     1      -3.028  -0.896  -1.514  1.00  0.00     0.093 C 
HETATM   22  C14 UNL     1      -3.446   0.163  -2.494  1.00  0.00    -0.000 C 
HETATM   23  C15 UNL     1      -3.541   1.553  -2.010  1.00  0.00     0.006 C 
HETATM   24  C18 UNL     1      -4.971  -0.164  -2.511  1.00  0.00     0.011 C 
HETATM   25  C16 UNL     1      -4.602   1.458  -0.910  1.00  0.00     0.006 C 
HETATM   26  C17 UNL     1      -5.117   0.017  -0.990  1.00  0.00    -0.003 C 
HETATM   27  C19 UNL     1      -4.097  -0.955  -0.473  1.00  0.00    -0.003 C 
BRANCH  27  28
HETATM   28  C20 UNL     1      -4.735  -2.331  -0.463  1.00  0.00     0.175 C 
BRANCH  28  29
HETATM   29  O3  UNL     1      -3.791  -3.332  -0.160  1.00  0.00    -0.400 OA
ATOM     30  H3  UNL     1      -4.191  -4.194  -0.154  1.00  0.00     0.209 HD
ENDBRANCH  28  29
ENDBRANCH  27  28
BRANCH  27  31
HETATM   31  C21 UNL     1      -3.683  -0.633   0.905  1.00  0.00     0.017 C 
BRANCH  31  32
HETATM   32  C22 UNL     1      -4.818  -0.725   1.889  1.00  0.00    -0.014 A 
HETATM   33  C23 UNL     1      -4.338  -0.366   3.314  1.00  0.00     0.005 A 
HETATM   34  C24 UNL     1      -5.416   0.388   2.600  1.00  0.00     0.005 A 
ENDBRANCH  31  32
ENDBRANCH  27  31
ENDBRANCH   2  21
TORSDOF 7
