REMARK  6 active torsions:
REMARK  status: ('A' for Active; 'I' for Inactive)
REMARK    1  A    between atoms: S1_2  and  N1_5 
REMARK    2  A    between atoms: N1_5  and  C2_6 
REMARK    3  A    between atoms: N1_5  and  C5_13 
REMARK    4  A    between atoms: C2_6  and  C3_7 
REMARK    5  A    between atoms: C3_7  and  C4_8 
REMARK    6  A    between atoms: C4_8  and  N2_9 
REMARK       I    between atoms: N3_16  and  C8_17 
ROOT
HETATM    1  C5  UNL     1       0.756   0.956  -0.057  1.00  0.00     0.086 C 
HETATM    2  C6  UNL     1       0.991   1.608   1.297  1.00  0.00     0.041 C 
HETATM    3  C7  UNL     1       0.060   2.767   1.414  1.00  0.00     0.127 C 
HETATM    4  N3  UNL     1      -1.072   2.781   0.555  1.00  0.00    -0.355 N 
HETATM    5  C8  UNL     1      -1.887   3.948   0.623  1.00  0.00     0.183 C 
HETATM    6  N4  UNL     1      -3.162   3.931   0.489  1.00  0.00    -0.374 N 
ATOM      7  H41 UNL     1      -3.745   4.766   0.538  1.00  0.00     0.158 HD
ATOM      8  H42 UNL     1      -3.591   3.020   0.326  1.00  0.00     0.158 HD
HETATM    9  N5  UNL     1      -1.289   5.217   0.850  1.00  0.00    -0.064 NA
HETATM   10  C9  UNL     1      -1.454   1.752  -0.357  1.00  0.00     0.137 C 
HETATM   11  C10 UNL     1      -0.621   0.465  -0.115  1.00  0.00     0.000 C 
HETATM   12  C11 UNL     1      -1.240  -0.092   1.136  1.00  0.00    -0.002 C 
HETATM   13  C12 UNL     1      -0.885  -1.516   1.461  1.00  0.00     0.010 C 
HETATM   14  C13 UNL     1      -0.995  -2.463   0.329  1.00  0.00    -0.014 C 
HETATM   15  C14 UNL     1      -2.335  -3.132   0.257  1.00  0.00     0.005 C 
HETATM   16  C15 UNL     1      -3.498  -2.261   0.141  1.00  0.00     0.005 C 
HETATM   17  C16 UNL     1      -3.282  -0.831  -0.160  1.00  0.00    -0.014 C 
HETATM   18  C17 UNL     1      -2.761  -0.086   1.045  1.00  0.00     0.010 C 
HETATM   19  C18 UNL     1      -2.526  -0.531  -1.406  1.00  0.00     0.010 C 
HETATM   20  C19 UNL     1      -1.002  -0.475  -1.217  1.00  0.00    -0.002 C 
HETATM   21  C20 UNL     1      -0.600  -1.909  -1.004  1.00  0.00     0.010 C 
ENDROOT
BRANCH   1  22
HETATM   22  N1  UNL     1       1.879   0.211  -0.565  1.00  0.00    -0.205 NA
BRANCH  22  23
HETATM   23  S1  UNL     1       2.630   1.151  -1.866  1.00  0.00     0.208 S 
HETATM   24  C1  UNL     1       3.907   0.321  -2.680  1.00  0.00     0.180 C 
HETATM   25  O1  UNL     1       1.535   1.460  -2.832  1.00  0.00    -0.212 OA
HETATM   26  O2  UNL     1       3.027   2.510  -1.323  1.00  0.00    -0.212 OA
ENDBRANCH  22  23
BRANCH  22  27
HETATM   27  C2  UNL     1       2.881  -0.068   0.432  1.00  0.00     0.109 C 
BRANCH  27  28
HETATM   28  C3  UNL     1       3.848  -1.137   0.265  1.00  0.00     0.043 C 
BRANCH  28  29
HETATM   29  C4  UNL     1       3.334  -2.547   0.146  1.00  0.00     0.230 C 
BRANCH  29  30
HETATM   30  N2  UNL     1       2.614  -2.989   1.303  1.00  0.00    -0.079 N 
ATOM     31  H23 UNL     1       3.180  -2.880   2.145  1.00  0.00     0.274 HD
ATOM     32  H22 UNL     1       1.855  -2.345   1.525  1.00  0.00     0.274 HD
ATOM     33  H21 UNL     1       2.266  -3.944   1.222  1.00  0.00     0.274 HD
ENDBRANCH  29  30
ENDBRANCH  28  29
ENDBRANCH  27  28
ENDBRANCH  22  27
ENDBRANCH   1  22
TORSDOF 6
