REMARK  10 active torsions:
REMARK  status: ('A' for Active; 'I' for Inactive)
REMARK    1  A    between atoms: O1_2  and  C2_3 
REMARK    2  A    between atoms: C2_3  and  C3_5 
REMARK    3  A    between atoms: C3_5  and  C5_7 
REMARK    4  A    between atoms: C5_7  and  C6_8 
REMARK    5  A    between atoms: C6_8  and  C7_9 
REMARK    6  A    between atoms: C7_9  and  C8_10 
REMARK    7  A    between atoms: C8_10  and  C9_11 
REMARK    8  A    between atoms: C9_11  and  C10_12 
REMARK    9  A    between atoms: C19_27  and  C20_28 
REMARK   10  A    between atoms: C20_28  and  C21_29 
ROOT
HETATM    1  C10 UNL     1       0.327   0.698  -1.403  1.00  0.00     0.079 C 
HETATM    2  C11 UNL     1      -0.251   1.376  -2.634  1.00  0.00     0.014 C 
HETATM    3  C12 UNL     1      -1.749   1.544  -2.519  1.00  0.00     0.002 C 
HETATM    4  C13 UNL     1      -2.286   2.804  -3.100  1.00  0.00     0.020 C 
HETATM    5  C14 UNL     1      -2.918   3.664  -2.007  1.00  0.00     0.122 C 
HETATM    6  N1  UNL     1      -2.110   3.570  -0.812  1.00  0.00    -0.359 N 
ATOM      7  H1  UNL     1      -1.106   3.482  -0.966  1.00  0.00     0.162 HD
HETATM    8  C15 UNL     1      -2.516   3.583   0.526  1.00  0.00     0.240 C 
HETATM    9  O3  UNL     1      -1.967   4.478   1.272  1.00  0.00    -0.271 OA
HETATM   10  C16 UNL     1      -3.488   2.719   1.224  1.00  0.00     0.172 C 
HETATM   11  C17 UNL     1      -4.504   2.051   0.377  1.00  0.00     0.042 C 
HETATM   12  N2  UNL     1      -2.830   1.838   2.184  1.00  0.00    -0.346 N 
ATOM     13  H2  UNL     1      -2.981   2.067   3.167  1.00  0.00     0.163 HD
HETATM   14  C18 UNL     1      -2.031   0.737   1.944  1.00  0.00     0.242 C 
HETATM   15  O4  UNL     1      -0.838   0.734   2.418  1.00  0.00    -0.271 OA
HETATM   16  C19 UNL     1      -2.396  -0.511   1.170  1.00  0.00     0.191 C 
HETATM   17  N3  UNL     1      -1.226  -1.218   0.783  1.00  0.00    -0.320 N 
ATOM     18  H3  UNL     1      -0.587  -1.612   1.474  1.00  0.00     0.181 HD
HETATM   19  N4  UNL     1      -0.994  -1.347  -0.577  1.00  0.00    -0.273 N 
ATOM     20  H4  UNL     1      -1.647  -1.941  -1.088  1.00  0.00     0.189 HD
HETATM   21  C24 UNL     1       0.042  -0.753  -1.346  1.00  0.00     0.239 C 
HETATM   22  O5  UNL     1       0.786  -1.540  -2.043  1.00  0.00    -0.271 OA
ENDROOT
BRANCH   1  23
HETATM   23  C9  UNL     1       1.754   1.062  -1.297  1.00  0.00     0.014 C 
BRANCH  23  24
HETATM   24  C8  UNL     1       2.651   0.709  -2.427  1.00  0.00     0.001 C 
BRANCH  24  25
HETATM   25  C7  UNL     1       4.078   1.177  -2.154  1.00  0.00     0.000 C 
BRANCH  25  26
HETATM   26  C6  UNL     1       4.697   0.556  -0.943  1.00  0.00     0.001 C 
BRANCH  26  27
HETATM   27  C5  UNL     1       4.804  -0.928  -1.016  1.00  0.00     0.014 C 
BRANCH  27  28
HETATM   28  C3  UNL     1       5.437  -1.567   0.156  1.00  0.00     0.081 C 
HETATM   29  C4  UNL     1       5.540  -3.077  -0.118  1.00  0.00     0.020 C 
BRANCH  28  30
HETATM   30  C2  UNL     1       4.779  -1.383   1.441  1.00  0.00     0.262 C 
HETATM   31  O2  UNL     1       3.674  -0.852   1.572  1.00  0.00    -0.265 OA
BRANCH  30  32
HETATM   32  O1  UNL     1       5.394  -1.820   2.628  1.00  0.00    -0.326 OA
HETATM   33  C1  UNL     1       4.794  -1.666   3.884  1.00  0.00     0.213 C 
ENDBRANCH  30  32
ENDBRANCH  28  30
ENDBRANCH  27  28
ENDBRANCH  26  27
ENDBRANCH  25  26
ENDBRANCH  24  25
ENDBRANCH  23  24
ENDBRANCH   1  23
BRANCH  16  34
HETATM   34  C20 UNL     1      -3.277  -1.386   2.011  1.00  0.00     0.040 C 
BRANCH  34  35
HETATM   35  C21 UNL     1      -3.748  -2.660   1.437  1.00  0.00    -0.020 C 
HETATM   36  C22 UNL     1      -4.655  -3.294   2.531  1.00  0.00     0.009 C 
HETATM   37  C23 UNL     1      -2.669  -3.733   1.273  1.00  0.00     0.009 C 
ENDBRANCH  34  35
ENDBRANCH  16  34
TORSDOF 10
