REMARK  12 active torsions:
REMARK  status: ('A' for Active; 'I' for Inactive)
REMARK    1  A    between atoms: C2_2  and  C3_3 
REMARK    2  A    between atoms: C3_3  and  C4_4 
REMARK    3  A    between atoms: C4_4  and  C5_5 
REMARK    4  A    between atoms: N1_8  and  C7_9 
REMARK    5  A    between atoms: C7_9  and  C8_10 
REMARK    6  A    between atoms: C8_10  and  N2_11 
REMARK    7  A    between atoms: N2_11  and  S1_13 
REMARK    8  A    between atoms: S1_13  and  C9_16 
REMARK    9  A    between atoms: C9_16  and  C10_17 
REMARK   10  A    between atoms: C15_22  and  O4_23 
REMARK   11  A    between atoms: C16_25  and  O5_26 
REMARK   12  A    between atoms: C23_34  and  O6_35 
ROOT
HETATM    1  S1  UNL     1      -0.660  -1.069   0.089  1.00  0.00     0.227 S 
HETATM    2  O2  UNL     1      -1.008  -1.931   1.265  1.00  0.00    -0.206 OA
HETATM    3  O3  UNL     1      -0.135  -1.969  -0.986  1.00  0.00    -0.206 OA
ENDROOT
BRANCH   1   4
HETATM    4  N2  UNL     1       0.640  -0.072   0.726  1.00  0.00    -0.318 N 
ATOM      5  H2  UNL     1       0.983  -0.116   1.686  1.00  0.00     0.172 HD
BRANCH   4   6
HETATM    6  C8  UNL     1       1.154   0.807  -0.273  1.00  0.00     0.151 C 
BRANCH   6   7
HETATM    7  C7  UNL     1       2.266   1.651   0.294  1.00  0.00     0.146 C 
BRANCH   7   8
HETATM    8  N1  UNL     1       3.314   0.763   0.750  1.00  0.00    -0.348 N 
HETATM    9  C6  UNL     1       4.416   0.312  -0.079  1.00  0.00     0.226 C 
HETATM   10  C5  UNL     1       5.388  -0.237   0.878  1.00  0.00     0.108 C 
HETATM   11  O1  UNL     1       4.404   0.429  -1.314  1.00  0.00    -0.273 OA
HETATM   12  C23 UNL     1       4.446  -0.943   1.851  1.00  0.00     0.149 C 
HETATM   13  C22 UNL     1       3.437   0.194   2.071  1.00  0.00     0.158 C 
BRANCH  10  14
HETATM   14  C4  UNL     1       6.438  -1.127   0.349  1.00  0.00     0.017 C 
BRANCH  14  15
HETATM   15  C3  UNL     1       7.298  -0.419  -0.657  1.00  0.00     0.001 C 
BRANCH  15  16
HETATM   16  C2  UNL     1       7.968   0.804  -0.017  1.00  0.00    -0.005 C 
HETATM   17  C1  UNL     1       8.812   1.427  -1.137  1.00  0.00     0.005 C 
ENDBRANCH  15  16
ENDBRANCH  14  15
ENDBRANCH  10  14
BRANCH  12  18
HETATM   18  O6  UNL     1       3.742  -1.970   1.225  1.00  0.00    -0.393 OA
ATOM     19  H6  UNL     1       3.156  -2.409   1.830  1.00  0.00     0.210 HD
ENDBRANCH  12  18
ENDBRANCH   7   8
ENDBRANCH   6   7
ENDBRANCH   4   6
ENDBRANCH   1   4
BRANCH   1  20
HETATM   20  C9  UNL     1      -1.995  -0.060  -0.441  1.00  0.00     0.173 C 
BRANCH  20  21
HETATM   21  C10 UNL     1      -3.172  -0.726  -1.019  1.00  0.00    -0.014 A 
HETATM   22  C11 UNL     1      -2.718  -1.538  -2.243  1.00  0.00     0.018 C 
HETATM   23  C12 UNL     1      -4.251  -1.332  -0.217  1.00  0.00     0.029 A 
HETATM   24  C13 UNL     1      -4.103  -1.632   1.191  1.00  0.00    -0.022 C 
HETATM   25  C17 UNL     1      -5.205  -0.231  -0.545  1.00  0.00    -0.000 A 
HETATM   26  C14 UNL     1      -4.437  -0.799   2.162  1.00  0.00     0.003 C 
HETATM   27  C15 UNL     1      -4.998   0.520   1.865  1.00  0.00     0.170 C 
HETATM   28  C16 UNL     1      -5.748   0.573   0.563  1.00  0.00     0.160 C 
HETATM   29  C18 UNL     1      -6.382  -0.796  -1.364  1.00  0.00     0.019 C 
HETATM   30  C19 UNL     1      -4.192   0.355  -1.451  1.00  0.00    -0.028 A 
HETATM   31  C20 UNL     1      -3.749   1.753  -1.210  1.00  0.00     0.016 C 
HETATM   32  C21 UNL     1      -4.528   0.252  -2.949  1.00  0.00     0.016 C 
BRANCH  27  33
HETATM   33  O4  UNL     1      -5.888   0.834   2.926  1.00  0.00    -0.389 OA
ATOM     34  H4  UNL     1      -6.252   1.690   2.733  1.00  0.00     0.210 HD
ENDBRANCH  27  33
BRANCH  28  35
HETATM   35  O5  UNL     1      -5.924   1.923   0.254  1.00  0.00    -0.392 OA
ATOM     36  H5  UNL     1      -6.398   1.956  -0.569  1.00  0.00     0.210 HD
ENDBRANCH  28  35
ENDBRANCH  20  21
ENDBRANCH   1  20
TORSDOF 12
