REMARK  2 active torsions:
REMARK  status: ('A' for Active; 'I' for Inactive)
REMARK    1  A    between atoms: C2_2  and  O1_3 
REMARK    2  A    between atoms: N1_8  and  C6_9 
ROOT
HETATM    1  C1  UNL     1      -2.281   0.824   0.056  1.00  0.00     0.047 C 
HETATM    2  C2  UNL     1      -1.045  -0.015   0.195  1.00  0.00     0.070 C 
HETATM    3  C3  UNL     1      -0.704  -0.662  -1.105  1.00  0.00     0.041 C 
HETATM    4  C4  UNL     1       0.671  -1.212  -1.199  1.00  0.00     0.023 C 
HETATM    5  C5  UNL     1       1.472  -1.027   0.098  1.00  0.00     0.123 C 
HETATM    6  N1  UNL     1       1.357   0.369   0.408  1.00  0.00    -0.378 N 
HETATM    7  C7  UNL     1       0.058   0.897   0.706  1.00  0.00     0.160 C 
ENDROOT
BRANCH   2   8
HETATM    8  O1  UNL     1      -1.336  -1.031   1.119  1.00  0.00    -0.389 OA
ATOM      9  H1  UNL     1      -0.553  -1.562   1.207  1.00  0.00     0.210 HD
ENDBRANCH   2   8
BRANCH   6  10
HETATM   10  C6  UNL     1       2.502   1.180   0.414  1.00  0.00     0.168 C 
HETATM   11  S1  UNL     1       3.696   0.872   1.481  1.00  0.00    -0.074 SA
ENDBRANCH   6  10
TORSDOF 2
