REMARK  0 active torsions:
REMARK  status: ('A' for Active; 'I' for Inactive)
ROOT
HETATM    1  C1  UNL     1       3.047   0.380   0.756  1.00  0.00     0.088 C 
HETATM    2  C2  UNL     1       1.582   0.190   0.454  1.00  0.00     0.069 C 
HETATM    3  N1  UNL     1       0.641   1.024   0.617  1.00  0.00    -0.370 N 
ATOM      4  H1  UNL     1       0.781   1.963   0.990  1.00  0.00     0.161 HD
HETATM    5  C3  UNL     1      -0.636   0.516   0.226  1.00  0.00     0.044 C 
HETATM    6  C4  UNL     1      -0.974   1.138  -1.119  1.00  0.00     0.040 C 
HETATM    7  C5  UNL     1      -1.714   0.830   1.247  1.00  0.00     0.040 C 
HETATM    8  C6  UNL     1      -0.415  -0.968   0.125  1.00  0.00     0.106 C 
HETATM    9  C7  UNL     1      -1.067  -1.584  -1.086  1.00  0.00     0.035 C 
HETATM   10  N2  UNL     1       1.025  -0.999  -0.079  1.00  0.00    -0.374 N 
ATOM     11  H2  UNL     1       1.546  -1.751  -0.530  1.00  0.00     0.161 HD
ENDROOT
TORSDOF 0
