REMARK  3 active torsions:
REMARK  status: ('A' for Active; 'I' for Inactive)
REMARK    1  A    between atoms: C3_6  and  C4_7 
REMARK    2  A    between atoms: C5_12  and  C6_13 
REMARK       I    between atoms: C6_13  and  N5_15 
REMARK    3  A    between atoms: N5_15  and  N6_17 
ROOT
HETATM    1  N1  UNL     1      -1.729  -4.251  -1.654  1.00  0.00    -0.188 NA
HETATM    2  C1  UNL     1      -1.792  -3.192  -1.193  1.00  0.00     0.137 C 
HETATM    3  C2  UNL     1      -1.889  -1.878  -0.623  1.00  0.00     0.191 A 
HETATM    4  N2  UNL     1      -3.085  -1.302  -0.362  1.00  0.00    -0.315 N 
ATOM      5  H2  UNL     1      -3.945  -1.809  -0.573  1.00  0.00     0.170 HD
HETATM    6  C3  UNL     1      -3.154  -0.069   0.172  1.00  0.00     0.175 A 
HETATM    7  N4  UNL     1      -2.041   0.628   0.464  1.00  0.00    -0.320 N 
ATOM      8  H4  UNL     1      -2.110   1.561   0.870  1.00  0.00     0.169 HD
HETATM    9  C5  UNL     1      -0.836   0.082   0.216  1.00  0.00     0.180 A 
HETATM   10  N9  UNL     1      -0.806  -1.151  -0.318  1.00  0.00    -0.315 N 
ATOM     11  H9  UNL     1       0.108  -1.563  -0.505  1.00  0.00     0.170 HD
ENDROOT
BRANCH   6  12
HETATM   12  C4  UNL     1      -4.461   0.553   0.454  1.00  0.00     0.298 C 
HETATM   13  N3  UNL     1      -4.539   1.864   1.022  1.00  0.00    -0.054 NA
HETATM   14  O1  UNL     1      -5.483  -0.115   0.174  1.00  0.00    -0.268 OA
ENDBRANCH   6  12
BRANCH   9  15
HETATM   15  C6  UNL     1       0.414   0.746   0.492  1.00  0.00     0.304 C 
HETATM   16  O2  UNL     1       0.395   1.890   0.987  1.00  0.00    -0.263 OA
HETATM   17  N5  UNL     1       1.638   0.122   0.210  1.00  0.00    -0.261 N 
ATOM     18  H5  UNL     1       1.640  -0.814  -0.195  1.00  0.00     0.190 HD
BRANCH  17  19
HETATM   19  N6  UNL     1       2.852   0.756   0.473  1.00  0.00    -0.273 N 
HETATM   20  C7  UNL     1       3.896   0.400  -0.154  1.00  0.00     0.215 C 
HETATM   21  N7  UNL     1       3.934  -0.632  -1.143  1.00  0.00    -0.065 NA
HETATM   22  N8  UNL     1       5.134   1.068   0.135  1.00  0.00    -0.065 NA
ATOM     23  H6  UNL     1       2.900   1.503   1.166  1.00  0.00     0.189 HD
ENDBRANCH  17  19
ENDBRANCH   9  15
TORSDOF 3
