REMARK  2 active torsions:
REMARK  status: ('A' for Active; 'I' for Inactive)
REMARK    1  A    between atoms: C2_2  and  C3_3 
REMARK    2  A    between atoms: C2_2  and  N2_10 
REMARK       I    between atoms: C3_3  and  N1_5 
REMARK       I    between atoms: N1_5  and  C4_7 
ROOT
HETATM    1  N2  UNL     1      -1.030   0.375  -0.181  1.00  0.00    -0.235 N 
HETATM    2  N3  UNL     1      -1.785  -0.703  -0.234  1.00  0.00    -0.245 N 
ATOM      3  H3  UNL     1      -1.384  -1.574  -0.582  1.00  0.00     0.192 HD
HETATM    4  C5  UNL     1      -3.082  -0.685   0.162  1.00  0.00     0.342 A 
HETATM    5  O4  UNL     1      -3.771  -1.753   0.091  1.00  0.00    -0.245 OA
HETATM    6  N4  UNL     1      -3.657   0.440   0.630  1.00  0.00    -0.270 N 
ATOM      7  H4  UNL     1      -4.632   0.459   0.930  1.00  0.00     0.174 HD
HETATM    8  C6  UNL     1      -2.877   1.539   0.681  1.00  0.00     0.319 A 
HETATM    9  O5  UNL     1      -3.334   2.637   1.106  1.00  0.00    -0.262 OA
HETATM   10  C7  UNL     1      -1.567   1.524   0.282  1.00  0.00     0.331 A 
HETATM   11  O6  UNL     1      -0.804   2.519   0.311  1.00  0.00    -0.260 OA
ENDROOT
BRANCH   1  12
HETATM   12  C2  UNL     1       0.324   0.296  -0.610  1.00  0.00     0.200 C 
HETATM   13  C1  UNL     1       0.396  -0.779  -1.704  1.00  0.00     0.044 C 
BRANCH  12  14
HETATM   14  C3  UNL     1       1.296  -0.038   0.415  1.00  0.00     0.251 C 
HETATM   15  O1  UNL     1       0.933  -0.248   1.593  1.00  0.00    -0.271 OA
HETATM   16  N1  UNL     1       2.671  -0.131   0.098  1.00  0.00    -0.269 N 
HETATM   17  C4  UNL     1       3.668  -0.455   1.067  1.00  0.00     0.290 C 
ATOM     18  H1  UNL     1       2.963   0.041  -0.864  1.00  0.00     0.174 HD
HETATM   19  O2  UNL     1       3.317  -0.666   2.243  1.00  0.00    -0.629 OA
HETATM   20  O3  UNL     1       5.012  -0.544   0.750  1.00  0.00    -0.629 OA
ENDBRANCH  12  14
ENDBRANCH   1  12
TORSDOF 2
