REMARK  4 active torsions:
REMARK  status: ('A' for Active; 'I' for Inactive)
REMARK    1  A    between atoms: O1_2  and  N1_3 
REMARK    2  A    between atoms: N1_3  and  C2_5 
REMARK    3  A    between atoms: C3_10  and  N4_11 
REMARK    4  A    between atoms: C8_19  and  N6_20 
ROOT
HETATM    1  C2  UNL     1       2.505  -0.406   0.159  1.00  0.00     0.185 A 
HETATM    2  N2  UNL     1       1.934   0.753   0.596  1.00  0.00    -0.267 N 
ATOM      3  H2  UNL     1       2.516   1.532   0.905  1.00  0.00     0.189 HD
HETATM    4  N3  UNL     1       0.618   0.853   0.614  1.00  0.00    -0.130 N 
ATOM      5  H3  UNL     1       0.210   1.728   0.944  1.00  0.00     0.205 HD
HETATM    6  C3  UNL     1      -0.222  -0.130   0.223  1.00  0.00     0.696 A 
HETATM    7  N5  UNL     1       0.356  -1.268  -0.205  1.00  0.00    -0.172 N 
ATOM      8  H5  UNL     1      -0.243  -2.036  -0.509  1.00  0.00     0.186 HD
HETATM    9  C8  UNL     1       1.691  -1.436  -0.249  1.00  0.00     0.162 A 
ENDROOT
BRANCH   6  10
HETATM   10  N4  UNL     1      -1.645   0.033   0.264  1.00  0.00    -0.212 N 
HETATM   11  C4  UNL     1      -2.161   1.287   0.738  1.00  0.00     0.167 C 
HETATM   12  C5  UNL     1      -3.599   1.395   0.292  1.00  0.00     0.188 C 
HETATM   13  O2  UNL     1      -4.320   0.260   0.605  1.00  0.00    -0.388 OA
HETATM   14  C6  UNL     1      -3.912  -0.880  -0.014  1.00  0.00     0.188 C 
HETATM   15  C7  UNL     1      -2.454  -1.068  -0.171  1.00  0.00     0.167 C 
ENDBRANCH   6  10
BRANCH   9  16
HETATM   16  N6  UNL     1       2.252  -2.520  -0.657  1.00  0.00    -0.382 N 
ATOM     17  H62 UNL     1       3.263  -2.647  -0.690  1.00  0.00     0.157 HD
ATOM     18  H61 UNL     1       1.648  -3.284  -0.960  1.00  0.00     0.157 HD
ENDBRANCH   9  16
BRANCH   1  19
HETATM   19  N1  UNL     1       3.769  -0.581   0.111  1.00  0.00    -0.247 N 
ATOM     20  H1  UNL     1       4.105  -1.482  -0.230  1.00  0.00     0.196 HD
BRANCH  19  21
HETATM   21  O1  UNL     1       4.703   0.336   0.478  1.00  0.00    -0.284 OA
HETATM   22  C1  UNL     1       5.159   1.249  -0.493  1.00  0.00     0.237 C 
ENDBRANCH  19  21
ENDBRANCH   1  19
TORSDOF 4
