REMARK  7 active torsions:
REMARK  status: ('A' for Active; 'I' for Inactive)
REMARK    1  A    between atoms: C2_2  and  N1_3 
REMARK    2  A    between atoms: C6_7  and  C7_8 
REMARK    3  A    between atoms: C7_8  and  C8_9 
REMARK    4  A    between atoms: N4_15  and  C10_17 
REMARK    5  A    between atoms: C12_19  and  C13_20 
REMARK    6  A    between atoms: C13_20  and  N5_21 
REMARK    7  A    between atoms: N7_27  and  C14_28 
ROOT
HETATM    1  C8  UNL     1       0.623   0.428  -1.062  1.00  0.00     0.036 A 
HETATM    2  N2  UNL     1       0.021   1.603  -0.665  1.00  0.00    -0.303 N 
ATOM      3  H2  UNL     1       0.497   2.499  -0.561  1.00  0.00     0.186 HD
HETATM    4  N3  UNL     1      -1.247   1.399  -0.442  1.00  0.00    -0.285 N 
ATOM      5  H3  UNL     1      -1.909   2.112  -0.137  1.00  0.00     0.188 HD
HETATM    6  C9  UNL     1      -1.550   0.124  -0.671  1.00  0.00     0.129 A 
HETATM    7  N4  UNL     1      -2.694  -0.436  -0.561  1.00  0.00    -0.326 N 
ATOM      8  H4  UNL     1      -2.776  -1.431  -0.772  1.00  0.00     0.169 HD
HETATM    9  C16 UNL     1      -0.368  -0.496  -1.065  1.00  0.00     0.007 A 
HETATM   10  C17 UNL     1      -0.321  -1.937  -1.445  1.00  0.00     0.054 C 
ENDROOT
BRANCH   7  11
HETATM   11  C10 UNL     1      -3.840   0.267  -0.161  1.00  0.00     0.125 A 
HETATM   12  C11 UNL     1      -4.372   1.449  -0.681  1.00  0.00     0.078 A 
HETATM   13  C12 UNL     1      -5.508   1.737   0.031  1.00  0.00     0.055 A 
HETATM   14  N6  UNL     1      -5.633   0.766   0.927  1.00  0.00    -0.299 N 
HETATM   15  N7  UNL     1      -4.671  -0.117   0.846  1.00  0.00    -0.277 N 
ATOM     16  H6  UNL     1      -6.394   0.714   1.604  1.00  0.00     0.187 HD
BRANCH  13  17
HETATM   17  C13 UNL     1      -6.390   2.902  -0.178  1.00  0.00     0.288 C 
BRANCH  17  18
HETATM   18  N5  UNL     1      -7.589   2.830   0.621  1.00  0.00    -0.074 N 
ATOM     19  H53 UNL     1      -8.088   1.956   0.458  1.00  0.00     0.274 HD
ATOM     20  H52 UNL     1      -7.367   2.709   1.609  1.00  0.00     0.274 HD
ATOM     21  H51 UNL     1      -8.198   3.635   0.477  1.00  0.00     0.274 HD
ENDBRANCH  17  18
ENDBRANCH  13  17
BRANCH  15  22
HETATM   22  C14 UNL     1      -4.472  -1.305   1.650  1.00  0.00     0.146 C 
HETATM   23  C15 UNL     1      -5.178  -2.457   0.950  1.00  0.00     0.028 C 
ENDBRANCH  15  22
ENDBRANCH   7  11
BRANCH   1  24
HETATM   24  C7  UNL     1       2.068   0.322  -1.349  1.00  0.00     0.065 C 
BRANCH  24  25
HETATM   25  C6  UNL     1       2.935  -0.073  -0.205  1.00  0.00     0.019 C 
HETATM   26  C5  UNL     1       2.590  -1.396   0.356  1.00  0.00     0.008 C 
HETATM   27  C4  UNL     1       3.540  -1.809   1.483  1.00  0.00     0.031 C 
HETATM   28  C3  UNL     1       4.865  -1.096   1.403  1.00  0.00     0.272 C 
HETATM   29  N1  UNL     1       5.279  -0.752   0.083  1.00  0.00     0.088 N 
HETATM   30  C18 UNL     1       4.371   0.019  -0.681  1.00  0.00     0.277 C 
BRANCH  29  31
HETATM   31  C2  UNL     1       6.640  -0.310   0.098  1.00  0.00     0.268 C 
HETATM   32  C1  UNL     1       6.860   1.006   0.802  1.00  0.00     0.037 C 
ENDBRANCH  29  31
ENDBRANCH  24  25
ENDBRANCH   1  24
TORSDOF 7
