REMARK  12 active torsions:
REMARK  status: ('A' for Active; 'I' for Inactive)
REMARK    1  A    between atoms: N1_1  and  C1_5 
REMARK    2  A    between atoms: C1_5  and  N2_6 
REMARK    3  A    between atoms: C1_5  and  O1_10 
REMARK    4  A    between atoms: O1_10  and  C2_11 
REMARK    5  A    between atoms: C2_11  and  C3_13 
REMARK    6  A    between atoms: C3_13  and  C4_14 
REMARK    7  A    between atoms: C4_14  and  N3_15 
REMARK    8  A    between atoms: N3_15  and  C5_17 
REMARK    9  A    between atoms: C7_19  and  O3_20 
REMARK   10  A    between atoms: C10_24  and  O4_25 
REMARK   11  A    between atoms: C13_34  and  N6_35 
REMARK   12  A    between atoms: C14_39  and  C15_40 
ROOT
HETATM    1  C5  UNL     1       1.271  -0.928   0.187  1.00  0.00     0.066 A 
HETATM    2  C6  UNL     1       0.748  -1.715  -0.805  1.00  0.00     0.069 A 
HETATM    3  C7  UNL     1      -0.500  -1.420  -1.326  1.00  0.00     0.084 A 
HETATM    4  C8  UNL     1      -1.242  -0.351  -0.876  1.00  0.00     0.077 A 
HETATM    5  C9  UNL     1      -0.733   0.455   0.122  1.00  0.00     0.083 A 
HETATM    6  C10 UNL     1       0.508   0.144   0.626  1.00  0.00     0.119 A 
HETATM    7  N4  UNL     1      -1.689   1.492   0.412  1.00  0.00    -0.348 N 
ATOM      8  H4  UNL     1      -1.486   2.349   0.927  1.00  0.00     0.163 HD
HETATM    9  C11 UNL     1      -2.985   1.137  -0.137  1.00  0.00     0.237 C 
HETATM   10  N5  UNL     1      -3.701   2.255  -0.659  1.00  0.00    -0.320 N 
ATOM     11  H5  UNL     1      -3.187   3.048  -1.044  1.00  0.00     0.165 HD
HETATM   12  C12 UNL     1      -5.118   2.277  -0.649  1.00  0.00     0.252 C 
HETATM   13  O5  UNL     1      -5.761   2.825  -1.583  1.00  0.00    -0.271 OA
HETATM   14  C13 UNL     1      -5.886   1.658   0.455  1.00  0.00     0.296 C 
HETATM   15  C14 UNL     1      -5.281   0.325   0.860  1.00  0.00     0.201 C 
HETATM   16  C16 UNL     1      -3.802   0.378   0.848  1.00  0.00     0.200 C 
HETATM   17  O8  UNL     1      -3.204  -0.245   1.709  1.00  0.00    -0.292 OA
HETATM   18  C17 UNL     1      -2.551   0.187  -1.218  1.00  0.00     0.221 C 
HETATM   19  O9  UNL     1      -3.217  -0.090  -2.244  1.00  0.00    -0.287 OA
ENDROOT
BRANCH   1  20
HETATM   20  N3  UNL     1       2.540  -1.211   0.773  1.00  0.00    -0.387 N 
ATOM     21  H3  UNL     1       2.815  -0.641   1.573  1.00  0.00     0.159 HD
BRANCH  20  22
HETATM   22  C4  UNL     1       3.459  -2.209   0.352  1.00  0.00     0.130 C 
BRANCH  22  23
HETATM   23  C3  UNL     1       4.147  -1.877  -0.956  1.00  0.00     0.131 C 
BRANCH  23  24
HETATM   24  C2  UNL     1       4.910  -0.620  -0.880  1.00  0.00     0.263 C 
HETATM   25  O2  UNL     1       4.569   0.401  -1.573  1.00  0.00    -0.265 OA
BRANCH  24  26
HETATM   26  O1  UNL     1       6.006  -0.505  -0.063  1.00  0.00    -0.265 OA
BRANCH  26  27
HETATM   27  C1  UNL     1       6.765   0.667   0.035  1.00  0.00     0.526 C 
BRANCH  27  28
HETATM   28  N1  UNL     1       6.633   1.245   1.370  1.00  0.00    -0.027 N 
ATOM     29  H13 UNL     1       7.077   0.659   2.077  1.00  0.00     0.279 HD
ATOM     30  H12 UNL     1       7.208   2.081   1.474  1.00  0.00     0.279 HD
ATOM     31  H11 UNL     1       5.657   1.432   1.599  1.00  0.00     0.279 HD
ENDBRANCH  27  28
BRANCH  27  32
HETATM   32  N2  UNL     1       8.140   0.404  -0.287  1.00  0.00    -0.027 N 
ATOM     33  H23 UNL     1       8.715   1.240  -0.183  1.00  0.00     0.279 HD
ATOM     34  H22 UNL     1       8.584  -0.182   0.420  1.00  0.00     0.279 HD
ATOM     35  H21 UNL     1       8.232   0.000  -1.219  1.00  0.00     0.279 HD
ENDBRANCH  27  32
ENDBRANCH  26  27
ENDBRANCH  24  26
ENDBRANCH  23  24
ENDBRANCH  22  23
ENDBRANCH  20  22
ENDBRANCH   1  20
BRANCH   6  36
HETATM   36  O4  UNL     1       1.042   0.924   1.619  1.00  0.00    -0.356 OA
ATOM     37  H4  UNL     1       0.519   1.658   1.920  1.00  0.00     0.218 HD
ENDBRANCH   6  36
BRANCH   3  38
HETATM   38  O3  UNL     1      -0.984  -2.251  -2.330  1.00  0.00    -0.360 OA
ATOM     39  H3  UNL     1      -1.841  -2.049  -2.688  1.00  0.00     0.217 HD
ENDBRANCH   3  38
BRANCH  15  40
HETATM   40  C15 UNL     1      -5.681  -0.723  -0.105  1.00  0.00     0.187 C 
HETATM   41  O6  UNL     1      -6.416  -0.459  -1.083  1.00  0.00    -0.647 OA
HETATM   42  O7  UNL     1      -5.245  -2.025   0.060  1.00  0.00    -0.647 OA
ENDBRANCH  15  40
BRANCH  14  43
HETATM   43  N6  UNL     1      -7.276   1.581   0.134  1.00  0.00    -0.065 N 
ATOM     44  H63 UNL     1      -7.654   2.493  -0.121  1.00  0.00     0.275 HD
ATOM     45  H62 UNL     1      -7.431   1.096  -0.750  1.00  0.00     0.275 HD
ATOM     46  H61 UNL     1      -7.805   1.155   0.895  1.00  0.00     0.275 HD
ENDBRANCH  14  43
TORSDOF 12
