REMARK  13 active torsions:
REMARK  status: ('A' for Active; 'I' for Inactive)
REMARK    1  A    between atoms: C2_2  and  C3_3 
REMARK    2  A    between atoms: C2_2  and  C13_36 
REMARK    3  A    between atoms: C3_3  and  C4_5 
REMARK    4  A    between atoms: C4_5  and  C5_10 
REMARK    5  A    between atoms: N1_6  and  O2_8 
REMARK    6  A    between atoms: C9_16  and  N3_17 
REMARK    7  A    between atoms: C11_24  and  N5_25 
REMARK    8  A    between atoms: N5_25  and  N6_27 
REMARK    9  A    between atoms: C12_30  and  O4_31 
REMARK   10  A    between atoms: C13_36  and  O6_37 
REMARK   11  A    between atoms: C13_36  and  C14_39 
REMARK   12  A    between atoms: C14_39  and  C15_41 
REMARK   13  A    between atoms: C15_41  and  N8_42 
ROOT
HETATM    1  C15 UNL     1       4.625  -1.226  -1.446  1.00  0.00     0.360 C 
HETATM    2  C16 UNL     1       6.068  -1.133  -1.631  1.00  0.00     0.100 C 
HETATM    3  N9  UNL     1       7.205  -1.050  -1.759  1.00  0.00    -0.195 NA
ENDROOT
BRANCH   1   4
HETATM    4  C14 UNL     1       4.107  -0.219  -0.480  1.00  0.00     0.200 C 
HETATM    5  O7  UNL     1       3.269   0.577  -0.935  1.00  0.00    -0.292 OA
BRANCH   4   6
HETATM    6  C13 UNL     1       4.492  -0.099   0.905  1.00  0.00     0.202 C 
BRANCH   6   7
HETATM    7  C2  UNL     1       3.464  -0.485   1.966  1.00  0.00     0.094 C 
HETATM    8  C1  UNL     1       4.127   0.079   3.260  1.00  0.00     0.021 C 
BRANCH   7   9
HETATM    9  C3  UNL     1       2.170   0.177   1.833  1.00  0.00     0.186 C 
HETATM   10  O1  UNL     1       1.977   1.294   2.348  1.00  0.00    -0.290 OA
BRANCH   9  11
HETATM   11  C4  UNL     1       1.068  -0.464   1.078  1.00  0.00     0.129 C 
HETATM   12  N1  UNL     1       1.272  -1.614   0.596  1.00  0.00    -0.263 N 
ATOM     13  H1  UNL     1       2.201  -1.991   0.783  1.00  0.00     0.194 HD
BRANCH  12  14
HETATM   14  O2  UNL     1       0.478  -2.423  -0.118  1.00  0.00    -0.289 OA
ATOM     15  H2  UNL     1       0.631  -3.288  -0.480  1.00  0.00     0.244 HD
ENDBRANCH  12  14
BRANCH  11  16
HETATM   16  C5  UNL     1      -0.192   0.254   0.926  1.00  0.00     0.089 A 
HETATM   17  C6  UNL     1      -1.356  -0.100   0.287  1.00  0.00     0.075 A 
HETATM   18  C7  UNL     1      -2.265   0.911   0.419  1.00  0.00     0.131 A 
HETATM   19  C8  UNL     1      -3.613   0.995  -0.075  1.00  0.00     0.120 C 
HETATM   20  O5  UNL     1      -1.674   1.834   1.108  1.00  0.00    -0.235 OA
HETATM   21  N2  UNL     1      -4.253   2.204   0.064  1.00  0.00    -0.186 N 
HETATM   22  C12 UNL     1      -4.214  -0.090  -0.648  1.00  0.00     0.130 C 
HETATM   23  C9  UNL     1      -5.275   2.724  -0.651  1.00  0.00     0.679 C 
ATOM     24  H2  UNL     1      -3.905   2.796   0.818  1.00  0.00     0.184 HD
HETATM   25  N4  UNL     1      -5.831   2.233  -1.781  1.00  0.00    -0.154 N 
HETATM   26  C10 UNL     1      -5.732   0.982  -2.278  1.00  0.00     0.290 C 
ATOM     27  H4  UNL     1      -6.394   2.888  -2.324  1.00  0.00     0.187 HD
HETATM   28  O3  UNL     1      -6.412   0.823  -3.324  1.00  0.00    -0.265 OA
HETATM   29  C11 UNL     1      -5.006  -0.086  -1.795  1.00  0.00     0.152 C 
HETATM   30  N7  UNL     1      -0.460   1.490   1.425  1.00  0.00    -0.258 N 
ATOM     31  H7  UNL     1       0.191   2.060   1.965  1.00  0.00     0.195 HD
BRANCH  23  32
HETATM   32  N3  UNL     1      -5.749   3.806  -0.184  1.00  0.00    -0.234 N 
ATOM     33  H32 UNL     1      -5.329   4.177   0.669  1.00  0.00     0.174 HD
ATOM     34  H31 UNL     1      -6.520   4.199  -0.724  1.00  0.00     0.174 HD
ENDBRANCH  23  32
BRANCH  29  35
HETATM   35  N5  UNL     1      -5.083  -1.155  -2.465  1.00  0.00    -0.300 N 
ATOM     36  H5  UNL     1      -5.669  -1.141  -3.300  1.00  0.00     0.186 HD
BRANCH  35  37
HETATM   37  N6  UNL     1      -4.440  -2.342  -2.162  1.00  0.00    -0.344 N 
ATOM     38  H62 UNL     1      -3.859  -2.337  -1.324  1.00  0.00     0.176 HD
ATOM     39  H61 UNL     1      -4.502  -3.205  -2.703  1.00  0.00     0.176 HD
ENDBRANCH  35  37
ENDBRANCH  29  35
BRANCH  22  40
HETATM   40  O4  UNL     1      -4.025  -1.298  -0.036  1.00  0.00    -0.356 OA
ATOM     41  H4  UNL     1      -4.443  -2.052  -0.434  1.00  0.00     0.218 HD
ENDBRANCH  22  40
ENDBRANCH  11  16
ENDBRANCH   9  11
ENDBRANCH   7   9
ENDBRANCH   6   7
BRANCH   6  42
HETATM   42  O6  UNL     1       5.708  -0.766   1.230  1.00  0.00    -0.387 OA
ATOM     43  H6  UNL     1       6.348  -0.526   0.570  1.00  0.00     0.210 HD
ENDBRANCH   6  42
ENDBRANCH   4   6
ENDBRANCH   1   4
BRANCH   1  44
HETATM   44  N8  UNL     1       4.016  -1.049  -2.748  1.00  0.00    -0.056 N 
ATOM     45  H83 UNL     1       2.998  -1.066  -2.694  1.00  0.00     0.276 HD
ATOM     46  H82 UNL     1       4.135  -0.097  -3.094  1.00  0.00     0.276 HD
ATOM     47  H81 UNL     1       4.371  -1.739  -3.410  1.00  0.00     0.276 HD
ENDBRANCH   1  44
TORSDOF 13
