REMARK  12 active torsions:
REMARK  status: ('A' for Active; 'I' for Inactive)
REMARK    1  A    between atoms: C2_2  and  C3_3 
REMARK    2  A    between atoms: C3_3  and  C5_5 
REMARK    3  A    between atoms: C6_6  and  O1_7 
REMARK    4  A    between atoms: C7_11  and  C8_12 
REMARK    5  A    between atoms: C8_12  and  C9_13 
REMARK    6  A    between atoms: C9_13  and  C10_14 
REMARK    7  A    between atoms: C10_14  and  C11_15 
REMARK    8  A    between atoms: C11_15  and  N2_16 
REMARK    9  A    between atoms: C13_24  and  C14_25 
REMARK   10  A    between atoms: C15_29  and  O3_30 
REMARK   11  A    between atoms: C16_34  and  C17_35 
REMARK   12  A    between atoms: C21_39  and  O4_40 
ROOT
HETATM    1  C5  UNL     1      -0.405  -1.155   0.895  1.00  0.00     0.163 C 
HETATM    2  C6  UNL     1       0.168  -0.091   0.028  1.00  0.00     0.136 C 
HETATM    3  N1  UNL     1       0.904   1.033   0.348  1.00  0.00    -0.359 N 
ATOM      4  H1  UNL     1       0.302   1.821   0.588  1.00  0.00     0.162 HD
HETATM    5  C7  UNL     1       2.299   1.384   0.432  1.00  0.00     0.176 C 
HETATM    6  C12 UNL     1       2.635   2.365  -0.670  1.00  0.00     0.246 C 
HETATM    7  O2  UNL     1       3.834   2.770  -0.615  1.00  0.00    -0.271 OA
HETATM    8  N3  UNL     1       1.780   2.833  -1.686  1.00  0.00    -0.311 N 
ATOM      9  H3  UNL     1       2.024   2.493  -2.616  1.00  0.00     0.170 HD
HETATM   10  C13 UNL     1       0.627   3.699  -1.668  1.00  0.00     0.117 C 
HETATM   11  N4  UNL     1      -0.652   3.073  -1.906  1.00  0.00    -0.308 N 
ATOM     12  H4  UNL     1      -0.647   2.515  -2.760  1.00  0.00     0.171 HD
HETATM   13  C15 UNL     1      -1.893   3.034  -1.270  1.00  0.00     0.219 C 
HETATM   14  N5  UNL     1      -2.474   2.341  -0.216  1.00  0.00    -0.341 N 
ATOM     15  H5  UNL     1      -2.586   2.890   0.636  1.00  0.00     0.164 HD
HETATM   16  C16 UNL     1      -2.966   0.930  -0.109  1.00  0.00     0.183 C 
HETATM   17  C21 UNL     1      -2.479   0.347   1.153  1.00  0.00     0.141 C 
HETATM   18  N6  UNL     1      -1.697  -0.784   1.456  1.00  0.00    -0.355 N 
HETATM   19  C22 UNL     1      -2.137  -1.741   2.488  1.00  0.00     0.152 C 
ENDROOT
BRANCH   5  20
HETATM   20  C8  UNL     1       3.149   0.193   0.503  1.00  0.00     0.035 C 
BRANCH  20  21
HETATM   21  C9  UNL     1       4.604   0.309   0.593  1.00  0.00     0.004 C 
BRANCH  21  22
HETATM   22  C10 UNL     1       5.169  -1.124   0.668  1.00  0.00     0.027 C 
BRANCH  22  23
HETATM   23  C11 UNL     1       6.672  -1.090   0.764  1.00  0.00     0.229 C 
BRANCH  23  24
HETATM   24  N2  UNL     1       7.242  -0.439  -0.381  1.00  0.00    -0.079 N 
ATOM     25  H23 UNL     1       6.929  -0.867  -1.253  1.00  0.00     0.274 HD
ATOM     26  H22 UNL     1       6.852   0.493  -0.518  1.00  0.00     0.274 HD
ATOM     27  H21 UNL     1       8.260  -0.416  -0.316  1.00  0.00     0.274 HD
ENDBRANCH  23  24
ENDBRANCH  22  23
ENDBRANCH  21  22
ENDBRANCH  20  21
ENDBRANCH   5  20
BRANCH   2  28
HETATM   28  O1  UNL     1      -0.134  -0.360  -1.213  1.00  0.00    -0.348 OA
ATOM     29  H1  UNL     1       0.232   0.320  -1.767  1.00  0.00     0.219 HD
ENDBRANCH   2  28
BRANCH   1  30
HETATM   30  C3  UNL     1      -0.437  -2.500   0.229  1.00  0.00     0.012 C 
HETATM   31  C4  UNL     1      -1.339  -2.642  -0.937  1.00  0.00     0.012 C 
BRANCH  30  32
HETATM   32  C2  UNL     1       0.956  -2.958  -0.153  1.00  0.00     0.002 C 
HETATM   33  C1  UNL     1       0.897  -4.408  -0.580  1.00  0.00     0.005 C 
ENDBRANCH  30  32
ENDBRANCH   1  30
BRANCH  10  34
HETATM   34  C14 UNL     1       0.715   4.935  -0.870  1.00  0.00     0.104 C 
HETATM   35 BR1  UNL     1       1.017   4.948   0.970  1.00  0.00    -0.060 Br
ENDBRANCH  10  34
BRANCH  17  36
HETATM   36  O4  UNL     1      -2.875   1.059   2.168  1.00  0.00    -0.348 OA
ATOM     37  H4  UNL     1      -2.561   0.683   2.982  1.00  0.00     0.219 HD
ENDBRANCH  17  36
BRANCH  13  38
HETATM   38  O3  UNL     1      -2.750   3.896  -1.828  1.00  0.00    -0.332 OA
ATOM     39  H3  UNL     1      -3.595   3.869  -1.395  1.00  0.00     0.220 HD
ENDBRANCH  13  38
BRANCH  16  40
HETATM   40  C17 UNL     1      -4.469   1.098  -0.065  1.00  0.00     0.008 C 
HETATM   41  C18 UNL     1      -5.389  -0.003  -0.011  1.00  0.00    -0.089 C 
HETATM   42  C19 UNL     1      -5.327  -1.015  -1.133  1.00  0.00     0.042 C 
HETATM   43  C20 UNL     1      -5.638  -0.704   1.277  1.00  0.00     0.042 C 
ENDBRANCH  16  40
TORSDOF 12
