REMARK  9 active torsions:
REMARK  status: ('A' for Active; 'I' for Inactive)
REMARK    1  A    between atoms: C2_2  and  N1_3 
REMARK    2  A    between atoms: C2_2  and  C8_18 
REMARK       I    between atoms: N1_3  and  C3_5 
REMARK    3  A    between atoms: C3_5  and  C4_7 
REMARK    4  A    between atoms: C6_12  and  C7_13 
REMARK       I    between atoms: C8_18  and  N4_20 
REMARK    5  A    between atoms: C12_24  and  C13_25 
REMARK       I    between atoms: C13_25  and  N5_27 
REMARK    6  A    between atoms: N5_27  and  C14_29 
REMARK    7  A    between atoms: C14_29  and  C15_30 
REMARK    8  A    between atoms: C14_29  and  C22_37 
REMARK    9  A    between atoms: C15_30  and  C16_31 
ROOT
HETATM    1  C8  UNL     1       0.866   0.988   1.291  1.00  0.00     0.243 C 
HETATM    2  O2  UNL     1       0.712   1.557   0.186  1.00  0.00    -0.271 OA
HETATM    3  N4  UNL     1      -0.129   1.034   2.287  1.00  0.00    -0.337 N 
HETATM    4  C9  UNL     1       0.003   0.357   3.585  1.00  0.00     0.127 C 
HETATM    5  C10 UNL     1      -1.004   0.988   4.513  1.00  0.00     0.022 C 
HETATM    6  C11 UNL     1      -1.427   2.216   3.744  1.00  0.00     0.037 C 
HETATM    7  C12 UNL     1      -1.388   1.696   2.327  1.00  0.00     0.179 C 
ENDROOT
BRANCH   1   8
HETATM    8  C2  UNL     1       2.171   0.260   1.496  1.00  0.00     0.172 C 
HETATM    9  C1  UNL     1       2.011  -1.167   1.865  1.00  0.00     0.042 C 
BRANCH   8  10
HETATM   10  N1  UNL     1       3.037   0.421   0.345  1.00  0.00    -0.345 N 
HETATM   11  C3  UNL     1       4.006   1.487   0.289  1.00  0.00     0.277 C 
HETATM   12  O1  UNL     1       4.043   2.268   1.283  1.00  0.00    -0.269 OA
ATOM     13  H1  UNL     1       2.960  -0.229  -0.437  1.00  0.00     0.163 HD
BRANCH  11  14
HETATM   14  C4  UNL     1       4.899   1.660  -0.857  1.00  0.00     0.473 C 
HETATM   15  N2  UNL     1       5.131   3.087  -1.195  1.00  0.00    -0.035 N 
HETATM   16  C5  UNL     1       6.307   2.931  -2.075  1.00  0.00     0.269 C 
ATOM     17  H22 UNL     1       4.337   3.591  -1.590  1.00  0.00     0.280 HD
ATOM     18  H21 UNL     1       5.240   3.725  -0.406  1.00  0.00     0.280 HD
HETATM   19  C6  UNL     1       7.076   1.795  -1.469  1.00  0.00     0.224 C 
HETATM   20  N3  UNL     1       6.267   1.367  -0.354  1.00  0.00    -0.031 N 
ATOM     21  H32 UNL     1       6.502   1.791   0.544  1.00  0.00     0.280 HD
ATOM     22  H31 UNL     1       6.422   0.407  -0.045  1.00  0.00     0.280 HD
BRANCH  19  23
HETATM   23  C7  UNL     1       8.466   2.224  -1.041  1.00  0.00     0.120 C 
HETATM   24 BR1  UNL     1       8.301   3.643   0.271  1.00  0.00    -0.094 Br
ENDBRANCH  19  23
ENDBRANCH  11  14
ENDBRANCH   8  10
ENDBRANCH   1   8
BRANCH   7  25
HETATM   25  C13 UNL     1      -2.554   0.928   1.919  1.00  0.00     0.241 C 
HETATM   26  O3  UNL     1      -3.722   1.412   2.163  1.00  0.00    -0.271 OA
HETATM   27  N5  UNL     1      -2.562  -0.327   1.265  1.00  0.00    -0.346 N 
ATOM     28  H5  UNL     1      -1.668  -0.763   1.040  1.00  0.00     0.163 HD
BRANCH  27  29
HETATM   29  C14 UNL     1      -3.779  -1.022   0.900  1.00  0.00     0.174 C 
BRANCH  29  30
HETATM   30  C15 UNL     1      -4.209  -0.766  -0.499  1.00  0.00     0.039 C 
BRANCH  30  31
HETATM   31  C16 UNL     1      -3.290  -1.119  -1.599  1.00  0.00    -0.012 C 
HETATM   32  C17 UNL     1      -2.890  -2.531  -1.765  1.00  0.00     0.005 C 
HETATM   33  C18 UNL     1      -3.912  -3.374  -2.503  1.00  0.00     0.000 C 
HETATM   34  C19 UNL     1      -4.306  -2.713  -3.811  1.00  0.00     0.000 C 
HETATM   35  C20 UNL     1      -4.937  -1.381  -3.403  1.00  0.00     0.000 C 
HETATM   36  C21 UNL     1      -3.796  -0.533  -2.904  1.00  0.00     0.005 C 
ENDBRANCH  30  31
ENDBRANCH  29  30
BRANCH  29  37
HETATM   37  C22 UNL     1      -3.801  -2.386   1.371  1.00  0.00     0.254 C 
HETATM   38  N6  UNL     1      -4.830  -3.342   1.203  1.00  0.00    -0.060 NA
HETATM   39  O4  UNL     1      -2.781  -2.802   2.023  1.00  0.00    -0.275 OA
ENDBRANCH  29  37
ENDBRANCH  27  29
ENDBRANCH   7  25
TORSDOF 9
