REMARK  8 active torsions:
REMARK  status: ('A' for Active; 'I' for Inactive)
REMARK       I    between atoms: C1_4  and  N2_5 
REMARK       I    between atoms: C1_4  and  N6_25 
REMARK    1  A    between atoms: N2_5  and  C2_7 
REMARK    2  A    between atoms: C2_7  and  C3_8 
REMARK    3  A    between atoms: C3_8  and  C4_9 
REMARK    4  A    between atoms: C4_9  and  C5_10 
REMARK    5  A    between atoms: C5_10  and  C6_11 
REMARK    6  A    between atoms: C6_11  and  N3_12 
REMARK       I    between atoms: N3_12  and  C7_14 
REMARK    7  A    between atoms: C7_14  and  C8_16 
REMARK    8  A    between atoms: C8_16  and  N4_17 
ROOT
HETATM    1  N1  UNL     1       3.218   1.489  -2.624  1.00  0.00    -0.235 N 
ATOM      2  H11 UNL     1       4.159   1.095  -2.648  1.00  0.00     0.174 HD
ATOM      3  H12 UNL     1       2.818   1.869  -3.482  1.00  0.00     0.174 HD
HETATM    4  C1  UNL     1       2.594   1.479  -1.508  1.00  0.00     0.670 C 
HETATM    5  N2  UNL     1       1.295   2.023  -1.475  1.00  0.00    -0.227 N 
ATOM      6  H2  UNL     1       1.182   3.025  -1.631  1.00  0.00     0.177 HD
HETATM    7  N6  UNL     1       3.144   0.957  -0.328  1.00  0.00    -0.208 N 
HETATM    8  C15 UNL     1       3.125  -0.463  -0.092  1.00  0.00     0.161 C 
HETATM    9  C16 UNL     1       3.689  -1.314  -1.178  1.00  0.00     0.143 C 
HETATM   10  N7  UNL     1       5.108  -1.228  -1.372  1.00  0.00    -0.360 N 
ATOM     11  H7  UNL     1       5.433  -0.492  -1.999  1.00  0.00     0.162 HD
HETATM   12  C17 UNL     1       6.109  -2.046  -0.795  1.00  0.00     0.217 C 
HETATM   13  O2  UNL     1       6.942  -2.642  -1.571  1.00  0.00    -0.274 OA
HETATM   14  C18 UNL     1       6.293  -2.283   0.654  1.00  0.00     0.103 C 
HETATM   15  C19 UNL     1       7.333  -1.272   1.170  1.00  0.00     0.009 C 
HETATM   16  C20 UNL     1       6.713  -0.314   2.150  1.00  0.00     0.002 C 
HETATM   17  C21 UNL     1       7.142   1.108   2.006  1.00  0.00     0.020 C 
HETATM   18  C22 UNL     1       7.011   1.699   0.646  1.00  0.00     0.122 C 
HETATM   19  N8  UNL     1       6.094   2.813   0.548  1.00  0.00    -0.360 N 
ATOM     20  H8  UNL     1       6.459   3.730   0.806  1.00  0.00     0.162 HD
HETATM   21  C23 UNL     1       4.747   2.763   0.132  1.00  0.00     0.236 C 
HETATM   22  O3  UNL     1       4.362   3.575  -0.782  1.00  0.00    -0.272 OA
HETATM   23  C24 UNL     1       3.705   1.851   0.653  1.00  0.00     0.244 C 
ENDROOT
BRANCH   5  24
HETATM   24  C2  UNL     1       0.097   1.211  -1.226  1.00  0.00     0.138 C 
BRANCH  24  25
HETATM   25  C3  UNL     1      -0.173   0.282  -2.345  1.00  0.00     0.020 C 
BRANCH  25  26
HETATM   26  C4  UNL     1      -1.361  -0.588  -2.280  1.00  0.00     0.003 C 
BRANCH  26  27
HETATM   27  C5  UNL     1      -1.509  -1.621  -1.254  1.00  0.00     0.020 C 
BRANCH  27  28
HETATM   28  C6  UNL     1      -1.539  -1.284   0.182  1.00  0.00     0.122 C 
BRANCH  28  29
HETATM   29  N3  UNL     1      -2.526  -0.337   0.601  1.00  0.00    -0.360 N 
HETATM   30  C7  UNL     1      -3.935  -0.568   0.444  1.00  0.00     0.245 C 
HETATM   31  O1  UNL     1      -4.276  -1.639  -0.074  1.00  0.00    -0.272 OA
ATOM     32  H3  UNL     1      -2.217   0.536   1.028  1.00  0.00     0.162 HD
BRANCH  30  33
HETATM   33  C8  UNL     1      -4.924   0.421   0.880  1.00  0.00     0.362 C 
BRANCH  33  34
HETATM   34  N4  UNL     1      -6.292   0.085   0.675  1.00  0.00     0.019 N 
HETATM   35  C9  UNL     1      -6.625  -0.454  -0.611  1.00  0.00     0.261 C 
HETATM   36  C10 UNL     1      -8.107  -0.110  -0.832  1.00  0.00     0.036 C 
HETATM   37  C11 UNL     1      -8.774  -0.261   0.536  1.00  0.00     0.005 C 
HETATM   38  C12 UNL     1      -8.109  -1.389   1.310  1.00  0.00     0.036 C 
HETATM   39  C14 UNL     1      -8.385   1.016   1.296  1.00  0.00     0.147 C 
HETATM   40  C13 UNL     1      -6.707  -0.892   1.667  1.00  0.00     0.261 C 
HETATM   41  N5  UNL     1      -7.019   1.294   0.865  1.00  0.00    -0.046 NA
ENDBRANCH  33  34
ENDBRANCH  30  33
ENDBRANCH  28  29
ENDBRANCH  27  28
ENDBRANCH  26  27
ENDBRANCH  25  26
ENDBRANCH  24  25
ENDBRANCH   5  24
TORSDOF 8
