REMARK  5 active torsions:
REMARK  status: ('A' for Active; 'I' for Inactive)
REMARK    1  A    between atoms: O1_2  and  C2_3 
REMARK    2  A    between atoms: C13_15  and  C14_16 
REMARK    3  A    between atoms: C14_16  and  O3_17 
REMARK    4  A    between atoms: O3_17  and  C15_18 
REMARK    5  A    between atoms: C15_18  and  C16_20 
ROOT
HETATM    1  C2  UNL     1      -4.739   0.827  -0.155  1.00  0.00     0.150 C 
HETATM    2  C3  UNL     1      -4.813   1.796   1.003  1.00  0.00     0.034 C 
HETATM    3  C4  UNL     1      -3.480   2.498   1.170  1.00  0.00     0.003 C 
HETATM    4  C5  UNL     1      -2.332   1.611   0.745  1.00  0.00     0.008 C 
HETATM    5  C6  UNL     1      -2.658   0.163   1.049  1.00  0.00     0.022 C 
HETATM    6  C7  UNL     1      -1.432  -0.698   0.885  1.00  0.00     0.001 C 
HETATM    7  C8  UNL     1      -1.705  -1.999   1.610  1.00  0.00     0.009 C 
HETATM    8  C9  UNL     1      -2.613  -2.726   0.646  1.00  0.00     0.038 C 
HETATM    9  C10 UNL     1      -2.552  -2.005  -0.665  1.00  0.00     0.064 C 
HETATM   10  C11 UNL     1      -2.490  -2.961  -1.800  1.00  0.00     0.046 C 
HETATM   11  O2  UNL     1      -3.556  -1.066  -0.828  1.00  0.00    -0.372 OA
HETATM   12  C12 UNL     1      -3.851  -0.339   0.292  1.00  0.00     0.155 C 
HETATM   13  C13 UNL     1      -1.259  -1.184  -0.535  1.00  0.00     0.049 C 
ENDROOT
BRANCH  13  14
HETATM   14  C14 UNL     1      -0.098  -2.130  -0.625  1.00  0.00     0.186 C 
BRANCH  14  15
HETATM   15  O3  UNL     1       1.128  -1.585  -0.244  1.00  0.00    -0.320 OA
BRANCH  15  16
HETATM   16  C15 UNL     1       1.728  -0.493  -0.853  1.00  0.00     0.267 C 
HETATM   17  O4  UNL     1       1.109   0.027  -1.813  1.00  0.00    -0.264 OA
BRANCH  16  18
HETATM   18  C16 UNL     1       3.039   0.049  -0.404  1.00  0.00     0.049 C 
HETATM   19  C17 UNL     1       3.387   1.229  -1.284  1.00  0.00     0.024 C 
HETATM   20  C18 UNL     1       4.739   1.770  -0.912  1.00  0.00    -0.013 C 
HETATM   21  C19 UNL     1       5.790   0.693  -1.008  1.00  0.00     0.009 C 
HETATM   22  C23 UNL     1       4.699   2.253   0.522  1.00  0.00     0.009 C 
HETATM   23  C20 UNL     1       5.432  -0.464  -0.079  1.00  0.00    -0.013 C 
HETATM   24  C21 UNL     1       5.306   0.013   1.351  1.00  0.00     0.009 C 
HETATM   25  C25 UNL     1       4.100  -1.001  -0.513  1.00  0.00     0.024 C 
HETATM   26  C22 UNL     1       4.282   1.123   1.415  1.00  0.00    -0.013 C 
HETATM   27  C24 UNL     1       2.934   0.595   1.021  1.00  0.00     0.024 C 
ENDBRANCH  16  18
ENDBRANCH  15  16
ENDBRANCH  14  15
ENDBRANCH  13  14
BRANCH   1  28
HETATM   28  O1  UNL     1      -4.210   1.403  -1.292  1.00  0.00    -0.388 OA
HETATM   29  C1  UNL     1      -5.097   1.388  -2.350  1.00  0.00     0.202 C 
ENDBRANCH   1  28
TORSDOF 5
