REMARK  7 active torsions:
REMARK  status: ('A' for Active; 'I' for Inactive)
REMARK    1  A    between atoms: O1_2  and  C2_3 
REMARK    2  A    between atoms: C5_6  and  S1_7 
REMARK    3  A    between atoms: S1_7  and  C6_10 
REMARK    4  A    between atoms: C6_10  and  C7_11 
REMARK    5  A    between atoms: C7_11  and  O4_12 
REMARK    6  A    between atoms: N1_14  and  O5_16 
REMARK    7  A    between atoms: C10_20  and  C11_21 
ROOT
HETATM    1  C6  UNL     1      -0.093  -1.698  -0.851  1.00  0.00     0.134 C 
HETATM    2  C8  UNL     1      -0.493  -0.483  -1.732  1.00  0.00     0.035 C 
HETATM    3  C9  UNL     1      -1.875  -0.089  -1.240  1.00  0.00     0.007 C 
HETATM    4  C10 UNL     1      -1.620   0.700   0.038  1.00  0.00    -0.007 C 
HETATM    5  C15 UNL     1      -0.675  -0.054   0.951  1.00  0.00     0.007 C 
HETATM    6  C16 UNL     1      -0.556  -1.510   0.533  1.00  0.00     0.035 C 
ENDROOT
BRANCH   1   7
HETATM    7  S1  UNL     1       1.640  -1.925  -1.087  1.00  0.00     0.193 S 
HETATM    8  O2  UNL     1       2.091  -3.268  -0.528  1.00  0.00    -0.221 OA
HETATM    9  O3  UNL     1       1.936  -1.998  -2.571  1.00  0.00    -0.221 OA
BRANCH   7  10
HETATM   10  C5  UNL     1       2.640  -0.671  -0.430  1.00  0.00     0.076 A 
HETATM   11  C4  UNL     1       3.188  -0.748   0.827  1.00  0.00     0.029 A 
HETATM   12  C3  UNL     1       3.984   0.256   1.336  1.00  0.00     0.057 A 
HETATM   13  C2  UNL     1       4.199   1.343   0.509  1.00  0.00     0.141 A 
HETATM   14  N2  UNL     1       3.664   1.415  -0.717  1.00  0.00    -0.345 N 
HETATM   15  C17 UNL     1       2.900   0.437  -1.187  1.00  0.00     0.113 A 
ATOM     16  H2  UNL     1       3.847   2.233  -1.298  1.00  0.00     0.167 HD
BRANCH  13  17
HETATM   17  O1  UNL     1       5.010   2.376   1.014  1.00  0.00    -0.341 OA
HETATM   18  C1  UNL     1       5.277   3.520   0.231  1.00  0.00     0.211 C 
ENDBRANCH  13  17
ENDBRANCH   7  10
ENDBRANCH   1   7
BRANCH   1  19
HETATM   19  C7  UNL     1      -0.755  -2.871  -1.471  1.00  0.00     0.160 C 
HETATM   20  N1  UNL     1      -1.111  -3.948  -0.881  1.00  0.00    -0.250 N 
ATOM     21  H1  UNL     1      -1.563  -4.688  -1.418  1.00  0.00     0.196 HD
BRANCH  19  22
HETATM   22  O4  UNL     1      -1.001  -2.762  -2.867  1.00  0.00    -0.347 OA
ATOM     23  H4  UNL     1      -1.425  -3.514  -3.264  1.00  0.00     0.219 HD
ENDBRANCH  19  22
BRANCH  20  24
HETATM   24  O5  UNL     1      -0.897  -4.122   0.446  1.00  0.00    -0.288 OA
ATOM     25  H5  UNL     1      -1.162  -4.922   0.884  1.00  0.00     0.244 HD
ENDBRANCH  20  24
ENDBRANCH   1  19
BRANCH   4  26
HETATM   26  C11 UNL     1      -2.902   1.094   0.703  1.00  0.00    -0.048 C 
HETATM   27  C12 UNL     1      -3.676   1.955  -0.281  1.00  0.00     0.015 C 
HETATM   28  C13 UNL     1      -3.727  -0.082   1.144  1.00  0.00     0.015 C 
HETATM   29  C14 UNL     1      -2.615   1.935   1.921  1.00  0.00     0.015 C 
ENDBRANCH   4  26
TORSDOF 7
