REMARK  2 active torsions:
REMARK  status: ('A' for Active; 'I' for Inactive)
REMARK       I    between atoms: N1_2  and  C2_4 
REMARK       I    between atoms: C2_4  and  N2_6 
REMARK    1  A    between atoms: N2_6  and  C3_8 
REMARK    2  A    between atoms: C6_14  and  N4_15 
REMARK       I    between atoms: N4_15  and  C7_17 
REMARK       I    between atoms: C7_17  and  N5_19 
ROOT
HETATM    1  C3  UNL     1      -0.711  -1.338  -0.235  1.00  0.00     0.136 C 
HETATM    2  C4  UNL     1      -1.200  -2.593  -0.904  1.00  0.00     0.150 C 
HETATM    3  N3  UNL     1       0.020  -3.374  -0.990  1.00  0.00    -0.357 N 
ATOM      4  H3  UNL     1       0.121  -4.381  -0.864  1.00  0.00     0.162 HD
HETATM    5  C5  UNL     1       1.046  -2.434  -1.288  1.00  0.00     0.242 C 
HETATM    6  O2  UNL     1       2.166  -2.766  -1.777  1.00  0.00    -0.271 OA
HETATM    7  C6  UNL     1       0.602  -1.060  -0.943  1.00  0.00     0.202 C 
ENDROOT
BRANCH   1   8
HETATM    8  N2  UNL     1      -1.632  -0.245  -0.348  1.00  0.00    -0.334 N 
HETATM    9  C2  UNL     1      -2.154   0.362   0.803  1.00  0.00     0.316 C 
HETATM   10  N1  UNL     1      -3.070   1.448   0.773  1.00  0.00    -0.347 N 
HETATM   11  O1  UNL     1      -1.809  -0.058   1.934  1.00  0.00    -0.247 OA
HETATM   12  C1  UNL     1      -3.601   2.067   1.965  1.00  0.00     0.151 C 
ATOM     13  H1  UNL     1      -3.367   1.808  -0.134  1.00  0.00     0.163 HD
ATOM     14  H2  UNL     1      -1.909   0.093  -1.270  1.00  0.00     0.164 HD
ENDBRANCH   1   8
BRANCH   7  15
HETATM   15  N4  UNL     1       1.568  -0.508  -0.031  1.00  0.00    -0.328 N 
HETATM   16  C7  UNL     1       2.256   0.713  -0.257  1.00  0.00     0.316 C 
HETATM   17  O3  UNL     1       1.992   1.333  -1.320  1.00  0.00    -0.247 OA
HETATM   18  N5  UNL     1       3.198   1.238   0.648  1.00  0.00    -0.347 N 
HETATM   19  C8  UNL     1       3.870   2.483   0.372  1.00  0.00     0.151 C 
ATOM     20  H5  UNL     1       3.407   0.732   1.508  1.00  0.00     0.163 HD
ATOM     21  H4  UNL     1       1.770  -1.023   0.826  1.00  0.00     0.165 HD
ENDBRANCH   7  15
TORSDOF 2
