REMARK  6 active torsions:
REMARK  status: ('A' for Active; 'I' for Inactive)
REMARK    1  A    between atoms: C3_5  and  C4_6 
REMARK    2  A    between atoms: C14_17  and  O2_18 
REMARK    3  A    between atoms: C15_20  and  N2_21 
REMARK    4  A    between atoms: N2_21  and  C16_23 
REMARK    5  A    between atoms: C16_23  and  C17_24 
REMARK    6  A    between atoms: C20_28  and  O4_29 
ROOT
HETATM    1  C4  UNL     1       5.330   0.386  -0.764  1.00  0.00     0.312 C 
HETATM    2  O1  UNL     1       4.916  -0.607  -1.593  1.00  0.00    -0.352 OA
HETATM    3  C5  UNL     1       3.548  -0.765  -1.373  1.00  0.00     0.209 C 
HETATM    4  C6  UNL     1       3.303  -0.042  -0.082  1.00  0.00     0.086 C 
HETATM    5  C7  UNL     1       2.501  -0.901   0.879  1.00  0.00     0.041 C 
HETATM    6  C8  UNL     1       1.208  -1.253   0.207  1.00  0.00     0.009 C 
HETATM    7  C9  UNL     1       0.379  -0.091  -0.253  1.00  0.00    -0.002 C 
HETATM    8  C10 UNL     1       1.127   1.066  -0.756  1.00  0.00    -0.007 C 
HETATM    9  C11 UNL     1       0.506   2.419  -0.563  1.00  0.00     0.005 C 
HETATM   10  C12 UNL     1      -0.979   2.406  -0.529  1.00  0.00     0.008 C 
HETATM   11  C13 UNL     1      -1.630   1.298   0.201  1.00  0.00     0.025 C 
HETATM   12  C14 UNL     1      -2.601   0.652  -0.758  1.00  0.00     0.145 C 
HETATM   13  C15 UNL     1      -3.729   0.095   0.184  1.00  0.00     0.110 C 
HETATM   14  C21 UNL     1      -3.036  -0.826   1.094  1.00  0.00     0.028 C 
HETATM   15  C22 UNL     1      -1.555  -1.034   0.846  1.00  0.00     0.012 C 
HETATM   16  C23 UNL     1      -0.730   0.230   0.765  1.00  0.00    -0.034 C 
HETATM   17  C24 UNL     1      -0.185   0.532   2.106  1.00  0.00     0.016 C 
HETATM   18  C25 UNL     1       2.531   1.218  -0.236  1.00  0.00     0.045 C 
HETATM   19  O5  UNL     1       4.542   0.274   0.417  1.00  0.00    -0.342 OA
ENDROOT
BRANCH   1  20
HETATM   20  C3  UNL     1       6.758   0.198  -0.280  1.00  0.00     0.071 A 
HETATM   21  N1  UNL     1       7.150  -0.952   0.174  1.00  0.00    -0.353 N 
HETATM   22  C2  UNL     1       8.389  -1.101   0.598  1.00  0.00     0.047 A 
ATOM     23  H1  UNL     1       6.501  -1.739   0.203  1.00  0.00     0.166 HD
HETATM   24  C1  UNL     1       9.022  -2.349   1.167  1.00  0.00     0.076 C 
HETATM   25  S1  UNL     1       9.056   0.445   0.348  1.00  0.00    -0.087 SA
HETATM   26  C26 UNL     1       7.674   1.210  -0.297  1.00  0.00     0.081 A 
ENDBRANCH   1  20
BRANCH  12  27
HETATM   27  O2  UNL     1      -3.173   1.584  -1.589  1.00  0.00    -0.393 OA
ATOM     28  H2  UNL     1      -3.784   1.178  -2.192  1.00  0.00     0.210 HD
ENDBRANCH  12  27
BRANCH  13  29
HETATM   29  N2  UNL     1      -4.802  -0.152  -0.638  1.00  0.00    -0.391 N 
ATOM     30  H2  UNL     1      -4.895   0.483  -1.431  1.00  0.00     0.159 HD
BRANCH  29  31
HETATM   31  C16 UNL     1      -5.789  -1.145  -0.553  1.00  0.00     0.099 C 
BRANCH  31  32
HETATM   32  C17 UNL     1      -7.044  -0.617   0.016  1.00  0.00     0.039 A 
HETATM   33  C18 UNL     1      -7.182   0.589   0.645  1.00  0.00     0.042 A 
HETATM   34  C19 UNL     1      -8.491   0.658   1.149  1.00  0.00     0.146 A 
HETATM   35  O3  UNL     1      -9.055  -0.435   0.823  1.00  0.00    -0.300 OA
HETATM   36  C20 UNL     1      -8.277  -1.264   0.142  1.00  0.00     0.194 A 
BRANCH  36  37
HETATM   37  O4  UNL     1      -8.671  -2.498  -0.328  1.00  0.00    -0.340 OA
ATOM     38  H4  UNL     1      -9.509  -2.938  -0.242  1.00  0.00     0.220 HD
ENDBRANCH  36  37
ENDBRANCH  31  32
ENDBRANCH  29  31
ENDBRANCH  13  29
TORSDOF 6
