REMARK  18 active torsions:
REMARK  status: ('A' for Active; 'I' for Inactive)
REMARK    1  A    between atoms: C2_2  and  C3_3 
REMARK    2  A    between atoms: C3_3  and  C4_4 
REMARK    3  A    between atoms: C4_4  and  N1_5 
REMARK    4  A    between atoms: C4_4  and  C12_17 
REMARK       I    between atoms: N1_5  and  C5_7 
REMARK    5  A    between atoms: C5_7  and  C6_9 
REMARK    6  A    between atoms: C6_9  and  C7_11 
REMARK    7  A    between atoms: C7_11  and  O3_12 
REMARK    8  A    between atoms: O3_12  and  C8_13 
REMARK    9  A    between atoms: C12_17  and  N2_18 
REMARK   10  A    between atoms: N2_18  and  C13_19 
REMARK   11  A    between atoms: N2_18  and  C18_29 
REMARK   12  A    between atoms: C13_19  and  O4_20 
REMARK   13  A    between atoms: C13_19  and  C14_22 
REMARK   14  A    between atoms: C18_29  and  C21_32 
REMARK   15  A    between atoms: C24_35  and  C25_36 
REMARK   16  A    between atoms: C25_36  and  O6_37 
REMARK   17  A    between atoms: C25_36  and  N4_39 
REMARK   18  A    between atoms: C29_43  and  C30_44 
ROOT
HETATM    1  N2  UNL     1      -0.992  -1.055   0.146  1.00  0.00    -0.332 N 
ENDROOT
BRANCH   1   2
HETATM    2  C12 UNL     1       0.068  -1.892   0.626  1.00  0.00     0.078 A 
HETATM    3  C31 UNL     1      -0.348  -3.355   0.807  1.00  0.00     0.045 A 
HETATM    4  C32 UNL     1       0.284  -2.527   1.912  1.00  0.00     0.018 A 
HETATM    5  C33 UNL     1      -0.296  -2.763   3.215  1.00  0.00     0.013 C 
BRANCH   2   6
HETATM    6  C4  UNL     1       1.455  -1.802  -0.101  1.00  0.00     0.019 C 
BRANCH   6   7
HETATM    7  C3  UNL     1       1.568  -2.074  -1.512  1.00  0.00     0.055 C 
BRANCH   7   8
HETATM    8  C2  UNL     1       2.843  -2.794  -1.969  1.00  0.00     0.001 C 
HETATM    9  C1  UNL     1       2.975  -4.141  -1.285  1.00  0.00     0.005 C 
ENDBRANCH   7   8
ENDBRANCH   6   7
BRANCH   6  10
HETATM   10  N1  UNL     1       2.343  -0.969   0.628  1.00  0.00    -0.325 N 
HETATM   11  C5  UNL     1       3.388  -0.133   0.282  1.00  0.00     0.293 C 
HETATM   12  O1  UNL     1       3.822   0.116  -0.869  1.00  0.00    -0.264 OA
ATOM     13  H1  UNL     1       2.172  -0.992   1.633  1.00  0.00     0.169 HD
BRANCH  11  14
HETATM   14  C6  UNL     1       4.103   0.568   1.375  1.00  0.00     0.240 C 
HETATM   15  O2  UNL     1       3.741   0.386   2.581  1.00  0.00    -0.285 OA
BRANCH  14  16
HETATM   16  C7  UNL     1       5.226   1.470   1.097  1.00  0.00     0.257 C 
BRANCH  16  17
HETATM   17  O3  UNL     1       5.477   1.547  -0.242  1.00  0.00    -0.373 OA
BRANCH  17  18
HETATM   18  C8  UNL     1       6.508   2.363  -0.623  1.00  0.00     0.050 C 
HETATM   19  C9  UNL     1       7.839   1.954  -0.032  1.00  0.00     0.045 C 
HETATM   20  C10 UNL     1       6.212   3.811  -0.277  1.00  0.00     0.045 C 
HETATM   21  C11 UNL     1       6.627   2.283  -2.138  1.00  0.00     0.045 C 
ENDBRANCH  17  18
ENDBRANCH  16  17
ENDBRANCH  14  16
ENDBRANCH  11  14
ENDBRANCH   6  10
ENDBRANCH   2   6
ENDBRANCH   1   2
BRANCH   1  22
HETATM   22  C13 UNL     1      -1.915  -1.395  -0.861  1.00  0.00     0.169 C 
BRANCH  22  23
HETATM   23  O4  UNL     1      -2.774  -0.440  -1.209  1.00  0.00    -0.344 OA
ATOM     24  H4  UNL     1      -3.397  -0.669  -1.889  1.00  0.00     0.219 HD
ENDBRANCH  22  23
BRANCH  22  25
HETATM   25  C14 UNL     1      -2.219  -2.545  -1.667  1.00  0.00     0.107 A 
HETATM   26  C15 UNL     1      -3.242  -2.559  -2.638  1.00  0.00     0.178 A 
HETATM   27  O5  UNL     1      -3.274  -3.737  -3.204  1.00  0.00    -0.308 OA
HETATM   28  C16 UNL     1      -2.371  -4.509  -2.702  1.00  0.00     0.119 A 
HETATM   29  C17 UNL     1      -2.074  -5.920  -3.062  1.00  0.00     0.098 C 
HETATM   30  N3  UNL     1      -1.757  -3.791  -1.797  1.00  0.00    -0.336 N 
ATOM     31  H3  UNL     1      -0.987  -4.154  -1.235  1.00  0.00     0.168 HD
ENDBRANCH  22  25
ENDBRANCH   1  22
BRANCH   1  32
HETATM   32  C18 UNL     1      -1.145   0.350   0.610  1.00  0.00     0.057 C 
HETATM   33  C19 UNL     1      -0.298   0.767   1.736  1.00  0.00     0.044 C 
HETATM   34  C20 UNL     1      -0.463   1.133  -0.583  1.00  0.00     0.044 C 
BRANCH  32  35
HETATM   35  C21 UNL     1      -2.449   0.972   0.710  1.00  0.00    -0.014 A 
HETATM   36  C22 UNL     1      -2.752   2.134  -0.017  1.00  0.00     0.012 A 
HETATM   37  C23 UNL     1      -3.977   2.789   0.019  1.00  0.00     0.016 A 
HETATM   38  C24 UNL     1      -4.994   2.344   0.778  1.00  0.00     0.016 A 
HETATM   39  C28 UNL     1      -4.725   1.183   1.524  1.00  0.00     0.034 A 
HETATM   40  C29 UNL     1      -3.506   0.545   1.479  1.00  0.00     0.050 A 
BRANCH  38  41
HETATM   41  C25 UNL     1      -6.286   2.941   0.866  1.00  0.00     0.147 C 
BRANCH  41  42
HETATM   42  O6  UNL     1      -7.113   2.331   1.690  1.00  0.00    -0.346 OA
ATOM     43  H6  UNL     1      -7.974   2.729   1.749  1.00  0.00     0.219 HD
ENDBRANCH  41  42
BRANCH  41  44
HETATM   44  N4  UNL     1      -6.849   4.049   0.246  1.00  0.00    -0.370 N 
HETATM   45  C26 UNL     1      -6.212   4.922  -0.698  1.00  0.00     0.151 C 
HETATM   46  C27 UNL     1      -8.265   4.403   0.563  1.00  0.00     0.151 C 
ENDBRANCH  41  44
ENDBRANCH  38  41
BRANCH  40  47
HETATM   47  C30 UNL     1      -3.360  -0.587   2.370  1.00  0.00     0.210 C 
HETATM   48  O7  UNL     1      -3.779  -1.740   2.213  1.00  0.00    -0.644 OA
HETATM   49  O8  UNL     1      -2.672  -0.321   3.538  1.00  0.00    -0.644 OA
ENDBRANCH  40  47
ENDBRANCH  32  35
ENDBRANCH   1  32
TORSDOF 18
