REMARK  9 active torsions:
REMARK  status: ('A' for Active; 'I' for Inactive)
REMARK    1  A    between atoms: C2_2  and  C3_3 
REMARK    2  A    between atoms: C3_3  and  C5_5 
REMARK    3  A    between atoms: C5_5  and  C6_6 
REMARK    4  A    between atoms: C6_6  and  C7_7 
REMARK    5  A    between atoms: C7_7  and  N1_8 
REMARK    6  A    between atoms: C7_7  and  C12_19 
REMARK       I    between atoms: N1_8  and  C8_10 
REMARK    7  A    between atoms: C8_10  and  C9_12 
REMARK    8  A    between atoms: C9_12  and  N2_15 
REMARK    9  A    between atoms: C18_28  and  C19_29 
ROOT
HETATM    1  C7  UNL     1      -0.383   0.494   0.539  1.00  0.00     0.100 C 
ENDROOT
BRANCH   1   2
HETATM    2  C6  UNL     1      -0.712   1.121   1.868  1.00  0.00     0.026 C 
BRANCH   2   3
HETATM    3  C5  UNL     1      -2.156   1.084   2.238  1.00  0.00     0.006 C 
BRANCH   3   4
HETATM    4  C3  UNL     1      -3.055   1.819   1.280  1.00  0.00    -0.019 C 
HETATM    5  C4  UNL     1      -4.509   1.648   1.660  1.00  0.00     0.010 C 
BRANCH   4   6
HETATM    6  C2  UNL     1      -2.748   3.278   1.153  1.00  0.00    -0.000 C 
HETATM    7  C1  UNL     1      -3.006   4.004   2.476  1.00  0.00     0.005 C 
ENDBRANCH   4   6
ENDBRANCH   3   4
ENDBRANCH   2   3
ENDBRANCH   1   2
BRANCH   1   8
HETATM    8  N1  UNL     1      -0.707  -0.890   0.411  1.00  0.00    -0.353 N 
HETATM    9  C8  UNL     1      -1.582  -1.496  -0.508  1.00  0.00     0.253 C 
HETATM   10  O1  UNL     1      -2.228  -0.853  -1.381  1.00  0.00    -0.271 OA
ATOM     11  H1  UNL     1      -0.246  -1.519   1.069  1.00  0.00     0.163 HD
BRANCH   9  12
HETATM   12  C9  UNL     1      -1.798  -2.967  -0.498  1.00  0.00     0.196 C 
HETATM   13  C10 UNL     1      -0.540  -3.701  -0.939  1.00  0.00     0.056 C 
HETATM   14  C11 UNL     1      -2.238  -3.489   0.845  1.00  0.00     0.056 C 
BRANCH  12  15
HETATM   15  N2  UNL     1      -2.815  -3.302  -1.467  1.00  0.00    -0.062 N 
ATOM     16  H23 UNL     1      -3.680  -2.782  -1.317  1.00  0.00     0.275 HD
ATOM     17  H22 UNL     1      -2.595  -2.949  -2.398  1.00  0.00     0.275 HD
ATOM     18  H21 UNL     1      -2.963  -4.311  -1.460  1.00  0.00     0.275 HD
ENDBRANCH  12  15
ENDBRANCH   9  12
ENDBRANCH   1   8
BRANCH   1  19
HETATM   19  C12 UNL     1       1.041   0.822   0.211  1.00  0.00     0.134 C 
HETATM   20  C13 UNL     1       2.106   0.380   1.121  1.00  0.00     0.230 C 
HETATM   21  O2  UNL     1       2.266   0.135   2.348  1.00  0.00    -0.273 OA
HETATM   22  N3  UNL     1       2.930   0.340  -0.030  1.00  0.00    -0.321 N 
HETATM   23  C14 UNL     1       1.735  -0.221  -0.671  1.00  0.00     0.166 C 
HETATM   24  C18 UNL     1       4.038   0.485  -0.853  1.00  0.00     0.207 C 
HETATM   25  S1  UNL     1       1.881   0.286  -2.403  1.00  0.00    -0.131 SA
HETATM   26  C15 UNL     1       3.712   0.448  -2.302  1.00  0.00     0.033 C 
HETATM   27  C16 UNL     1       4.093   1.692  -3.062  1.00  0.00     0.029 C 
HETATM   28  C17 UNL     1       4.277  -0.758  -3.034  1.00  0.00     0.029 C 
BRANCH  24  29
HETATM   29  C19 UNL     1       5.041  -0.564  -0.574  1.00  0.00     0.198 C 
HETATM   30  O3  UNL     1       6.125  -0.548  -1.173  1.00  0.00    -0.646 OA
HETATM   31  O4  UNL     1       4.771  -1.547   0.343  1.00  0.00    -0.646 OA
ENDBRANCH  24  29
ENDBRANCH   1  19
TORSDOF 9
