REMARK  1 active torsions:
REMARK  status: ('A' for Active; 'I' for Inactive)
REMARK    1  A    between atoms: C5_5  and  N1_6 
ROOT
HETATM    1  C1  UNL     1      -0.509  -0.249  -1.586  1.00  0.00     0.040 C 
HETATM    2  C2  UNL     1      -0.651  -0.144  -0.068  1.00  0.00     0.050 C 
HETATM    3  C3  UNL     1      -1.792  -0.983   0.431  1.00  0.00     0.040 C 
HETATM    4  C4  UNL     1       0.642  -0.584   0.601  1.00  0.00     0.077 C 
HETATM    5  C5  UNL     1       1.717   0.277  -0.081  1.00  0.00     0.268 C 
HETATM    6  S1  UNL     1       0.837   1.895   0.011  1.00  0.00    -0.009 SA
HETATM    7  N2  UNL     1      -0.776   1.245   0.278  1.00  0.00    -0.247 N 
HETATM    8  C6  UNL     1      -1.914   1.883   0.713  1.00  0.00     0.191 C 
HETATM    9  N3  UNL     1      -2.868   2.425   1.094  1.00  0.00    -0.171 NA
ENDROOT
BRANCH   5  10
HETATM   10  N1  UNL     1       2.915   0.297   0.700  1.00  0.00    -0.065 N 
ATOM     11  H13 UNL     1       2.738   0.600   1.658  1.00  0.00     0.275 HD
ATOM     12  H12 UNL     1       3.253  -0.644   0.899  1.00  0.00     0.275 HD
ATOM     13  H11 UNL     1       3.628   0.868   0.247  1.00  0.00     0.275 HD
ENDBRANCH   5  10
TORSDOF 1
