REMARK  0 active torsions:
REMARK  status: ('A' for Active; 'I' for Inactive)
ROOT
HETATM    1  C1  UNL     1       2.810  -1.272  -0.003  1.00  0.00     0.002 C 
HETATM    2  C2  UNL     1       3.365  -0.075   0.661  1.00  0.00     0.003 C 
HETATM    3  C3  UNL     1       2.718   1.212   0.368  1.00  0.00     0.037 C 
HETATM    4  C4  UNL     1       1.268   1.197   0.089  1.00  0.00     0.191 C 
HETATM    5  O1  UNL     1       0.490   1.374   1.259  1.00  0.00    -0.231 OA
HETATM    6  O2  UNL     1      -0.747   1.568   0.818  1.00  0.00    -0.198 OA
HETATM    7  C5  UNL     1      -1.337   0.407   0.362  1.00  0.00     0.275 C 
HETATM    8  C6  UNL     1      -2.430   0.002   1.298  1.00  0.00     0.101 C 
HETATM    9  C7  UNL     1      -3.456  -0.903   0.666  1.00  0.00     0.200 C 
HETATM   10  O3  UNL     1      -3.976  -0.412  -0.511  1.00  0.00    -0.286 OA
HETATM   11  N1  UNL     1      -3.393   0.711  -0.947  1.00  0.00    -0.096 NA
HETATM   12  C8  UNL     1      -1.945   0.567  -1.019  1.00  0.00     0.214 C 
HETATM   13  N2  UNL     1      -0.291  -0.598   0.238  1.00  0.00    -0.032 N 
ATOM     14  H21 UNL     1      -0.627  -1.500  -0.101  1.00  0.00     0.281 HD
ATOM     15  H22 UNL     1       0.065  -0.932   1.134  1.00  0.00     0.281 HD
HETATM   16  C9  UNL     1       0.740   0.011  -0.620  1.00  0.00     0.221 C 
HETATM   17  C10 UNL     1       1.744  -1.009  -1.014  1.00  0.00     0.036 C 
ENDROOT
TORSDOF 0
