REMARK  6 active torsions:
REMARK  status: ('A' for Active; 'I' for Inactive)
REMARK    1  A    between atoms: N1_1  and  N2_4 
REMARK    2  A    between atoms: N2_4  and  C1_5 
REMARK    3  A    between atoms: C1_5  and  C2_6 
REMARK    4  A    between atoms: C6_10  and  C7_11 
REMARK    5  A    between atoms: C7_11  and  C8_12 
REMARK    6  A    between atoms: C8_12  and  N3_13 
ROOT
HETATM    1  C2  UNL     1       1.238   0.750  -0.107  1.00  0.00     0.176 C 
HETATM    2  C3  UNL     1       2.170  -0.427  -0.333  1.00  0.00     0.039 C 
HETATM    3  C4  UNL     1       1.438  -1.659   0.158  1.00  0.00     0.005 C 
HETATM    4  C5  UNL     1       0.123  -1.768  -0.611  1.00  0.00     0.032 C 
HETATM    5  C6  UNL     1      -0.636  -0.447  -0.560  1.00  0.00     0.124 C 
HETATM    6  O1  UNL     1      -0.007   0.379   0.337  1.00  0.00    -0.374 OA
ENDROOT
BRANCH   5   7
HETATM    7  C7  UNL     1      -2.044  -0.776  -0.124  1.00  0.00     0.059 C 
BRANCH   7   8
HETATM    8  C8  UNL     1      -2.916   0.455  -0.031  1.00  0.00     0.232 C 
BRANCH   8   9
HETATM    9  N3  UNL     1      -2.412   1.421   0.916  1.00  0.00    -0.079 N 
ATOM     10  H33 UNL     1      -2.276   0.998   1.834  1.00  0.00     0.274 HD
ATOM     11  H32 UNL     1      -1.446   1.671   0.706  1.00  0.00     0.274 HD
ATOM     12  H31 UNL     1      -3.000   2.252   0.979  1.00  0.00     0.274 HD
ENDBRANCH   8   9
ENDBRANCH   7   8
ENDBRANCH   5   7
BRANCH   1  13
HETATM   13  C1  UNL     1       1.911   1.659   0.845  1.00  0.00     0.212 C 
BRANCH  13  14
HETATM   14  N2  UNL     1       3.072   2.020   0.580  1.00  0.00    -0.347 NA
BRANCH  14  15
HETATM   15  N1  UNL     1       4.269   2.324   0.387  1.00  0.00    -0.281 N 
ATOM     16  H12 UNL     1       4.343   1.670   1.166  1.00  0.00     0.191 HD
ATOM     17  H11 UNL     1       5.221   2.620   0.170  1.00  0.00     0.191 HD
ENDBRANCH  14  15
ENDBRANCH  13  14
ENDBRANCH   1  13
TORSDOF 6
