REMARK  1 active torsions:
REMARK  status: ('A' for Active; 'I' for Inactive)
REMARK    1  A    between atoms: C13_14  and  C14_16 
ROOT
HETATM    1  C1  UNL     1       1.511  -3.345   1.290  1.00  0.00     0.021 C 
HETATM    2  C2  UNL     1       1.070  -2.338   0.587  1.00  0.00    -0.042 C 
HETATM    3  C3  UNL     1       1.731  -1.911  -0.700  1.00  0.00     0.042 C 
HETATM    4  C4  UNL     1       2.107  -0.454  -0.617  1.00  0.00     0.034 C 
HETATM    5  C5  UNL     1       1.046   0.428  -0.047  1.00  0.00     0.136 C 
HETATM    6  N1  UNL     1      -0.201  -0.249   0.270  1.00  0.00    -0.364 N 
HETATM    7  C6  UNL     1      -0.088  -1.503   0.932  1.00  0.00     0.027 C 
HETATM    8  C7  UNL     1      -0.941  -1.954   1.815  1.00  0.00     0.043 C 
HETATM    9  C8  UNL     1      -1.520   0.248  -0.022  1.00  0.00     0.026 C 
HETATM   10  C9  UNL     1      -2.498  -0.831  -0.427  1.00  0.00     0.038 C 
HETATM   11  C10 UNL     1      -2.107   1.081   1.113  1.00  0.00     0.038 C 
HETATM   12  C11 UNL     1      -1.447   1.197  -1.229  1.00  0.00     0.034 C 
HETATM   13  C12 UNL     1      -0.431   2.267  -0.857  1.00  0.00     0.060 C 
HETATM   14  C13 UNL     1       0.910   1.595  -0.971  1.00  0.00     0.211 C 
HETATM   15  F1  UNL     1       1.037   1.184  -2.307  1.00  0.00    -0.229 F 
ENDROOT
BRANCH  14  16
HETATM   16  C14 UNL     1       2.024   2.549  -0.691  1.00  0.00     0.216 C 
HETATM   17  O1  UNL     1       2.859   2.857  -1.579  1.00  0.00    -0.645 OA
HETATM   18  O2  UNL     1       2.076   3.070   0.607  1.00  0.00    -0.645 OA
ENDBRANCH  14  16
TORSDOF 1
