REMARK  10 active torsions:
REMARK  status: ('A' for Active; 'I' for Inactive)
REMARK    1  A    between atoms: C2_2  and  C3_3 
REMARK    2  A    between atoms: C3_3  and  N2_10 
REMARK    3  A    between atoms: N1_4  and  C4_6 
REMARK    4  A    between atoms: C4_6  and  C6_8 
REMARK    5  A    between atoms: N2_10  and  C8_12 
REMARK    6  A    between atoms: C13_19  and  O3_20 
REMARK    7  A    between atoms: C20_29  and  C21_30 
REMARK    8  A    between atoms: C21_30  and  C23_32 
REMARK    9  A    between atoms: C23_32  and  C24_33 
REMARK       I    between atoms: C24_33  and  N3_35 
REMARK   10  A    between atoms: C30_41  and  O6_42 
ROOT
HETATM    1  C8  UNL     1      -2.973  -1.044  -0.223  1.00  0.00     0.127 C 
HETATM    2  C9  UNL     1      -2.590  -0.367   1.065  1.00  0.00     0.032 C 
HETATM    3  C10 UNL     1      -1.248   0.297   1.055  1.00  0.00     0.044 C 
HETATM    4  C11 UNL     1      -0.070  -0.636   1.223  1.00  0.00     0.100 C 
HETATM    5  O1  UNL     1      -0.709  -1.858   1.677  1.00  0.00    -0.305 OA
HETATM    6  C12 UNL     1      -1.522  -2.619   0.850  1.00  0.00     0.296 C 
HETATM    7  O2  UNL     1      -1.781  -3.775   1.313  1.00  0.00    -0.262 OA
HETATM    8  C13 UNL     1      -2.123  -2.268  -0.489  1.00  0.00     0.165 C 
HETATM    9  C14 UNL     1      -1.065  -2.056  -1.495  1.00  0.00     0.051 C 
HETATM   10  C15 UNL     1      -0.152  -0.878  -1.299  1.00  0.00     0.011 C 
HETATM   11  C16 UNL     1       0.665  -0.971  -0.024  1.00  0.00     0.029 C 
HETATM   12  C17 UNL     1       2.000  -0.375  -0.224  1.00  0.00     0.008 C 
HETATM   13  C18 UNL     1       2.296   0.314  -1.497  1.00  0.00     0.084 C 
HETATM   14  C19 UNL     1       3.379   1.292  -1.090  1.00  0.00     0.132 C 
HETATM   15  O4  UNL     1       3.767   2.163  -1.825  1.00  0.00    -0.298 OA
HETATM   16  C20 UNL     1       3.800   0.947   0.304  1.00  0.00     0.068 C 
HETATM   17  C27 UNL     1       2.439   0.646   0.817  1.00  0.00    -0.026 C 
HETATM   18  C28 UNL     1       1.682   1.975   0.667  1.00  0.00     0.016 C 
HETATM   19  C29 UNL     1       2.222   0.043   2.116  1.00  0.00     0.045 C 
HETATM   20  C30 UNL     1       0.752  -0.171   2.362  1.00  0.00     0.154 C 
ENDROOT
BRANCH   1  21
HETATM   21  N2  UNL     1      -4.362  -1.459  -0.076  1.00  0.00    -0.372 N 
ATOM     22  H2  UNL     1      -4.586  -2.451  -0.152  1.00  0.00     0.161 HD
BRANCH  21  23
HETATM   23  C3  UNL     1      -5.419  -0.538   0.169  1.00  0.00     0.073 C 
HETATM   24  N1  UNL     1      -5.770   0.211  -0.815  1.00  0.00    -0.376 N 
ATOM     25  H1  UNL     1      -5.259   0.081  -1.688  1.00  0.00     0.161 HD
BRANCH  23  26
HETATM   26  C2  UNL     1      -6.084  -0.447   1.491  1.00  0.00     0.071 C 
HETATM   27  C1  UNL     1      -6.697  -1.806   1.763  1.00  0.00     0.013 C 
ENDBRANCH  23  26
BRANCH  24  28
HETATM   28  C4  UNL     1      -6.794   1.203  -0.821  1.00  0.00     0.078 C 
HETATM   29  C5  UNL     1      -6.311   2.542  -0.303  1.00  0.00     0.032 C 
BRANCH  28  30
HETATM   30  C6  UNL     1      -7.328   1.362  -2.252  1.00  0.00     0.020 C 
HETATM   31  C7  UNL     1      -8.412   2.416  -2.241  1.00  0.00     0.007 C 
ENDBRANCH  28  30
ENDBRANCH  24  28
ENDBRANCH  21  23
ENDBRANCH   1  21
BRANCH   8  32
HETATM   32  O3  UNL     1      -2.918  -3.318  -0.870  1.00  0.00    -0.377 OA
ATOM     33  H3  UNL     1      -2.385  -4.086  -1.037  1.00  0.00     0.211 HD
ENDBRANCH   8  32
BRANCH  20  34
HETATM   34  O6  UNL     1       0.702  -1.042   3.485  1.00  0.00    -0.392 OA
ATOM     35  H6  UNL     1       1.230  -0.743   4.216  1.00  0.00     0.210 HD
ENDBRANCH  20  34
BRANCH  16  36
HETATM   36  C21 UNL     1       4.871  -0.017   0.282  1.00  0.00     0.002 C 
HETATM   37  C22 UNL     1       5.399  -0.469   1.627  1.00  0.00     0.011 C 
BRANCH  36  38
HETATM   38  C23 UNL     1       6.086   0.695  -0.351  1.00  0.00     0.108 C 
BRANCH  38  39
HETATM   39  C24 UNL     1       7.237  -0.205  -0.435  1.00  0.00     0.219 C 
HETATM   40  O5  UNL     1       7.136  -1.398  -0.088  1.00  0.00    -0.273 OA
HETATM   41  N3  UNL     1       8.492   0.257  -0.912  1.00  0.00    -0.361 N 
HETATM   42  C25 UNL     1       9.632  -0.654  -0.991  1.00  0.00     0.152 C 
HETATM   43  C26 UNL     1       8.662   1.653  -1.331  1.00  0.00     0.152 C 
ENDBRANCH  38  39
ENDBRANCH  36  38
ENDBRANCH  16  36
TORSDOF 10
