REMARK  4 active torsions:
REMARK  status: ('A' for Active; 'I' for Inactive)
REMARK    1  A    between atoms: C2_2  and  C3_3 
REMARK    2  A    between atoms: C4_4  and  C5_5 
REMARK    3  A    between atoms: C10_11  and  O1_12 
REMARK    4  A    between atoms: N1_18  and  O3_20 
ROOT
HETATM    1  C5  UNL     1      -0.410   0.168  -0.529  1.00  0.00     0.003 A 
HETATM    2  C6  UNL     1       0.189   0.970  -1.509  1.00  0.00     0.057 A 
HETATM    3  C7  UNL     1       1.552   1.101  -1.616  1.00  0.00     0.126 A 
HETATM    4  F1  UNL     1       2.109   1.887  -2.577  1.00  0.00    -0.205 F 
HETATM    5  C8  UNL     1       2.371   0.422  -0.729  1.00  0.00     0.017 A 
HETATM    6  C9  UNL     1       1.828  -0.378   0.250  1.00  0.00     0.112 A 
HETATM    7  C10 UNL     1       0.432  -0.490   0.332  1.00  0.00     0.110 A 
HETATM    8  O2  UNL     1       2.684  -1.030   1.106  1.00  0.00    -0.348 OA
HETATM    9  C11 UNL     1       3.982  -0.564   1.459  1.00  0.00     0.176 C 
HETATM   10  C12 UNL     1       4.488   0.513   0.567  1.00  0.00     0.031 C 
HETATM   11  C13 UNL     1       3.848   0.524  -0.797  1.00  0.00     0.047 C 
ENDROOT
BRANCH   1  12
HETATM   12  C4  UNL     1      -1.836   0.089  -0.490  1.00  0.00     0.016 C 
HETATM   13  C3  UNL     1      -2.563  -0.591   0.332  1.00  0.00     0.027 C 
BRANCH  13  14
HETATM   14  C2  UNL     1      -4.042  -0.523   0.183  1.00  0.00     0.028 C 
HETATM   15  C1  UNL     1      -4.642   0.303  -0.878  1.00  0.00     0.070 C 
HETATM   16  N1  UNL     1      -4.808  -1.181   0.976  1.00  0.00    -0.274 N 
ATOM     17  H1  UNL     1      -4.402  -1.756   1.715  1.00  0.00     0.193 HD
BRANCH  16  18
HETATM   18  O3  UNL     1      -6.165  -1.113   0.833  1.00  0.00    -0.290 OA
ATOM     19  H3  UNL     1      -6.732  -1.600   1.420  1.00  0.00     0.244 HD
ENDBRANCH  16  18
ENDBRANCH  13  14
ENDBRANCH   1  12
BRANCH   7  20
HETATM   20  O1  UNL     1      -0.030  -1.302   1.330  1.00  0.00    -0.357 OA
ATOM     21  H1  UNL     1       0.553  -1.758   1.926  1.00  0.00     0.217 HD
ENDBRANCH   7  20
TORSDOF 4
