REMARK  13 active torsions:
REMARK  status: ('A' for Active; 'I' for Inactive)
REMARK    1  A    between atoms: N3_8  and  C4_9 
REMARK    2  A    between atoms: C6_11  and  C7_12 
REMARK    3  A    between atoms: C7_12  and  S2_13 
REMARK    4  A    between atoms: S2_13  and  C8_14 
REMARK    5  A    between atoms: C8_14  and  C9_15 
REMARK    6  A    between atoms: C9_15  and  C10_16 
REMARK    7  A    between atoms: C10_16  and  C11_17 
REMARK    8  A    between atoms: C11_17  and  S3_18 
REMARK    9  A    between atoms: S3_18  and  C12_19 
REMARK   10  A    between atoms: C13_21  and  C14_22 
REMARK   11  A    between atoms: C14_22  and  O2_23 
REMARK   12  A    between atoms: C15_25  and  O3_26 
REMARK   13  A    between atoms: C16_28  and  O4_29 
ROOT
HETATM    1  C9  UNL     1       0.028  -1.478   1.471  1.00  0.00     0.011 C 
ENDROOT
BRANCH   1   2
HETATM    2  C8  UNL     1      -0.495  -0.092   1.794  1.00  0.00     0.074 C 
BRANCH   2   3
HETATM    3  S2  UNL     1      -1.882  -0.116   2.926  1.00  0.00    -0.167 SA
BRANCH   3   4
HETATM    4  C7  UNL     1      -3.371  -0.864   2.270  1.00  0.00     0.106 C 
BRANCH   4   5
HETATM    5  C6  UNL     1      -3.980  -0.078   1.161  1.00  0.00     0.137 C 
HETATM    6  C5  UNL     1      -4.397   1.335   1.519  1.00  0.00     0.087 C 
HETATM    7  C4  UNL     1      -4.070   1.518   0.075  1.00  0.00     0.234 C 
HETATM    8  O5  UNL     1      -3.123   0.474   0.215  1.00  0.00    -0.360 OA
BRANCH   7   9
HETATM    9  N3  UNL     1      -5.041   1.138  -0.901  1.00  0.00    -0.283 N 
HETATM   10  C1  UNL     1      -6.355   1.380  -0.907  1.00  0.00     0.138 A 
HETATM   11  N1  UNL     1      -7.132   2.066   0.032  1.00  0.00    -0.081 NA
HETATM   12  C2  UNL     1      -6.862   0.804  -2.072  1.00  0.00     0.136 A 
HETATM   13  N2  UNL     1      -5.843   0.237  -2.727  1.00  0.00    -0.340 N 
HETATM   14  C3  UNL     1      -4.734   0.432  -2.028  1.00  0.00     0.181 A 
ATOM     15  H2  UNL     1      -5.908  -0.261  -3.615  1.00  0.00     0.167 HD
HETATM   16  S1  UNL     1      -3.238  -0.094  -2.459  1.00  0.00    -0.040 SA
ENDBRANCH   7   9
ENDBRANCH   4   5
ENDBRANCH   3   4
ENDBRANCH   2   3
ENDBRANCH   1   2
BRANCH   1  17
HETATM   17  C10 UNL     1       1.186  -1.280   0.504  1.00  0.00     0.011 C 
BRANCH  17  18
HETATM   18  C11 UNL     1       1.804  -2.592   0.111  1.00  0.00     0.076 C 
BRANCH  18  19
HETATM   19  S3  UNL     1       3.160  -2.262  -1.040  1.00  0.00    -0.135 SA
BRANCH  19  20
HETATM   20  C12 UNL     1       4.503  -1.320  -0.253  1.00  0.00     0.214 C 
HETATM   21  O1  UNL     1       4.101  -0.063   0.063  1.00  0.00    -0.363 OA
HETATM   22  C13 UNL     1       5.147   0.796  -0.130  1.00  0.00     0.178 C 
HETATM   23  C15 UNL     1       6.281   0.086  -0.804  1.00  0.00     0.181 C 
HETATM   24  C16 UNL     1       5.672  -1.224  -1.189  1.00  0.00     0.188 C 
BRANCH  22  25
HETATM   25  C14 UNL     1       5.643   1.418   1.183  1.00  0.00     0.198 C 
BRANCH  25  26
HETATM   26  O2  UNL     1       6.699   2.274   0.883  1.00  0.00    -0.398 OA
ATOM     27  H2  UNL     1       7.006   2.659   1.695  1.00  0.00     0.209 HD
ENDBRANCH  25  26
ENDBRANCH  22  25
BRANCH  23  28
HETATM   28  O3  UNL     1       6.698   0.797  -1.929  1.00  0.00    -0.390 OA
ATOM     29  H3  UNL     1       7.417   0.347  -2.356  1.00  0.00     0.210 HD
ENDBRANCH  23  28
BRANCH  24  30
HETATM   30  O4  UNL     1       5.230  -1.292  -2.496  1.00  0.00    -0.389 OA
ATOM     31  H4  UNL     1       5.970  -1.231  -3.089  1.00  0.00     0.210 HD
ENDBRANCH  24  30
ENDBRANCH  19  20
ENDBRANCH  18  19
ENDBRANCH  17  18
ENDBRANCH   1  17
TORSDOF 13
