REMARK  9 active torsions:
REMARK  status: ('A' for Active; 'I' for Inactive)
REMARK    1  A    between atoms: C2_2  and  O1_3 
REMARK    2  A    between atoms: O1_3  and  C3_4 
REMARK    3  A    between atoms: C3_4  and  C4_6 
REMARK    4  A    between atoms: C4_6  and  C5_7 
REMARK    5  A    between atoms: C4_6  and  N1_12 
REMARK    6  A    between atoms: C5_7  and  O3_8 
REMARK    7  A    between atoms: O3_8  and  C6_9 
REMARK    8  A    between atoms: N1_12  and  C8_14 
REMARK    9  A    between atoms: C8_14  and  C10_19 
ROOT
HETATM    1  C8  UNL     1      -1.064   0.021  -0.305  1.00  0.00     0.092 C 
HETATM    2  N2  UNL     1      -0.750   0.558  -1.362  1.00  0.00    -0.283 N 
ATOM      3  H2  UNL     1       0.165   1.003  -1.292  1.00  0.00     0.179 HD
HETATM    4  C9  UNL     1      -1.286   0.724  -2.604  1.00  0.00     0.183 C 
HETATM    5  N3  UNL     1      -1.714   0.869  -3.666  1.00  0.00    -0.172 NA
ENDROOT
BRANCH   1   6
HETATM    6  N1  UNL     1      -0.109   0.120   0.792  1.00  0.00    -0.363 N 
ATOM      7  H1  UNL     1      -0.469   0.356   1.717  1.00  0.00     0.161 HD
BRANCH   6   8
HETATM    8  C4  UNL     1       1.285  -0.090   0.660  1.00  0.00     0.207 C 
BRANCH   8   9
HETATM    9  C3  UNL     1       1.650  -1.434   0.161  1.00  0.00     0.283 C 
HETATM   10  O2  UNL     1       0.728  -2.245  -0.092  1.00  0.00    -0.263 OA
BRANCH   9  11
HETATM   11  O1  UNL     1       2.950  -1.859  -0.045  1.00  0.00    -0.320 OA
BRANCH  11  12
HETATM   12  C2  UNL     1       3.189  -3.171  -0.527  1.00  0.00     0.174 C 
HETATM   13  C1  UNL     1       4.643  -3.467  -0.693  1.00  0.00     0.034 C 
ENDBRANCH  11  12
ENDBRANCH   9  11
ENDBRANCH   8   9
BRANCH   8  14
HETATM   14  C5  UNL     1       2.014   0.991  -0.123  1.00  0.00     0.214 C 
BRANCH  14  15
HETATM   15  O3  UNL     1       1.842   2.228   0.520  1.00  0.00    -0.319 OA
BRANCH  15  16
HETATM   16  C6  UNL     1       2.405   3.386   0.016  1.00  0.00     0.254 C 
HETATM   17  C7  UNL     1       2.266   4.715   0.635  1.00  0.00     0.126 C 
HETATM   18  O4  UNL     1       3.076   3.276  -1.046  1.00  0.00    -0.266 OA
ENDBRANCH  15  16
ENDBRANCH  14  15
ENDBRANCH   8  14
ENDBRANCH   6   8
ENDBRANCH   1   6
BRANCH   1  19
HETATM   19  C10 UNL     1      -2.270  -0.723  -0.020  1.00  0.00     0.066 C 
HETATM   20  C11 UNL     1      -2.808  -0.425   1.398  1.00  0.00     0.041 C 
HETATM   21  C12 UNL     1      -4.135  -1.125   1.278  1.00  0.00    -0.006 C 
HETATM   22  C13 UNL     1      -4.549  -1.086   0.021  1.00  0.00     0.012 C 
HETATM   23 CL1  UNL     1      -6.000  -1.725  -0.713  1.00  0.00    -0.089 Cl
HETATM   24  C14 UNL     1      -3.509  -0.330  -0.796  1.00  0.00     0.037 C 
HETATM   25  C15 UNL     1      -3.852   1.127  -0.579  1.00  0.00     0.016 C 
ENDBRANCH   1  19
TORSDOF 9
