REMARK  5 active torsions:
REMARK  status: ('A' for Active; 'I' for Inactive)
REMARK    1  A    between atoms: C2_2  and  C3_3 
REMARK    2  A    between atoms: C3_3  and  N1_4 
REMARK    3  A    between atoms: C8_17  and  S1_18 
REMARK    4  A    between atoms: N5_20  and  C10_21 
REMARK    5  A    between atoms: C10_21  and  O1_22 
ROOT
HETATM    1  N1  UNL     1      -2.861  -0.398  -0.297  1.00  0.00    -0.350 N 
ATOM      2  H1  UNL     1      -2.771  -0.672   0.681  1.00  0.00     0.166 HD
HETATM    3  C4  UNL     1      -1.746  -0.177  -0.795  1.00  0.00     0.141 A 
HETATM    4  N2  UNL     1      -0.627  -0.324  -0.004  1.00  0.00    -0.323 N 
ATOM      5  H2  UNL     1      -0.739  -0.609   0.969  1.00  0.00     0.169 HD
HETATM    6  C5  UNL     1       0.607  -0.101  -0.483  1.00  0.00     0.158 A 
HETATM    7  C6  UNL     1       0.789   0.286  -1.793  1.00  0.00     0.153 A 
HETATM    8  N3  UNL     1      -0.269   0.433  -2.569  1.00  0.00    -0.330 N 
ATOM      9  H3  UNL     1      -0.148   0.719  -3.541  1.00  0.00     0.168 HD
HETATM   10  C7  UNL     1      -1.519   0.206  -2.083  1.00  0.00     0.126 A 
HETATM   11 BR1  UNL     1      -2.959   0.450  -3.294  1.00  0.00    -0.027 Br
HETATM   12  N4  UNL     1       2.105   0.439  -2.005  1.00  0.00    -0.320 N 
ATOM     13  H4  UNL     1       2.535   0.720  -2.886  1.00  0.00     0.169 HD
HETATM   14  C8  UNL     1       2.763   0.161  -0.868  1.00  0.00     0.151 A 
HETATM   15  N5  UNL     1       1.852  -0.165   0.050  1.00  0.00    -0.288 N 
ENDROOT
BRANCH   1  16
HETATM   16  C3  UNL     1      -4.198  -0.382  -0.682  1.00  0.00     0.089 C 
BRANCH  16  17
HETATM   17  C2  UNL     1      -5.130  -0.760   0.448  1.00  0.00     0.007 C 
HETATM   18  C1  UNL     1      -6.041   0.097   0.846  1.00  0.00     0.012 C 
ENDBRANCH  16  17
ENDBRANCH   1  16
BRANCH  15  19
HETATM   19  C10 UNL     1       2.109  -0.545   1.447  1.00  0.00     0.301 C 
BRANCH  19  20
HETATM   20  O1  UNL     1       2.098   0.612   2.237  1.00  0.00    -0.376 OA
HETATM   21  C11 UNL     1       2.337   0.278   3.547  1.00  0.00     0.203 C 
ENDBRANCH  19  20
ENDBRANCH  15  19
BRANCH  14  22
HETATM   22  S1  UNL     1       4.529   0.214  -0.620  1.00  0.00    -0.098 SA
HETATM   23  C9  UNL     1       5.374   0.706  -2.137  1.00  0.00     0.099 C 
ENDBRANCH  14  22
TORSDOF 5
