REMARK  5 active torsions:
REMARK  status: ('A' for Active; 'I' for Inactive)
REMARK    1  A    between atoms: O1_2  and  C2_3 
REMARK    2  A    between atoms: C2_3  and  C3_4 
REMARK    3  A    between atoms: C3_4  and  C4_5 
REMARK    4  A    between atoms: N1_9  and  C8_10 
REMARK    5  A    between atoms: C10_16  and  N4_17 
ROOT
HETATM    1  C8  UNL     1       0.198   0.401  -0.860  1.00  0.00     0.147 A 
HETATM    2  N2  UNL     1       0.119   0.667  -2.199  1.00  0.00    -0.336 N 
ATOM      3  H2  UNL     1       0.968   0.783  -2.752  1.00  0.00     0.168 HD
HETATM    4  C9  UNL     1      -1.087   0.774  -2.780  1.00  0.00     0.183 A 
HETATM    5  N3  UNL     1      -2.218   0.624  -2.059  1.00  0.00    -0.336 N 
ATOM      6  H3  UNL     1      -3.117   0.713  -2.532  1.00  0.00     0.168 HD
HETATM    7  C10 UNL     1      -2.204   0.363  -0.746  1.00  0.00     0.147 A 
HETATM    8  C16 UNL     1      -0.955   0.247  -0.122  1.00  0.00     0.203 A 
HETATM    9  F1  UNL     1      -0.875  -0.015   1.209  1.00  0.00    -0.198 F 
ENDROOT
BRANCH   1  10
HETATM   10  N1  UNL     1       1.474   0.281  -0.224  1.00  0.00    -0.364 N 
HETATM   11  C7  UNL     1       1.903   1.110   0.875  1.00  0.00     0.124 C 
HETATM   12  C6  UNL     1       2.381   0.249   1.995  1.00  0.00     0.020 C 
HETATM   13  C5  UNL     1       2.558  -1.207   1.635  1.00  0.00     0.008 C 
HETATM   14  C4  UNL     1       3.277  -1.326   0.296  1.00  0.00     0.006 C 
HETATM   15  C17 UNL     1       2.378  -0.726  -0.731  1.00  0.00     0.129 C 
BRANCH  14  16
HETATM   16  C3  UNL     1       4.609  -0.680   0.456  1.00  0.00     0.032 C 
BRANCH  16  17
HETATM   17  C2  UNL     1       5.475  -0.698  -0.763  1.00  0.00     0.167 C 
BRANCH  17  18
HETATM   18  O1  UNL     1       6.700  -0.106  -0.597  1.00  0.00    -0.396 OA
HETATM   19  C1  UNL     1       6.684   1.220  -0.250  1.00  0.00     0.201 C 
ENDBRANCH  17  18
ENDBRANCH  16  17
ENDBRANCH  14  16
ENDBRANCH   1  10
BRANCH   7  20
HETATM   20  N4  UNL     1      -3.363   0.199   0.040  1.00  0.00    -0.361 N 
HETATM   21  C11 UNL     1      -3.561  -1.071   0.728  1.00  0.00     0.143 C 
HETATM   22  C12 UNL     1      -4.909  -1.589   0.236  1.00  0.00     0.134 C 
HETATM   23  N5  UNL     1      -5.962  -0.667   0.544  1.00  0.00    -0.414 N 
HETATM   24  C13 UNL     1      -5.777   0.651   0.041  1.00  0.00     0.090 C 
ATOM     25  H5  UNL     1      -6.784  -0.936   1.084  1.00  0.00     0.153 HD
HETATM   26  C14 UNL     1      -6.223   0.768  -1.421  1.00  0.00     0.033 C 
HETATM   27  C15 UNL     1      -4.384   1.193   0.225  1.00  0.00     0.149 C 
ENDBRANCH   7  20
TORSDOF 5
