REMARK  8 active torsions:
REMARK  status: ('A' for Active; 'I' for Inactive)
REMARK    1  A    between atoms: C3_4  and  N2_5 
REMARK       I    between atoms: N2_5  and  C4_6 
REMARK    2  A    between atoms: C4_6  and  C5_8 
REMARK    3  A    between atoms: C7_10  and  N3_11 
REMARK       I    between atoms: N3_11  and  C8_13 
REMARK       I    between atoms: C8_13  and  N4_14 
REMARK       I    between atoms: C8_13  and  N5_18 
REMARK    4  A    between atoms: N6_23  and  C10_24 
REMARK    5  A    between atoms: C11_28  and  C12_29 
REMARK    6  A    between atoms: C16_42  and  C17_43 
REMARK       I    between atoms: C17_43  and  N12_45 
REMARK    7  A    between atoms: N12_45  and  O5_46 
REMARK    8  A    between atoms: O5_46  and  C18_47 
ROOT
HETATM    1  C5  UNL     1       0.170   1.068  -0.911  1.00  0.00     0.123 A 
HETATM    2  C6  UNL     1      -0.159   2.259  -1.482  1.00  0.00     0.067 A 
HETATM    3  C7  UNL     1       0.645   3.233  -0.877  1.00  0.00     0.049 A 
HETATM    4  C9  UNL     1       1.432   2.585   0.024  1.00  0.00     0.125 A 
HETATM    5  N6  UNL     1       1.164   1.257   0.010  1.00  0.00    -0.299 N 
ENDROOT
BRANCH   5   6
HETATM    6  C10 UNL     1       1.835   0.322   0.809  1.00  0.00     0.441 C 
HETATM    7  N7  UNL     1       3.270   0.331   0.417  1.00  0.00     0.004 N 
HETATM    8  C11 UNL     1       3.109  -1.089   0.816  1.00  0.00     0.405 C 
ATOM      9  H72 UNL     1       3.624   0.644  -0.487  1.00  0.00     0.286 HD
ATOM     10  H71 UNL     1       3.972   0.966   0.797  1.00  0.00     0.286 HD
HETATM   11  O3  UNL     1       1.848  -1.029   0.448  1.00  0.00    -0.303 OA
BRANCH   8  12
HETATM   12  C12 UNL     1       4.186  -1.914   0.303  1.00  0.00     0.184 A 
HETATM   13  N8  UNL     1       5.148  -1.505  -0.568  1.00  0.00    -0.321 N 
HETATM   14  C13 UNL     1       6.095  -2.325  -0.952  1.00  0.00     0.129 A 
ATOM     15  H8  UNL     1       5.132  -0.550  -0.926  1.00  0.00     0.169 HD
HETATM   16  N9  UNL     1       7.135  -1.889  -1.654  1.00  0.00    -0.384 N 
HETATM   17  C14 UNL     1       6.134  -3.598  -0.449  1.00  0.00     0.138 A 
ATOM     18  H92 UNL     1       7.106  -0.941  -2.029  1.00  0.00     0.157 HD
ATOM     19  H91 UNL     1       7.872  -2.527  -1.953  1.00  0.00     0.157 HD
HETATM   20  N10 UNL     1       7.259  -4.466  -0.801  1.00  0.00    -0.094 NA
HETATM   21  C15 UNL     1       5.169  -4.022   0.435  1.00  0.00     0.187 A 
HETATM   22  N11 UNL     1       5.212  -5.320   0.977  1.00  0.00    -0.072 NA
HETATM   23  O2  UNL     1       4.217  -3.168   0.765  1.00  0.00    -0.276 OA
ENDBRANCH   8  12
ENDBRANCH   5   6
BRANCH   1  24
HETATM   24  C4  UNL     1      -0.532  -0.223  -0.890  1.00  0.00     0.343 C 
HETATM   25  N2  UNL     1      -1.809  -0.015  -0.455  1.00  0.00    -0.361 NA
HETATM   26  O1  UNL     1      -0.150  -1.332  -1.107  1.00  0.00    -0.249 OA
BRANCH  25  27
HETATM   27  C3  UNL     1      -3.081   0.063   0.010  1.00  0.00     0.163 A 
HETATM   28  C2  UNL     1      -3.782   1.290   0.195  1.00  0.00     0.157 A 
HETATM   29  N1  UNL     1      -5.026   0.959   0.643  1.00  0.00    -0.304 N 
HETATM   30  C1  UNL     1      -6.073   1.866   1.043  1.00  0.00     0.177 C 
HETATM   31  N14 UNL     1      -5.070  -0.345   0.725  1.00  0.00    -0.290 N 
HETATM   32  C16 UNL     1      -3.840  -0.909   0.330  1.00  0.00     0.176 A 
ATOM     33  H14 UNL     1      -5.882  -0.880   1.032  1.00  0.00     0.187 HD
BRANCH  32  34
HETATM   34  C17 UNL     1      -3.678  -2.418   0.724  1.00  0.00     0.376 C 
HETATM   35  O4  UNL     1      -2.740  -2.650   1.325  1.00  0.00    -0.247 OA
HETATM   36  N12 UNL     1      -4.809  -2.846   0.089  1.00  0.00    -0.225 NA
BRANCH  36  37
HETATM   37  O5  UNL     1      -5.852  -3.259  -0.495  1.00  0.00    -0.103 OA
BRANCH  37  38
HETATM   38  C18 UNL     1      -6.870  -3.808   0.298  1.00  0.00     0.405 C 
HETATM   39  N13 UNL     1      -8.108  -4.036  -0.385  1.00  0.00    -0.030 NA
HETATM   40  O6  UNL     1      -6.632  -4.020   1.466  1.00  0.00    -0.239 OA
ENDBRANCH  37  38
ENDBRANCH  36  37
ENDBRANCH  32  34
ENDBRANCH  25  27
ENDBRANCH   1  24
BRANCH   3  41
HETATM   41  N3  UNL     1       0.697   4.605  -1.267  1.00  0.00    -0.340 N 
HETATM   42  C8  UNL     1       0.161   5.758  -0.668  1.00  0.00     0.480 C 
HETATM   43  N4  UNL     1       0.270   5.783   0.780  1.00  0.00    -0.033 N 
HETATM   44  N5  UNL     1       1.001   6.911  -1.107  1.00  0.00    -0.033 N 
ATOM     45  H43 UNL     1      -0.147   4.944   1.184  1.00  0.00     0.278 HD
ATOM     46  H42 UNL     1       1.240   5.650   1.067  1.00  0.00     0.278 HD
ATOM     47  H41 UNL     1      -0.119   6.620   1.215  1.00  0.00     0.278 HD
ATOM     48  H53 UNL     1       1.993   6.782  -0.909  1.00  0.00     0.278 HD
ATOM     49  H52 UNL     1       1.079   6.986  -2.121  1.00  0.00     0.278 HD
ATOM     50  H51 UNL     1       0.612   7.748  -0.672  1.00  0.00     0.278 HD
ATOM     51  H3  UNL     1       1.212   4.779  -2.130  1.00  0.00     0.163 HD
ENDBRANCH   3  41
TORSDOF 8
