REMARK  12 active torsions:
REMARK  status: ('A' for Active; 'I' for Inactive)
REMARK    1  A    between atoms: N3_6  and  C3_7 
REMARK    2  A    between atoms: C5_9  and  N4_10 
REMARK    3  A    between atoms: C6_16  and  C7_17 
REMARK    4  A    between atoms: C7_17  and  N8_18 
REMARK    5  A    between atoms: C7_17  and  C12_32 
REMARK    6  A    between atoms: N8_18  and  C8_20 
REMARK    7  A    between atoms: C10_26  and  N11_27 
REMARK    8  A    between atoms: C12_32  and  O1_33 
REMARK    9  A    between atoms: C12_32  and  N13_35 
REMARK   10  A    between atoms: N13_35  and  C13_37 
REMARK   11  A    between atoms: C16_40  and  N14_41 
REMARK   12  A    between atoms: C18_49  and  N17_50 
ROOT
HETATM    1  C7  UNL     1      -0.501   0.428   0.775  1.00  0.00     0.107 C 
ENDROOT
BRANCH   1   2
HETATM    2  C6  UNL     1      -0.010   0.814   2.093  1.00  0.00     0.170 A 
HETATM    3  N4  UNL     1       1.227   0.581   2.578  1.00  0.00    -0.203 N 
HETATM    4  N5  UNL     1       1.312   1.044   3.824  1.00  0.00     0.004 NA
HETATM    5  N6  UNL     1       0.137   1.574   4.143  1.00  0.00    -0.224 N 
HETATM    6  N7  UNL     1      -0.640   1.427   3.096  1.00  0.00    -0.269 N 
ATOM      7  H6  UNL     1      -0.113   2.011   5.030  1.00  0.00     0.205 HD
ATOM      8  H7  UNL     1      -1.609   1.743   3.054  1.00  0.00     0.190 HD
BRANCH   3   9
HETATM    9  C5  UNL     1       2.309  -0.030   1.928  1.00  0.00     0.147 A 
HETATM   10  C4  UNL     1       3.012   0.549   0.892  1.00  0.00     0.103 A 
HETATM   11  C3  UNL     1       4.066  -0.132   0.333  1.00  0.00     0.162 A 
HETATM   12  N18 UNL     1       4.412  -1.368   0.799  1.00  0.00    -0.174 N 
HETATM   13  C18 UNL     1       3.733  -1.938   1.806  1.00  0.00     0.679 A 
ATOM     14  H18 UNL     1       5.197  -1.864   0.376  1.00  0.00     0.186 HD
HETATM   15  N16 UNL     1       2.715  -1.248   2.325  1.00  0.00    -0.175 N 
ATOM     16  H16 UNL     1       2.200  -1.683   3.090  1.00  0.00     0.186 HD
BRANCH  11  17
HETATM   17  N3  UNL     1       4.819   0.432  -0.740  1.00  0.00    -0.161 N 
HETATM   18  N2  UNL     1       4.452   1.392  -1.573  1.00  0.00     0.004 NA
HETATM   19  N1  UNL     1       5.414   1.653  -2.440  1.00  0.00    -0.270 N 
HETATM   20  C2  UNL     1       6.438   0.833  -2.157  1.00  0.00     0.106 A 
ATOM     21  H1  UNL     1       5.384   2.348  -3.186  1.00  0.00     0.185 HD
HETATM   22  C1  UNL     1       7.730   0.793  -2.891  1.00  0.00     0.091 C 
HETATM   23  N19 UNL     1       6.037   0.097  -1.107  1.00  0.00    -0.267 N 
ATOM     24  H19 UNL     1       6.600  -0.624  -0.656  1.00  0.00     0.190 HD
ENDBRANCH  11  17
BRANCH  13  25
HETATM   25  N17 UNL     1       3.995  -3.098   2.303  1.00  0.00    -0.234 N 
ATOM     26 2H17 UNL     1       3.479  -3.531   3.069  1.00  0.00     0.174 HD
ATOM     27 1H17 UNL     1       4.773  -3.625   1.906  1.00  0.00     0.174 HD
ENDBRANCH  13  25
ENDBRANCH   3   9
ENDBRANCH   1   2
BRANCH   1  28
HETATM   28  N8  UNL     1      -0.992   1.417  -0.114  1.00  0.00    -0.337 N 
ATOM     29  H8  UNL     1      -0.479   1.404  -0.995  1.00  0.00     0.167 HD
BRANCH  28  30
HETATM   30  C8  UNL     1      -1.980   2.405  -0.125  1.00  0.00     0.135 A 
HETATM   31  N9  UNL     1      -2.837   2.665   0.852  1.00  0.00    -0.337 N 
HETATM   32  C9  UNL     1      -3.784   3.624   0.835  1.00  0.00     0.183 A 
ATOM     33  H9  UNL     1      -2.774   2.088   1.691  1.00  0.00     0.168 HD
HETATM   34  N10 UNL     1      -3.879   4.386  -0.255  1.00  0.00    -0.337 N 
HETATM   35  C10 UNL     1      -3.074   4.208  -1.286  1.00  0.00     0.128 A 
ATOM     36  H10 UNL     1      -4.586   5.120  -0.293  1.00  0.00     0.168 HD
HETATM   37  C11 UNL     1      -2.110   3.229  -1.263  1.00  0.00     0.133 A 
HETATM   38  N12 UNL     1      -1.257   3.071  -2.402  1.00  0.00    -0.094 NA
BRANCH  35  39
HETATM   39  N11 UNL     1      -3.183   4.965  -2.349  1.00  0.00    -0.384 N 
ATOM     40 2H11 UNL     1      -3.899   5.692  -2.366  1.00  0.00     0.157 HD
ATOM     41 1H11 UNL     1      -2.561   4.827  -3.146  1.00  0.00     0.157 HD
ENDBRANCH  35  39
ENDBRANCH  28  30
ENDBRANCH   1  28
BRANCH   1  42
HETATM   42  C12 UNL     1      -1.228  -0.860   0.670  1.00  0.00     0.273 C 
BRANCH  42  43
HETATM   43  O1  UNL     1      -0.652  -1.818   1.572  1.00  0.00    -0.371 OA
ATOM     44  H1  UNL     1      -1.118  -2.643   1.505  1.00  0.00     0.212 HD
ENDBRANCH  42  43
BRANCH  42  45
HETATM   45  N13 UNL     1      -2.638  -0.908   0.776  1.00  0.00    -0.358 N 
ATOM     46  H13 UNL     1      -3.163  -0.075   1.043  1.00  0.00     0.162 HD
BRANCH  45  47
HETATM   47  C13 UNL     1      -3.334  -2.158   0.500  1.00  0.00     0.045 A 
HETATM   48  C14 UNL     1      -2.624  -3.229   0.042  1.00  0.00     0.034 A 
HETATM   49  C15 UNL     1      -3.318  -4.420  -0.208  1.00  0.00     0.050 A 
HETATM   50  C16 UNL     1      -4.671  -4.436   0.024  1.00  0.00     0.098 A 
HETATM   51  N15 UNL     1      -5.351  -3.369   0.475  1.00  0.00    -0.351 N 
HETATM   52  C17 UNL     1      -4.695  -2.217   0.720  1.00  0.00     0.119 A 
ATOM     53  H15 UNL     1      -6.357  -3.430   0.631  1.00  0.00     0.166 HD
BRANCH  50  54
HETATM   54  N14 UNL     1      -5.286  -5.567  -0.221  1.00  0.00    -0.385 N 
ATOM     55 2H14 UNL     1      -4.770  -6.377  -0.563  1.00  0.00     0.157 HD
ATOM     56 1H14 UNL     1      -6.291  -5.579  -0.049  1.00  0.00     0.157 HD
ENDBRANCH  50  54
ENDBRANCH  45  47
ENDBRANCH  42  45
ENDBRANCH   1  42
TORSDOF 12
