REMARK  7 active torsions:
REMARK  status: ('A' for Active; 'I' for Inactive)
REMARK    1  A    between atoms: C3_5  and  C4_6 
REMARK    2  A    between atoms: C4_6  and  C5_7 
REMARK    3  A    between atoms: C5_7  and  N2_9 
REMARK    4  A    between atoms: N2_9  and  C7_11 
REMARK    5  A    between atoms: C8_16  and  C9_17 
REMARK    6  A    between atoms: C9_17  and  C10_18 
REMARK    7  A    between atoms: C10_18  and  C11_19 
ROOT
HETATM    1  N2  UNL     1      -1.107  -1.431  -0.251  1.00  0.00    -0.365 N 
ATOM      2  H2  UNL     1      -1.465  -1.402  -1.206  1.00  0.00     0.162 HD
ENDROOT
BRANCH   1   3
HETATM    3  C5  UNL     1      -1.960  -1.838   0.848  1.00  0.00     0.086 C 
HETATM    4  C6  UNL     1      -1.674  -3.267   1.243  1.00  0.00     0.032 C 
BRANCH   3   5
HETATM    5  C4  UNL     1      -3.387  -1.642   0.402  1.00  0.00     0.103 C 
BRANCH   5   6
HETATM    6  C3  UNL     1      -3.524  -0.190   0.044  1.00  0.00     0.105 A 
HETATM    7  N1  UNL     1      -3.313   0.381  -1.164  1.00  0.00    -0.327 N 
HETATM    8  C2  UNL     1      -3.540   1.701  -1.079  1.00  0.00     0.144 A 
ATOM      9  H1  UNL     1      -3.026  -0.115  -2.008  1.00  0.00     0.169 HD
HETATM   10  C1  UNL     1      -3.434   2.726  -2.148  1.00  0.00     0.100 C 
HETATM   11  O1  UNL     1      -3.884   1.925   0.166  1.00  0.00    -0.223 OA
HETATM   12  N5  UNL     1      -3.883   0.823   0.854  1.00  0.00    -0.247 N 
ATOM     13  H5  UNL     1      -4.116   0.739   1.844  1.00  0.00     0.196 HD
ENDBRANCH   5   6
ENDBRANCH   3   5
ENDBRANCH   1   3
BRANCH   1  14
HETATM   14  C7  UNL     1       0.120  -1.105   0.007  1.00  0.00     0.161 A 
HETATM   15  N3  UNL     1       0.740  -1.089   1.192  1.00  0.00    -0.279 N 
HETATM   16  N4  UNL     1       1.960  -0.735   1.240  1.00  0.00    -0.296 N 
ATOM     17  H3  UNL     1       0.243  -1.356   2.042  1.00  0.00     0.189 HD
HETATM   18  C8  UNL     1       2.610  -0.391   0.159  1.00  0.00     0.069 A 
ATOM     19  H4  UNL     1       2.441  -0.719   2.139  1.00  0.00     0.187 HD
HETATM   20  S1  UNL     1       1.373  -0.588  -1.036  1.00  0.00    -0.038 SA
BRANCH  18  21
HETATM   21  C9  UNL     1       4.020   0.057  -0.061  1.00  0.00     0.067 C 
BRANCH  21  22
HETATM   22  C10 UNL     1       4.034   1.557   0.066  1.00  0.00     0.017 C 
BRANCH  22  23
HETATM   23  C11 UNL     1       5.452   2.067  -0.150  1.00  0.00     0.085 C 
HETATM   24 BR1  UNL     1       6.092   1.580  -1.907  1.00  0.00    -0.097 Br
ENDBRANCH  22  23
ENDBRANCH  21  22
ENDBRANCH  18  21
ENDBRANCH   1  14
TORSDOF 7
