REMARK  6 active torsions:
REMARK  status: ('A' for Active; 'I' for Inactive)
REMARK    1  A    between atoms: C3_3  and  C4_4 
REMARK    2  A    between atoms: C3_3  and  N1_6 
REMARK       I    between atoms: N1_6  and  C6_8 
REMARK    3  A    between atoms: C6_8  and  C7_10 
REMARK    4  A    between atoms: C7_10  and  N2_11 
REMARK    5  A    between atoms: N2_11  and  C8_13 
REMARK    6  A    between atoms: C8_13  and  C10_18 
ROOT
HETATM    1  C8  UNL     1       2.409  -0.531  -0.605  1.00  0.00     0.118 C 
HETATM    2  N3  UNL     1       2.803  -1.698  -0.850  1.00  0.00    -0.281 N 
ATOM      3  H3  UNL     1       2.082  -2.293  -1.258  1.00  0.00     0.179 HD
HETATM    4  C9  UNL     1       3.996  -2.329  -0.682  1.00  0.00     0.183 C 
HETATM    5  N4  UNL     1       4.996  -2.876  -0.558  1.00  0.00    -0.172 NA
ENDROOT
BRANCH   1   6
HETATM    6  N2  UNL     1       1.049  -0.205  -0.922  1.00  0.00    -0.360 N 
ATOM      7  H2  UNL     1       0.876   0.381  -1.739  1.00  0.00     0.162 HD
BRANCH   6   8
HETATM    8  C7  UNL     1      -0.074  -0.647  -0.169  1.00  0.00     0.113 C 
HETATM    9  C14 UNL     1      -0.010  -0.340   1.320  1.00  0.00     0.041 C 
HETATM   10  C15 UNL     1       0.281  -1.821   1.536  1.00  0.00     0.006 C 
HETATM   11  C16 UNL     1      -0.157  -2.126   0.119  1.00  0.00     0.041 C 
BRANCH   8  12
HETATM   12  C6  UNL     1      -1.371  -0.175  -0.705  1.00  0.00     0.250 C 
HETATM   13  N1  UNL     1      -2.573  -0.531  -0.067  1.00  0.00    -0.329 N 
ATOM     14  H1  UNL     1      -2.529  -1.117   0.767  1.00  0.00     0.168 HD
HETATM   15  O1  UNL     1      -1.382   0.539  -1.725  1.00  0.00    -0.270 OA
BRANCH  13  16
HETATM   16  C3  UNL     1      -3.856  -0.104  -0.540  1.00  0.00     0.007 C 
HETATM   17  C2  UNL     1      -4.765  -0.983  -0.898  1.00  0.00    -0.006 C 
HETATM   18  C1  UNL     1      -6.085  -0.535  -1.383  1.00  0.00     0.038 C 
BRANCH  16  19
HETATM   19  C4  UNL     1      -4.136   1.331  -0.615  1.00  0.00     0.052 C 
HETATM   20  C5  UNL     1      -4.003   1.911   0.783  1.00  0.00     0.011 C 
ENDBRANCH  16  19
ENDBRANCH  13  16
ENDBRANCH   8  12
ENDBRANCH   6   8
ENDBRANCH   1   6
BRANCH   1  21
HETATM   21  C10 UNL     1       3.261   0.500  -0.024  1.00  0.00     0.253 C 
HETATM   22  C11 UNL     1       4.441   0.915  -0.868  1.00  0.00     0.042 C 
HETATM   23  C12 UNL     1       5.316   1.623   0.172  1.00  0.00     0.030 C 
HETATM   24  C13 UNL     1       4.566   1.471   1.502  1.00  0.00     0.233 C 
HETATM   25  N5  UNL     1       3.827   0.216   1.257  1.00  0.00    -0.064 N 
ATOM     26  H52 UNL     1       3.165  -0.057   1.983  1.00  0.00     0.278 HD
ATOM     27  H51 UNL     1       4.377  -0.641   1.318  1.00  0.00     0.278 HD
ENDBRANCH   1  21
TORSDOF 6
