REMARK  1 active torsions:
REMARK  status: ('A' for Active; 'I' for Inactive)
REMARK    1  A    between atoms: N1_3  and  C3_4 
ROOT
HETATM    1  C3  UNL     1       0.112   0.176  -0.545  1.00  0.00    -0.003 C 
HETATM    2  C4  UNL     1      -0.899  -0.893  -0.944  1.00  0.00     0.033 C 
HETATM    3  C5  UNL     1      -2.151  -0.136  -1.381  1.00  0.00     0.015 C 
HETATM    4  C6  UNL     1      -2.633   0.783  -0.298  1.00  0.00    -0.013 C 
HETATM    5  C7  UNL     1      -3.103  -0.122   0.833  1.00  0.00     0.009 C 
HETATM    6  C8  UNL     1      -1.928  -0.953   1.297  1.00  0.00    -0.013 C 
HETATM    7  C9  UNL     1      -1.303  -1.765   0.204  1.00  0.00     0.015 C 
HETATM    8  C10 UNL     1      -0.886   0.041   1.785  1.00  0.00     0.015 C 
HETATM    9  C11 UNL     1      -0.352   0.888   0.676  1.00  0.00     0.033 C 
HETATM   10  C12 UNL     1      -1.575   1.704   0.244  1.00  0.00     0.015 C 
ENDROOT
BRANCH   1  11
HETATM   11  N1  UNL     1       1.453  -0.198  -0.649  1.00  0.00    -0.365 N 
HETATM   12  C2  UNL     1       2.264   0.617  -1.497  1.00  0.00     0.138 C 
HETATM   13  C1  UNL     1       3.628   0.064  -1.779  1.00  0.00     0.094 C 
HETATM   14  S1  UNL     1       4.542   0.229  -0.204  1.00  0.00    -0.162 SA
HETATM   15  C14 UNL     1       3.205   0.097   1.041  1.00  0.00     0.118 C 
HETATM   16  C13 UNL     1       2.167  -0.808   0.375  1.00  0.00     0.073 C 
ENDBRANCH   1  11
TORSDOF 1
