REMARK  4 active torsions:
REMARK  status: ('A' for Active; 'I' for Inactive)
REMARK    1  A    between atoms: C3_4  and  C4_5 
REMARK    2  A    between atoms: C6_9  and  C7_10 
REMARK    3  A    between atoms: C10_15  and  N4_16 
REMARK    4  A    between atoms: C16_24  and  C17_25 
ROOT
HETATM    1  C4  UNL     1      -0.103   0.615  -0.538  1.00  0.00     0.037 A 
HETATM    2  C5  UNL     1      -0.555   1.899  -0.742  1.00  0.00     0.105 A 
HETATM    3  N2  UNL     1       0.213   2.952  -0.525  1.00  0.00    -0.354 N 
ATOM      4  H2  UNL     1      -0.140   3.896  -0.682  1.00  0.00     0.166 HD
HETATM    5  C6  UNL     1       1.460   2.753  -0.096  1.00  0.00     0.086 A 
HETATM    6  N3  UNL     1       1.926   1.519   0.111  1.00  0.00    -0.331 N 
ATOM      7  H3  UNL     1       2.885   1.409   0.439  1.00  0.00     0.168 HD
HETATM    8  C10 UNL     1       1.162   0.380  -0.101  1.00  0.00     0.117 A 
ENDROOT
BRANCH   1   9
HETATM    9  C3  UNL     1      -1.058  -0.427  -0.891  1.00  0.00     0.022 A 
HETATM   10  C2  UNL     1      -1.013  -1.198  -2.013  1.00  0.00     0.124 A 
HETATM   11  N1  UNL     1      -2.101  -1.968  -2.039  1.00  0.00    -0.307 N 
HETATM   12  C1  UNL     1      -2.502  -2.964  -3.051  1.00  0.00     0.177 C 
HETATM   13  N6  UNL     1      -2.819  -1.697  -0.968  1.00  0.00    -0.300 N 
HETATM   14  C16 UNL     1      -2.220  -0.749  -0.222  1.00  0.00     0.064 A 
ATOM     15  H6  UNL     1      -3.706  -2.144  -0.736  1.00  0.00     0.187 HD
BRANCH  14  16
HETATM   16  C17 UNL     1      -2.755  -0.175   1.069  1.00  0.00     0.171 C 
HETATM   17  N5  UNL     1      -3.616   0.957   0.862  1.00  0.00    -0.348 N 
HETATM   18  C18 UNL     1      -4.769   0.892   1.722  1.00  0.00     0.221 C 
ATOM     19  H5  UNL     1      -3.434   1.707   0.195  1.00  0.00     0.163 HD
HETATM   20  O1  UNL     1      -5.716   1.709   1.829  1.00  0.00    -0.273 OA
HETATM   21  C19 UNL     1      -4.632  -0.373   2.497  1.00  0.00     0.142 C 
HETATM   22  C20 UNL     1      -3.796  -1.205   1.556  1.00  0.00     0.207 C 
HETATM   23  F3  UNL     1      -3.140  -2.235   2.217  1.00  0.00    -0.246 F 
ENDBRANCH  14  16
ENDBRANCH   1   9
BRANCH   8  24
HETATM   24  N4  UNL     1       1.743  -0.867   0.170  1.00  0.00    -0.366 N 
HETATM   25  C11 UNL     1       2.702  -0.839   1.317  1.00  0.00     0.130 C 
HETATM   26  C12 UNL     1       4.079  -1.025   0.662  1.00  0.00     0.099 C 
HETATM   27  C13 UNL     1       4.139  -2.401   0.051  1.00  0.00     0.246 C 
HETATM   28  F1  UNL     1       5.030  -3.219   0.738  1.00  0.00    -0.206 F 
HETATM   29  F2  UNL     1       4.605  -2.374  -1.258  1.00  0.00    -0.206 F 
HETATM   30  C14 UNL     1       2.802  -3.042   0.116  1.00  0.00     0.099 C 
HETATM   31  C15 UNL     1       1.661  -2.145  -0.424  1.00  0.00     0.130 C 
ENDBRANCH   8  24
BRANCH   5  32
HETATM   32  C7  UNL     1       2.308   3.969   0.146  1.00  0.00     0.053 A 
HETATM   33  C8  UNL     1       2.122   5.028  -0.949  1.00  0.00     0.013 A 
HETATM   34  C9  UNL     1       1.636   5.236   0.455  1.00  0.00     0.013 A 
ENDBRANCH   5  32
TORSDOF 4
