REMARK  4 active torsions:
REMARK  status: ('A' for Active; 'I' for Inactive)
REMARK    1  A    between atoms: C7_9  and  C8_10 
REMARK    2  A    between atoms: C12_14  and  O1_15 
REMARK    3  A    between atoms: O1_15  and  C13_16 
REMARK    4  A    between atoms: N2_19  and  C16_20 
ROOT
HETATM    1  C1  UNL     1      -1.457   3.522  -0.606  1.00  0.00     0.051 C 
HETATM    2  C2  UNL     1      -2.079   2.429   0.215  1.00  0.00    -0.025 A 
HETATM    3  C3  UNL     1      -2.729   2.822   1.319  1.00  0.00     0.053 A 
HETATM    4  C4  UNL     1      -3.404   1.908   2.086  1.00  0.00     0.138 A 
HETATM    5  F1  UNL     1      -4.052   2.342   3.192  1.00  0.00    -0.204 F 
HETATM    6  C5  UNL     1      -3.404   0.605   1.706  1.00  0.00     0.096 A 
HETATM    7  C6  UNL     1      -3.982  -0.379   2.585  1.00  0.00     0.103 C 
HETATM    8  N1  UNL     1      -4.407  -1.186   3.310  1.00  0.00    -0.191 NA
HETATM    9  C7  UNL     1      -2.758   0.094   0.571  1.00  0.00     0.024 A 
HETATM   10  C12 UNL     1      -2.083   1.101  -0.160  1.00  0.00     0.087 A 
ENDROOT
BRANCH   9  11
HETATM   11  C8  UNL     1      -3.143  -1.200   0.099  1.00  0.00    -0.065 C 
HETATM   12  C9  UNL     1      -2.576  -2.499  -0.074  1.00  0.00     0.035 C 
HETATM   13  C10 UNL     1      -4.053  -3.059  -0.108  1.00  0.00     0.009 C 
HETATM   14  C11 UNL     1      -4.584  -1.618  -0.064  1.00  0.00     0.035 C 
ENDBRANCH   9  11
BRANCH  10  15
HETATM   15  O1  UNL     1      -1.389   0.729  -1.310  1.00  0.00    -0.344 OA
BRANCH  15  16
HETATM   16  C13 UNL     1       0.005   0.662  -1.274  1.00  0.00     0.132 C 
HETATM   17  C14 UNL     1       0.578   0.755   0.170  1.00  0.00     0.062 C 
HETATM   18  C15 UNL     1       1.978   0.216   0.226  1.00  0.00     0.275 C 
HETATM   19  N2  UNL     1       2.744   0.387  -0.955  1.00  0.00     0.095 N 
HETATM   20  C20 UNL     1       2.160  -0.043  -2.161  1.00  0.00     0.275 C 
HETATM   21  C21 UNL     1       0.688  -0.446  -1.966  1.00  0.00     0.062 C 
BRANCH  19  22
HETATM   22  C16 UNL     1       4.092  -0.023  -0.744  1.00  0.00     0.250 C 
HETATM   23  C17 UNL     1       4.188  -1.485  -0.357  1.00  0.00     0.065 C 
HETATM   24  C18 UNL     1       4.582  -1.458   1.095  1.00  0.00     0.234 C 
HETATM   25  N3  UNL     1       5.044  -0.154   1.436  1.00  0.00    -0.073 N 
HETATM   26  C19 UNL     1       4.835   0.719   0.301  1.00  0.00     0.268 C 
ATOM     27  H32 UNL     1       4.613   0.203   2.289  1.00  0.00     0.277 HD
ATOM     28  H31 UNL     1       6.012  -0.153   1.757  1.00  0.00     0.277 HD
ENDBRANCH  19  22
ENDBRANCH  15  16
ENDBRANCH  10  15
TORSDOF 4
