REMARK  7 active torsions:
REMARK  status: ('A' for Active; 'I' for Inactive)
REMARK    1  A    between atoms: O1_1  and  C1_3 
REMARK    2  A    between atoms: C1_3  and  C2_4 
REMARK    3  A    between atoms: C2_4  and  C3_5 
REMARK    4  A    between atoms: N1_12  and  C10_13 
REMARK    5  A    between atoms: C10_13  and  C11_14 
REMARK    6  A    between atoms: C11_14  and  O2_15 
REMARK    7  A    between atoms: C11_14  and  C12_17 
ROOT
HETATM    1  C3  UNL     1      -0.914  -0.778  -0.146  1.00  0.00     0.090 C 
HETATM    2  C4  UNL     1      -2.315  -0.392  -0.512  1.00  0.00     0.026 C 
HETATM    3  C5  UNL     1      -2.942   0.473   0.542  1.00  0.00     0.002 C 
HETATM    4  C6  UNL     1      -3.149   1.853  -0.059  1.00  0.00     0.000 C 
HETATM    5  C7  UNL     1      -1.804   2.573   0.052  1.00  0.00     0.005 C 
HETATM    6  C8  UNL     1      -1.035   2.439  -1.214  1.00  0.00     0.044 C 
HETATM    7  C9  UNL     1      -0.162   1.203  -1.289  1.00  0.00     0.063 C 
HETATM    8  N1  UNL     1      -0.116   0.417  -0.132  1.00  0.00    -0.367 N 
ENDROOT
BRANCH   8   9
HETATM    9  C10 UNL     1       1.148   0.351   0.474  1.00  0.00     0.095 C 
BRANCH   9  10
HETATM   10  C11 UNL     1       2.204  -0.480  -0.171  1.00  0.00     0.160 C 
BRANCH  10  11
HETATM   11  O2  UNL     1       2.560  -0.130  -1.443  1.00  0.00    -0.390 OA
ATOM     12  H2  UNL     1       3.233  -0.660  -1.854  1.00  0.00     0.210 HD
ENDBRANCH  10  11
BRANCH  10  13
HETATM   13  C12 UNL     1       3.442  -0.510   0.723  1.00  0.00     0.019 A 
HETATM   14  C13 UNL     1       4.642  -1.276   0.302  1.00  0.00     0.008 A 
HETATM   15  C14 UNL     1       4.643   0.255   0.428  1.00  0.00     0.008 A 
ENDBRANCH  10  13
ENDBRANCH   9  10
ENDBRANCH   8   9
BRANCH   1  16
HETATM   16  C2  UNL     1      -0.856  -1.551   1.099  1.00  0.00     0.051 C 
BRANCH  16  17
HETATM   17  C1  UNL     1      -1.592  -2.853   1.133  1.00  0.00     0.166 C 
BRANCH  17  18
HETATM   18  O1  UNL     1      -2.958  -2.787   0.968  1.00  0.00    -0.401 OA
ATOM     19  H1  UNL     1      -3.425  -3.614   0.990  1.00  0.00     0.209 HD
ENDBRANCH  17  18
ENDBRANCH  16  17
ENDBRANCH   1  16
TORSDOF 7
