REMARK  2 active torsions:
REMARK  status: ('A' for Active; 'I' for Inactive)
REMARK    1  A    between atoms: C4_4  and  C5_5 
REMARK    2  A    between atoms: C5_5  and  C6_6 
ROOT
HETATM    1  C6  UNL     1      -0.175  -0.451  -1.018  1.00  0.00     0.098 C 
HETATM    2  C7  UNL     1      -0.724  -1.824  -1.063  1.00  0.00     0.015 C 
HETATM    3  C8  UNL     1      -1.440  -1.854   0.038  1.00  0.00    -0.073 C 
HETATM    4  C9  UNL     1      -2.253  -1.892   1.286  1.00  0.00     0.035 C 
HETATM    5  C10 UNL     1      -2.743  -0.417   1.452  1.00  0.00     0.011 C 
HETATM    6  C11 UNL     1      -2.166   0.211   0.273  1.00  0.00     0.023 C 
HETATM    7  C12 UNL     1      -1.908   1.635   0.134  1.00  0.00     0.171 C 
HETATM    8  C13 UNL     1      -3.088   2.495   0.233  1.00  0.00     0.072 C 
HETATM    9  N1  UNL     1      -4.000   3.171   0.311  1.00  0.00    -0.196 NA
HETATM   10  C14 UNL     1      -1.315   1.729  -1.264  1.00  0.00     0.131 C 
HETATM   11  N2  UNL     1      -1.239   2.802  -1.921  1.00  0.00    -0.382 N 
ATOM     12  H21 UNL     1      -0.841   2.865  -2.858  1.00  0.00     0.158 HD
ATOM     13  H22 UNL     1      -1.585   3.674  -1.521  1.00  0.00     0.158 HD
HETATM   14  O1  UNL     1      -0.843   0.540  -1.809  1.00  0.00    -0.322 OA
HETATM   15  C15 UNL     1      -0.790  -0.472   0.280  1.00  0.00     0.059 C 
ENDROOT
BRANCH   1  16
HETATM   16  C5  UNL     1       1.302  -0.310  -1.161  1.00  0.00     0.071 C 
BRANCH  16  17
HETATM   17  C4  UNL     1       2.094  -0.992  -0.139  1.00  0.00    -0.021 C 
HETATM   18  C2  UNL     1       2.916  -0.316   0.649  1.00  0.00    -0.091 C 
HETATM   19  C1  UNL     1       3.042   1.159   0.499  1.00  0.00     0.042 C 
HETATM   20  C3  UNL     1       3.733  -0.991   1.698  1.00  0.00     0.042 C 
ENDBRANCH  16  17
ENDBRANCH   1  16
TORSDOF 2
