REMARK  1 active torsions:
REMARK  status: ('A' for Active; 'I' for Inactive)
REMARK    1  A    between atoms: C2_2  and  C3_4 
REMARK       I    between atoms: C3_4  and  N1_6 
ROOT
HETATM    1  C3  UNL     1       4.123  -0.105  -1.000  1.00  0.00     0.238 C 
HETATM    2  O1  UNL     1       4.770  -0.703  -1.907  1.00  0.00    -0.272 OA
HETATM    3  N1  UNL     1       2.833  -0.567  -0.648  1.00  0.00    -0.347 N 
HETATM    4  C4  UNL     1       2.173  -1.712  -1.271  1.00  0.00     0.129 C 
HETATM    5  C5  UNL     1       1.058  -2.064  -0.310  1.00  0.00     0.067 C 
HETATM    6  C6  UNL     1       0.617  -0.668   0.115  1.00  0.00     0.131 C 
HETATM    7  C7  UNL     1      -0.240  -0.706   1.318  1.00  0.00     0.015 C 
HETATM    8  C8  UNL     1      -1.439  -0.129   1.305  1.00  0.00     0.013 C 
HETATM    9  C9  UNL     1      -1.881   0.542   0.064  1.00  0.00     0.114 C 
HETATM   10  C10 UNL     1      -2.684   1.783   0.336  1.00  0.00     0.045 C 
HETATM   11  C11 UNL     1      -4.152   1.610   0.154  1.00  0.00     0.003 C 
HETATM   12  C12 UNL     1      -4.656   0.235   0.505  1.00  0.00     0.000 C 
HETATM   13  C13 UNL     1      -3.948  -0.857  -0.211  1.00  0.00     0.003 C 
HETATM   14  C14 UNL     1      -2.615  -0.464  -0.779  1.00  0.00     0.045 C 
HETATM   15  O2  UNL     1      -0.739   0.927  -0.639  1.00  0.00    -0.224 OA
HETATM   16  O3  UNL     1       0.026  -0.065  -0.971  1.00  0.00    -0.223 OA
HETATM   17  C15 UNL     1       1.955  -0.011   0.367  1.00  0.00     0.171 C 
ENDROOT
BRANCH   1  18
HETATM   18  C2  UNL     1       4.746   1.070  -0.333  1.00  0.00     0.170 C 
HETATM   19  C1  UNL     1       4.827   0.797   1.132  1.00  0.00     0.036 C 
HETATM   20 CL1  UNL     1       3.908   2.592  -0.694  1.00  0.00    -0.115 Cl
ENDBRANCH   1  18
TORSDOF 1
