REMARK  4 active torsions:
REMARK  status: ('A' for Active; 'I' for Inactive)
REMARK    1  A    between atoms: C2_2  and  C3_4 
REMARK    2  A    between atoms: C6_7  and  N1_8 
REMARK       I    between atoms: N1_8  and  C7_10 
REMARK    3  A    between atoms: C7_10  and  O3_12 
REMARK    4  A    between atoms: O3_12  and  C8_13 
ROOT
HETATM    1  N1  UNL     1       0.221  -0.104  -0.133  1.00  0.00    -0.332 N 
ATOM      2  H1  UNL     1       0.281   0.066  -1.137  1.00  0.00     0.165 HD
HETATM    3  C7  UNL     1      -1.063  -0.161   0.518  1.00  0.00     0.361 C 
HETATM    4  O2  UNL     1      -1.126  -0.371   1.761  1.00  0.00    -0.238 OA
ENDROOT
BRANCH   1   5
HETATM    5  C6  UNL     1       1.416  -0.288   0.642  1.00  0.00     0.086 C 
HETATM    6  C5  UNL     1       2.273  -1.423   0.171  1.00  0.00     0.026 C 
HETATM    7  C4  UNL     1       3.424  -0.891  -0.641  1.00  0.00     0.014 C 
HETATM    8  C3  UNL     1       4.329  -0.059   0.219  1.00  0.00     0.055 C 
HETATM    9  C16 UNL     1       3.568   0.780   1.220  1.00  0.00     0.014 C 
HETATM   10  C15 UNL     1       2.190   1.033   0.612  1.00  0.00     0.026 C 
BRANCH   8  11
HETATM   11  C2  UNL     1       5.135   0.832  -0.665  1.00  0.00     0.127 C 
HETATM   12  C1  UNL     1       6.033   0.237  -1.693  1.00  0.00     0.091 C 
HETATM   13  O1  UNL     1       5.092   2.040  -0.583  1.00  0.00    -0.298 OA
ENDBRANCH   8  11
ENDBRANCH   1   5
BRANCH   3  14
HETATM   14  O3  UNL     1      -2.238   0.013  -0.198  1.00  0.00    -0.298 OA
BRANCH  14  15
HETATM   15  C8  UNL     1      -3.449  -0.053   0.488  1.00  0.00     0.142 C 
HETATM   16  C9  UNL     1      -4.269   1.234   0.314  1.00  0.00     0.042 C 
HETATM   17  C10 UNL     1      -5.584   0.783  -0.265  1.00  0.00     0.011 C 
HETATM   18  C11 UNL     1      -5.305   0.322  -1.645  1.00  0.00    -0.025 C 
HETATM   19  C14 UNL     1      -5.717  -0.578   0.445  1.00  0.00     0.019 C 
HETATM   20  C12 UNL     1      -4.580  -0.788  -1.532  1.00  0.00    -0.023 C 
HETATM   21  C13 UNL     1      -4.363  -1.087  -0.089  1.00  0.00     0.038 C 
ENDBRANCH  14  15
ENDBRANCH   3  14
TORSDOF 4
