REMARK  18 active torsions:
REMARK  status: ('A' for Active; 'I' for Inactive)
REMARK    1  A    between atoms: C2_2  and  C3_3 
REMARK    2  A    between atoms: C3_3  and  C4_4 
REMARK    3  A    between atoms: C4_4  and  C5_5 
REMARK    4  A    between atoms: C6_8  and  O1_9 
REMARK    5  A    between atoms: C10_15  and  O2_16 
REMARK    6  A    between atoms: C11_18  and  C12_19 
REMARK    7  A    between atoms: C12_19  and  C13_20 
REMARK    8  A    between atoms: C13_20  and  C14_21 
REMARK    9  A    between atoms: C14_21  and  C15_22 
REMARK   10  A    between atoms: C15_22  and  C16_23 
REMARK   11  A    between atoms: C16_23  and  C17_24 
REMARK   12  A    between atoms: N6_35  and  C21_36 
REMARK   13  A    between atoms: C21_36  and  C22_37 
REMARK   14  A    between atoms: C24_39  and  O4_40 
REMARK   15  A    between atoms: N7_42  and  C25_43 
REMARK   16  A    between atoms: C25_43  and  C26_44 
REMARK   17  A    between atoms: C26_44  and  C27_45 
REMARK   18  A    between atoms: C27_45  and  C28_46 
ROOT
HETATM    1  C5  UNL     1      -2.197  -1.450  -0.680  1.00  0.00     0.119 C 
HETATM    2  N1  UNL     1      -1.310  -2.082   0.249  1.00  0.00    -0.364 N 
ATOM      3  H1  UNL     1      -1.836  -2.530   0.999  1.00  0.00     0.162 HD
HETATM    4  C6  UNL     1       0.049  -2.265   0.431  1.00  0.00     0.135 C 
HETATM    5  C7  UNL     1       1.125  -2.909  -0.248  1.00  0.00     0.156 C 
HETATM    6  C8  UNL     1       1.845  -3.901   0.769  1.00  0.00     0.041 C 
HETATM    7  N2  UNL     1       2.154  -2.297  -1.014  1.00  0.00    -0.353 N 
HETATM    8  C9  UNL     1       2.922  -3.418  -1.757  1.00  0.00     0.152 C 
HETATM    9  C10 UNL     1       2.657  -1.046  -1.284  1.00  0.00     0.161 C 
HETATM   10  C11 UNL     1       3.059   0.196  -0.677  1.00  0.00     0.063 C 
HETATM   11  N5  UNL     1       2.474   1.352  -1.387  1.00  0.00    -0.325 N 
ATOM     12  H5  UNL     1       2.894   1.596  -2.284  1.00  0.00     0.169 HD
HETATM   13  C18 UNL     1       1.398   2.153  -0.958  1.00  0.00     0.244 C 
HETATM   14  O3  UNL     1       1.624   3.424  -0.912  1.00  0.00    -0.271 OA
HETATM   15  C19 UNL     1       0.065   1.755  -0.557  1.00  0.00     0.176 C 
HETATM   16  C20 UNL     1      -0.144   2.324   0.850  1.00  0.00     0.042 C 
HETATM   17  N6  UNL     1      -1.044   2.082  -1.415  1.00  0.00    -0.334 N 
HETATM   18  C24 UNL     1      -2.404   2.130  -1.016  1.00  0.00     0.222 C 
HETATM   19  N7  UNL     1      -3.287   1.680  -0.027  1.00  0.00    -0.313 N 
HETATM   20  C30 UNL     1      -3.838   0.372   0.286  1.00  0.00     0.046 A 
HETATM   21  C31 UNL     1      -5.068   0.437   1.033  1.00  0.00     0.030 A 
HETATM   22  C32 UNL     1      -5.794  -0.639   1.483  1.00  0.00     0.002 A 
HETATM   23  C33 UNL     1      -5.336  -1.884   1.216  1.00  0.00     0.001 A 
HETATM   24  C34 UNL     1      -4.169  -1.977   0.508  1.00  0.00     0.011 A 
HETATM   25  C35 UNL     1      -3.415  -0.883   0.040  1.00  0.00    -0.009 A 
ENDROOT
BRANCH  10  26
HETATM   26  C12 UNL     1       3.199   0.390   0.764  1.00  0.00     0.062 C 
BRANCH  26  27
HETATM   27  C13 UNL     1       4.183  -0.485   1.483  1.00  0.00     0.006 C 
BRANCH  27  28
HETATM   28  C14 UNL     1       5.611  -0.352   0.996  1.00  0.00     0.001 C 
BRANCH  28  29
HETATM   29  C15 UNL     1       6.497  -1.246   1.787  1.00  0.00     0.007 C 
BRANCH  29  30
HETATM   30  C16 UNL     1       7.936  -1.217   1.399  1.00  0.00     0.072 C 
BRANCH  30  31
HETATM   31  C17 UNL     1       8.555   0.087   1.603  1.00  0.00     0.086 C 
HETATM   32  N3  UNL     1       8.018   1.073   2.190  1.00  0.00    -0.391 N 
ATOM     33  H32 UNL     1       7.066   0.925   2.524  1.00  0.00     0.157 HD
ATOM     34  H31 UNL     1       8.451   1.985   2.333  1.00  0.00     0.157 HD
HETATM   35  N4  UNL     1       9.910   0.298   1.127  1.00  0.00    -0.088 NA
ENDBRANCH  30  31
ENDBRANCH  29  30
ENDBRANCH  28  29
ENDBRANCH  27  28
ENDBRANCH  26  27
ENDBRANCH  10  26
BRANCH   9  36
HETATM   36  O2  UNL     1       2.861  -0.907  -2.600  1.00  0.00    -0.345 OA
ATOM     37  H2  UNL     1       3.209  -0.043  -2.787  1.00  0.00     0.219 HD
ENDBRANCH   9  36
BRANCH   4  38
HETATM   38  O1  UNL     1       0.465  -1.687   1.553  1.00  0.00    -0.348 OA
ATOM     39  H1  UNL     1       1.398  -1.813   1.678  1.00  0.00     0.219 HD
ENDBRANCH   4  38
BRANCH  17  40
HETATM   40  C21 UNL     1      -0.702   2.505  -2.788  1.00  0.00     0.127 C 
BRANCH  40  41
HETATM   41  C22 UNL     1      -0.911   1.510  -3.850  1.00  0.00     0.015 C 
HETATM   42  C23 UNL     1      -0.193   0.232  -3.807  1.00  0.00     0.006 C 
ENDBRANCH  40  41
ENDBRANCH  17  40
BRANCH  18  43
HETATM   43  O4  UNL     1      -3.048   2.903  -1.946  1.00  0.00    -0.332 OA
ATOM     44  H4  UNL     1      -3.959   2.935  -1.679  1.00  0.00     0.221 HD
ENDBRANCH  18  43
BRANCH   1  45
HETATM   45  C4  UNL     1      -2.434  -2.234  -1.884  1.00  0.00     0.034 C 
BRANCH  45  46
HETATM   46  C3  UNL     1      -2.957  -3.569  -2.045  1.00  0.00     0.028 C 
BRANCH  46  47
HETATM   47  C2  UNL     1      -2.250  -4.733  -1.516  1.00  0.00    -0.037 C 
HETATM   48  C1  UNL     1      -2.771  -5.603  -0.675  1.00  0.00     0.007 C 
ENDBRANCH  46  47
ENDBRANCH  45  46
ENDBRANCH   1  45
BRANCH  19  49
HETATM   49  C25 UNL     1      -3.733   2.807   0.879  1.00  0.00     0.133 C 
BRANCH  49  50
HETATM   50  C26 UNL     1      -4.860   3.617   0.390  1.00  0.00     0.020 C 
BRANCH  50  51
HETATM   51  C27 UNL     1      -5.155   4.672   1.447  1.00  0.00     0.001 C 
BRANCH  51  52
HETATM   52  C28 UNL     1      -5.531   4.111   2.778  1.00  0.00    -0.004 C 
HETATM   53  C29 UNL     1      -5.803   5.307   3.702  1.00  0.00     0.005 C 
ENDBRANCH  51  52
ENDBRANCH  50  51
ENDBRANCH  49  50
ENDBRANCH  19  49
TORSDOF 18
