REMARK  4 active torsions:
REMARK  status: ('A' for Active; 'I' for Inactive)
REMARK    1  A    between atoms: N1_2  and  C2_4 
REMARK    2  A    between atoms: C2_4  and  C3_5 
REMARK    3  A    between atoms: C3_5  and  C4_6 
REMARK    4  A    between atoms: C5_7  and  C6_8 
ROOT
HETATM    1  C4  UNL     1      -0.463   0.410   0.591  1.00  0.00    -0.104 C 
HETATM    2  C5  UNL     1       0.561   0.635  -0.003  1.00  0.00    -0.098 C 
ENDROOT
BRANCH   1   3
HETATM    3  C3  UNL     1      -1.715   0.153   1.304  1.00  0.00     0.113 C 
BRANCH   3   4
HETATM    4  C2  UNL     1      -2.886   0.601   0.449  1.00  0.00     0.130 C 
BRANCH   4   5
HETATM    5  N1  UNL     1      -2.932  -0.092  -0.798  1.00  0.00    -0.407 N 
HETATM    6  C1  UNL     1      -3.873  -0.877  -1.125  1.00  0.00     0.112 C 
ATOM      7  H1  UNL     1      -2.169   0.051  -1.460  1.00  0.00     0.158 HD
ENDBRANCH   4   5
ENDBRANCH   3   4
ENDBRANCH   1   3
BRANCH   2   8
HETATM    8  C6  UNL     1       1.823   0.906  -0.737  1.00  0.00     0.087 A 
HETATM    9  C7  UNL     1       2.840   1.249  -0.142  1.00  0.00    -0.014 A 
HETATM   10  C8  UNL     1       3.475   0.964   0.170  1.00  0.00    -0.029 A 
HETATM   11  C9  UNL     1       4.056  -0.107   0.360  1.00  0.00     0.028 A 
HETATM   12  C10 UNL     1       2.576  -0.766  -0.505  1.00  0.00     0.025 A 
ENDBRANCH   2   8
TORSDOF 4
