REMARK  10 active torsions:
REMARK  status: ('A' for Active; 'I' for Inactive)
REMARK       I    between atoms: C2_2  and  N1_4 
REMARK    1  A    between atoms: C3_6  and  O2_7 
REMARK    2  A    between atoms: C3_6  and  N2_9 
REMARK    3  A    between atoms: N2_9  and  S1_11 
REMARK    4  A    between atoms: S1_11  and  C4_14 
REMARK    5  A    between atoms: C9_19  and  C10_20 
REMARK    6  A    between atoms: C10_20  and  N3_21 
REMARK       I    between atoms: N3_21  and  C11_23 
REMARK    7  A    between atoms: C11_23  and  C12_25 
REMARK    8  A    between atoms: C12_25  and  N4_26 
REMARK    9  A    between atoms: C13_27  and  O6_28 
REMARK   10  A    between atoms: C16_32  and  O7_33 
ROOT
HETATM    1  C4  UNL     1      -1.423   0.239  -0.074  1.00  0.00     0.087 A 
HETATM    2  C5  UNL     1      -2.153   0.971  -0.982  1.00  0.00     0.026 A 
HETATM    3  C6  UNL     1      -1.532   1.687  -2.008  1.00  0.00     0.002 A 
HETATM    4  C7  UNL     1      -0.171   1.663  -2.115  1.00  0.00     0.001 A 
HETATM    5  C8  UNL     1       0.559   0.913  -1.182  1.00  0.00     0.010 A 
HETATM    6  C9  UNL     1      -0.048   0.206  -0.171  1.00  0.00    -0.017 A 
ENDROOT
BRANCH   6   7
HETATM    7  C10 UNL     1       0.711  -0.576   0.800  1.00  0.00     0.162 C 
BRANCH   7   8
HETATM    8  N3  UNL     1       2.143  -0.575   0.657  1.00  0.00    -0.355 N 
HETATM    9  C11 UNL     1       2.886  -1.351   1.620  1.00  0.00     0.236 C 
HETATM   10  O5  UNL     1       2.279  -1.979   2.518  1.00  0.00    -0.272 OA
ATOM     11  H3  UNL     1       2.608  -0.053  -0.086  1.00  0.00     0.162 HD
BRANCH   9  12
HETATM   12  C12 UNL     1       4.366  -1.418   1.564  1.00  0.00     0.236 C 
BRANCH  12  13
HETATM   13  N4  UNL     1       4.833  -0.626   0.458  1.00  0.00    -0.300 N 
HETATM   14  C13 UNL     1       5.135   0.687   0.584  1.00  0.00     0.144 A 
HETATM   15  C14 UNL     1       5.548   1.142  -0.648  1.00  0.00     0.060 A 
HETATM   16  C15 UNL     1       5.492   0.091  -1.516  1.00  0.00     0.060 A 
HETATM   17  C16 UNL     1       5.048  -0.994  -0.816  1.00  0.00     0.144 A 
BRANCH  14  18
HETATM   18  O6  UNL     1       5.055   1.463   1.731  1.00  0.00    -0.346 OA
ATOM     19  H6  UNL     1       5.267   2.385   1.819  1.00  0.00     0.219 HD
ENDBRANCH  14  18
BRANCH  17  20
HETATM   20  O7  UNL     1       4.833  -2.298  -1.296  1.00  0.00    -0.346 OA
ATOM     21  H7  UNL     1       4.985  -2.558  -2.197  1.00  0.00     0.219 HD
ENDBRANCH  17  20
ENDBRANCH  12  13
ENDBRANCH   9  12
ENDBRANCH   7   8
ENDBRANCH   6   7
BRANCH   1  22
HETATM   22  S1  UNL     1      -2.264  -0.615   1.181  1.00  0.00     0.266 S 
HETATM   23  O3  UNL     1      -1.990  -2.106   1.163  1.00  0.00    -0.200 OA
HETATM   24  O4  UNL     1      -1.782  -0.072   2.509  1.00  0.00    -0.200 OA
BRANCH  22  25
HETATM   25  N2  UNL     1      -3.978  -0.462   1.062  1.00  0.00    -0.245 N 
ATOM     26  H2  UNL     1      -4.508  -0.020   1.813  1.00  0.00     0.182 HD
BRANCH  25  27
HETATM   27  C3  UNL     1      -4.642  -0.953  -0.082  1.00  0.00     0.233 C 
HETATM   28  N1  UNL     1      -5.854  -0.635  -0.391  1.00  0.00    -0.293 N 
HETATM   29  C2  UNL     1      -6.582   0.252   0.439  1.00  0.00     0.220 C 
ATOM     30  H1  UNL     1      -6.286  -1.021  -1.230  1.00  0.00     0.172 HD
HETATM   31  C1  UNL     1      -6.928   1.626   0.019  1.00  0.00     0.117 C 
HETATM   32  O1  UNL     1      -6.942  -0.152   1.568  1.00  0.00    -0.274 OA
BRANCH  27  33
HETATM   33  O2  UNL     1      -3.993  -1.834  -0.954  1.00  0.00    -0.332 OA
ATOM     34  H2  UNL     1      -3.101  -2.068  -0.727  1.00  0.00     0.221 HD
ENDBRANCH  27  33
ENDBRANCH  25  27
ENDBRANCH  22  25
ENDBRANCH   1  22
TORSDOF 10
