REMARK  10 active torsions:
REMARK  status: ('A' for Active; 'I' for Inactive)
REMARK    1  A    between atoms: C2_2  and  C3_3 
REMARK    2  A    between atoms: C3_3  and  C4_4 
REMARK    3  A    between atoms: C4_4  and  C5_5 
REMARK    4  A    between atoms: C8_8  and  O1_9 
REMARK    5  A    between atoms: C9_11  and  O2_12 
REMARK    6  A    between atoms: O2_12  and  C10_13 
REMARK    7  A    between atoms: C14_20  and  N2_21 
REMARK    8  A    between atoms: C21_31  and  O3_32 
REMARK    9  A    between atoms: C23_35  and  O4_36 
REMARK   10  A    between atoms: C24_38  and  O5_39 
ROOT
HETATM    1  C4  UNL     1      -0.469  -1.831  -0.955  1.00  0.00     0.002 C 
HETATM    2  C8  UNL     1       1.010  -1.527  -0.875  1.00  0.00     0.157 C 
HETATM    3  C9  UNL     1       1.432  -0.237  -0.244  1.00  0.00     0.152 C 
HETATM    4  C15 UNL     1       0.758   0.004   1.068  1.00  0.00     0.041 C 
HETATM    5  C16 UNL     1      -0.699  -0.130   0.882  1.00  0.00     0.008 C 
HETATM    6  C17 UNL     1      -1.370   1.059   1.547  1.00  0.00    -0.006 C 
HETATM    7  C18 UNL     1      -0.776   0.988   2.997  1.00  0.00     0.019 C 
HETATM    8  C19 UNL     1      -0.929   2.394   1.081  1.00  0.00     0.015 C 
HETATM    9  C20 UNL     1      -1.972   3.475   1.064  1.00  0.00     0.032 C 
HETATM   10  C21 UNL     1      -3.193   3.192   1.871  1.00  0.00     0.121 C 
HETATM   11  C22 UNL     1      -3.761   1.890   1.316  1.00  0.00     0.073 C 
HETATM   12  C23 UNL     1      -2.801   0.802   1.758  1.00  0.00     0.093 C 
HETATM   13  C24 UNL     1      -3.158  -0.566   1.294  1.00  0.00     0.154 C 
HETATM   14  C25 UNL     1      -2.682  -0.991  -0.044  1.00  0.00     0.045 C 
HETATM   15  C26 UNL     1      -1.235  -0.662  -0.388  1.00  0.00    -0.026 C 
HETATM   16  C27 UNL     1      -1.414   0.382  -1.498  1.00  0.00     0.016 C 
ENDROOT
BRANCH   3  17
HETATM   17  O2  UNL     1       2.804  -0.413   0.028  1.00  0.00    -0.374 OA
BRANCH  17  18
HETATM   18  C10 UNL     1       3.636   0.520  -0.505  1.00  0.00     0.178 C 
HETATM   19  C11 UNL     1       4.716   0.077  -1.418  1.00  0.00     0.266 C 
HETATM   20  N1  UNL     1       5.458   1.242  -1.860  1.00  0.00    -0.073 N 
HETATM   21  C12 UNL     1       4.767   2.470  -1.656  1.00  0.00     0.234 C 
ATOM     22  H12 UNL     1       6.379   1.270  -1.423  1.00  0.00     0.277 HD
ATOM     23  H11 UNL     1       5.736   1.143  -2.836  1.00  0.00     0.277 HD
HETATM   24  C13 UNL     1       4.524   2.773  -0.189  1.00  0.00     0.063 C 
HETATM   25  C14 UNL     1       4.258   1.457   0.513  1.00  0.00     0.215 C 
BRANCH  25  26
HETATM   26  N2  UNL     1       5.466   0.992   1.079  1.00  0.00    -0.072 N 
ATOM     27  H23 UNL     1       5.334   0.065   1.484  1.00  0.00     0.274 HD
ATOM     28  H22 UNL     1       6.138   0.769   0.345  1.00  0.00     0.274 HD
ATOM     29  H21 UNL     1       5.884   1.622   1.763  1.00  0.00     0.274 HD
ENDBRANCH  25  26
ENDBRANCH  17  18
ENDBRANCH   3  17
BRANCH   2  30
HETATM   30  O1  UNL     1       1.686  -1.470  -2.081  1.00  0.00    -0.392 OA
ATOM     31  H1  UNL     1       2.615  -1.279  -2.031  1.00  0.00     0.210 HD
ENDBRANCH   2  30
BRANCH   1  32
HETATM   32  C3  UNL     1      -0.673  -3.174  -0.367  1.00  0.00     0.039 C 
BRANCH  32  33
HETATM   33  C2  UNL     1      -0.425  -3.426   1.068  1.00  0.00    -0.036 C 
HETATM   34  C1  UNL     1      -1.369  -3.994   1.792  1.00  0.00     0.007 C 
ENDBRANCH  32  33
ENDBRANCH   1  32
BRANCH   1  35
HETATM   35  C5  UNL     1      -0.821  -2.038  -2.453  1.00  0.00    -0.011 C 
HETATM   36  C6  UNL     1       0.095  -3.013  -3.145  1.00  0.00     0.010 C 
HETATM   37  C7  UNL     1      -2.172  -2.585  -2.742  1.00  0.00     0.010 C 
ENDBRANCH   1  35
BRANCH  12  38
HETATM   38  O4  UNL     1      -3.187   0.709   3.139  1.00  0.00    -0.386 OA
ATOM     39  H4  UNL     1      -4.112   0.543   3.275  1.00  0.00     0.210 HD
ENDBRANCH  12  38
BRANCH  13  40
HETATM   40  O5  UNL     1      -4.578  -0.595   1.257  1.00  0.00    -0.392 OA
ATOM     41  H5  UNL     1      -4.806  -1.468   0.961  1.00  0.00     0.210 HD
ENDBRANCH  13  40
BRANCH  10  42
HETATM   42  O3  UNL     1      -4.134   4.199   1.541  1.00  0.00    -0.395 OA
ATOM     43  H3  UNL     1      -4.912   4.019   2.055  1.00  0.00     0.210 HD
ENDBRANCH  10  42
TORSDOF 10
