REMARK  11 active torsions:
REMARK  status: ('A' for Active; 'I' for Inactive)
REMARK    1  A    between atoms: C2_2  and  C4_4 
REMARK    2  A    between atoms: C4_4  and  C5_5 
REMARK    3  A    between atoms: C5_5  and  C6_6 
REMARK    4  A    between atoms: C6_6  and  C7_7 
REMARK    5  A    between atoms: C7_7  and  C9_9 
REMARK    6  A    between atoms: C15_15  and  O1_16 
REMARK    7  A    between atoms: C18_20  and  O2_21 
REMARK    8  A    between atoms: C19_23  and  O3_24 
REMARK    9  A    between atoms: C21_27  and  O4_28 
REMARK   10  A    between atoms: C23_31  and  O5_32 
REMARK   11  A    between atoms: C24_34  and  O6_35 
ROOT
HETATM    1  C9  UNL     1       1.679  -0.446   0.270  1.00  0.00    -0.002 C 
HETATM    2  C10 UNL     1       1.187  -0.210   1.720  1.00  0.00     0.006 C 
HETATM    3  C11 UNL     1       0.145   0.859   1.598  1.00  0.00     0.011 C 
HETATM    4  C12 UNL     1      -0.302   0.864   0.146  1.00  0.00    -0.027 C 
HETATM    5  C13 UNL     1       0.322   2.132  -0.439  1.00  0.00     0.016 C 
HETATM    6  C14 UNL     1      -1.753   0.987   0.117  1.00  0.00     0.061 C 
HETATM    7  C15 UNL     1      -2.307   1.799  -1.055  1.00  0.00     0.127 C 
HETATM    8  C16 UNL     1      -3.448   1.025  -1.630  1.00  0.00     0.048 C 
HETATM    9  C17 UNL     1      -3.904   0.279  -0.352  1.00  0.00     0.031 C 
HETATM   10  C18 UNL     1      -5.010  -0.613  -0.747  1.00  0.00     0.159 C 
HETATM   11  C19 UNL     1      -6.203   0.029   0.026  1.00  0.00     0.154 C 
HETATM   12  C20 UNL     1      -5.455   0.265   1.293  1.00  0.00     0.054 A 
HETATM   13  C21 UNL     1      -4.835   1.363   1.906  1.00  0.00     0.130 A 
HETATM   14  C22 UNL     1      -4.483   1.270   0.540  1.00  0.00     0.038 A 
HETATM   15  C23 UNL     1      -2.583  -0.296   0.037  1.00  0.00     0.101 C 
HETATM   16  C24 UNL     1      -1.879  -1.111  -1.000  1.00  0.00     0.154 C 
HETATM   17  C25 UNL     1      -0.547  -1.500  -0.319  1.00  0.00     0.045 C 
HETATM   18  C26 UNL     1       0.348  -0.325  -0.486  1.00  0.00    -0.030 C 
HETATM   19  C27 UNL     1       0.698  -0.183  -1.922  1.00  0.00     0.016 C 
ENDROOT
BRANCH  10  20
HETATM   20  O2  UNL     1      -4.993  -1.879  -0.108  1.00  0.00    -0.392 OA
ATOM     21  H2  UNL     1      -5.705  -2.454  -0.362  1.00  0.00     0.210 HD
ENDBRANCH  10  20
BRANCH  15  22
HETATM   22  O5  UNL     1      -2.588  -1.040   1.179  1.00  0.00    -0.386 OA
ATOM     23  H5  UNL     1      -3.103  -1.837   1.129  1.00  0.00     0.210 HD
ENDBRANCH  15  22
BRANCH   7  24
HETATM   24  O1  UNL     1      -2.799   3.045  -0.601  1.00  0.00    -0.395 OA
ATOM     25  H1  UNL     1      -3.143   3.549  -1.329  1.00  0.00     0.210 HD
ENDBRANCH   7  24
BRANCH  11  26
HETATM   26  O3  UNL     1      -7.239  -0.867   0.137  1.00  0.00    -0.392 OA
ATOM     27  H3  UNL     1      -7.966  -0.476   0.608  1.00  0.00     0.210 HD
ENDBRANCH  11  26
BRANCH  13  28
HETATM   28  O4  UNL     1      -5.715   2.358   2.403  1.00  0.00    -0.395 OA
ATOM     29  H4  UNL     1      -5.295   3.102   2.818  1.00  0.00     0.210 HD
ENDBRANCH  13  28
BRANCH  16  30
HETATM   30  O6  UNL     1      -2.463  -2.288  -1.367  1.00  0.00    -0.392 OA
ATOM     31  H6  UNL     1      -2.016  -2.806  -2.026  1.00  0.00     0.210 HD
ENDBRANCH  16  30
BRANCH   1  32
HETATM   32  C7  UNL     1       2.283  -1.781   0.266  1.00  0.00    -0.014 C 
HETATM   33  C8  UNL     1       2.671  -2.411  -1.022  1.00  0.00     0.010 C 
BRANCH  32  34
HETATM   34  C6  UNL     1       3.411  -1.924   1.224  1.00  0.00     0.005 C 
BRANCH  34  35
HETATM   35  C5  UNL     1       4.734  -1.398   0.908  1.00  0.00     0.001 C 
BRANCH  35  36
HETATM   36  C4  UNL     1       4.924   0.044   0.629  1.00  0.00     0.004 C 
BRANCH  36  37
HETATM   37  C2  UNL     1       6.427   0.351   0.387  1.00  0.00    -0.023 C 
HETATM   38  C1  UNL     1       6.949  -0.428  -0.780  1.00  0.00     0.009 C 
HETATM   39  C3  UNL     1       6.512   1.825   0.048  1.00  0.00     0.009 C 
ENDBRANCH  36  37
ENDBRANCH  35  36
ENDBRANCH  34  35
ENDBRANCH  32  34
ENDBRANCH   1  32
TORSDOF 11
