REMARK  4 active torsions:
REMARK  status: ('A' for Active; 'I' for Inactive)
REMARK       I    between atoms: C1_4  and  N3_6 
REMARK    1  A    between atoms: C6_13  and  C7_14 
REMARK    2  A    between atoms: C7_14  and  N5_15 
REMARK    3  A    between atoms: N6_19  and  N7_21 
REMARK    4  A    between atoms: C17_33  and  N11_34 
ROOT
HETATM    1  N1  UNL     1       7.213   0.148   3.174  1.00  0.00    -0.372 N 
ATOM      2  H11 UNL     1       6.501  -0.565   3.335  1.00  0.00     0.158 HD
ATOM      3  H12 UNL     1       7.832   0.425   3.936  1.00  0.00     0.158 HD
HETATM    4  C1  UNL     1       7.327   0.689   2.026  1.00  0.00     0.209 C 
HETATM    5  N2  UNL     1       8.309   1.672   1.804  1.00  0.00    -0.062 NA
HETATM    6  N3  UNL     1       6.469   0.305   0.971  1.00  0.00    -0.209 N 
HETATM    7  N4  UNL     1       5.174   0.433   0.984  1.00  0.00    -0.274 N 
ATOM      8  H4  UNL     1       4.765   0.842   1.824  1.00  0.00     0.189 HD
HETATM    9  C2  UNL     1       4.320   0.085   0.011  1.00  0.00     0.130 A 
HETATM   10  C3  UNL     1       2.888   0.256   0.095  1.00  0.00     0.009 A 
HETATM   11  C4  UNL     1       2.077  -0.122  -0.937  1.00  0.00     0.016 A 
HETATM   12  C5  UNL     1       0.689   0.033  -0.880  1.00  0.00     0.014 A 
HETATM   13  C6  UNL     1       0.142   0.581   0.250  1.00  0.00    -0.020 A 
HETATM   14  C14 UNL     1       0.931   0.971   1.304  1.00  0.00     0.014 A 
HETATM   15  C15 UNL     1       2.294   0.799   1.203  1.00  0.00     0.016 A 
HETATM   16  N10 UNL     1       4.876  -0.461  -1.113  1.00  0.00    -0.347 N 
ATOM     17  H10 UNL     1       4.278  -0.746  -1.889  1.00  0.00     0.167 HD
HETATM   18  C16 UNL     1       6.205  -0.623  -1.198  1.00  0.00     0.139 A 
HETATM   19  C17 UNL     1       7.020  -0.241  -0.156  1.00  0.00     0.139 A 
ENDROOT
BRANCH  13  20
HETATM   20  C7  UNL     1      -1.342   0.754   0.337  1.00  0.00     0.106 C 
BRANCH  20  21
HETATM   21  N5  UNL     1      -2.108   0.069  -0.581  1.00  0.00    -0.349 N 
HETATM   22  C8  UNL     1      -2.097  -1.324  -0.652  1.00  0.00     0.074 C 
HETATM   23  C9  UNL     1      -3.456  -1.852  -0.218  1.00  0.00     0.099 C 
HETATM   24  C10 UNL     1      -4.497  -0.816  -0.436  1.00  0.00     0.013 C 
HETATM   25  N6  UNL     1      -5.596  -0.936   0.217  1.00  0.00    -0.306 N 
HETATM   26  C12 UNL     1      -4.347   0.331  -1.347  1.00  0.00     0.099 C 
ATOM     27  H6  UNL     1      -5.700  -1.730   0.849  1.00  0.00     0.186 HD
HETATM   28  C13 UNL     1      -2.907   0.770  -1.506  1.00  0.00     0.074 C 
BRANCH  25  29
HETATM   29  N7  UNL     1      -6.642  -0.045   0.107  1.00  0.00    -0.276 N 
HETATM   30  C11 UNL     1      -7.798  -0.292   0.611  1.00  0.00     0.215 C 
HETATM   31  N8  UNL     1      -8.848   0.655   0.474  1.00  0.00    -0.065 NA
HETATM   32  N9  UNL     1      -7.999  -1.516   1.297  1.00  0.00    -0.065 NA
ATOM     33  H7  UNL     1      -6.494   0.835  -0.388  1.00  0.00     0.189 HD
ENDBRANCH  25  29
ENDBRANCH  20  21
ENDBRANCH  13  20
BRANCH  19  34
HETATM   34  N11 UNL     1       8.296  -0.378  -0.195  1.00  0.00    -0.383 N 
ATOM     35 2H11 UNL     1       8.900  -0.095   0.577  1.00  0.00     0.157 HD
ATOM     36 1H11 UNL     1       8.707  -0.785  -1.035  1.00  0.00     0.157 HD
ENDBRANCH  19  34
TORSDOF 4
