REMARK  10 active torsions:
REMARK  status: ('A' for Active; 'I' for Inactive)
REMARK    1  A    between atoms: C2_2  and  O1_4 
REMARK    2  A    between atoms: C2_2  and  C4_6 
REMARK    3  A    between atoms: C4_6  and  C5_8 
REMARK    4  A    between atoms: C5_8  and  O3_9 
REMARK    5  A    between atoms: C5_8  and  N1_11 
REMARK    6  A    between atoms: C8_15  and  O4_16 
REMARK    7  A    between atoms: N2_19  and  C10_20 
REMARK    8  A    between atoms: C10_20  and  C11_25 
REMARK    9  A    between atoms: N3_21  and  O5_23 
REMARK   10  A    between atoms: C17_31  and  C18_32 
ROOT
HETATM    1  N1  UNL     1      -1.724  -0.070   0.262  1.00  0.00    -0.362 N 
ATOM      2  H1  UNL     1      -1.772   0.774   0.833  1.00  0.00     0.162 HD
HETATM    3  C6  UNL     1      -0.629  -0.675   0.302  1.00  0.00     0.020 C 
HETATM    4  C7  UNL     1      -0.272  -1.922  -0.421  1.00  0.00     0.088 C 
HETATM    5  C8  UNL     1       0.932  -1.623  -1.275  1.00  0.00     0.141 C 
HETATM    6  C9  UNL     1       2.113  -1.182  -0.402  1.00  0.00     0.158 C 
HETATM    7  N2  UNL     1       1.714  -0.047   0.429  1.00  0.00    -0.343 N 
HETATM    8  C17 UNL     1       0.458  -0.097   1.170  1.00  0.00     0.232 C 
ENDROOT
BRANCH   1   9
HETATM    9  C5  UNL     1      -2.900  -0.377  -0.451  1.00  0.00     0.291 C 
BRANCH   9  10
HETATM   10  C4  UNL     1      -4.042  -0.741   0.433  1.00  0.00     0.208 C 
HETATM   11  O2  UNL     1      -3.849  -1.684   1.179  1.00  0.00    -0.290 OA
BRANCH  10  12
HETATM   12  C2  UNL     1      -5.332  -0.066   0.464  1.00  0.00     0.115 C 
HETATM   13  C1  UNL     1      -5.093   1.397   0.808  1.00  0.00     0.054 C 
HETATM   14  C3  UNL     1      -6.070  -0.086  -0.849  1.00  0.00     0.054 C 
BRANCH  12  15
HETATM   15  O1  UNL     1      -6.154  -0.667   1.413  1.00  0.00    -0.383 OA
ATOM     16  H1  UNL     1      -6.303  -1.580   1.198  1.00  0.00     0.211 HD
ENDBRANCH  12  15
ENDBRANCH  10  12
ENDBRANCH   9  10
BRANCH   9  17
HETATM   17  O3  UNL     1      -3.306   0.724  -1.236  1.00  0.00    -0.370 OA
ATOM     18  H3  UNL     1      -2.578   0.956  -1.800  1.00  0.00     0.212 HD
ENDBRANCH   9  17
ENDBRANCH   1   9
BRANCH   8  19
HETATM   19  C18 UNL     1       0.612  -1.036   2.312  1.00  0.00     0.202 C 
HETATM   20  O6  UNL     1       1.664  -1.673   2.571  1.00  0.00    -0.646 OA
HETATM   21  O7  UNL     1      -0.450  -1.274   3.202  1.00  0.00    -0.646 OA
ENDBRANCH   8  19
BRANCH   5  22
HETATM   22  O4  UNL     1       0.615  -0.539  -2.092  1.00  0.00    -0.394 OA
ATOM     23  H4  UNL     1       1.374  -0.350  -2.631  1.00  0.00     0.210 HD
ENDBRANCH   5  22
BRANCH   7  24
HETATM   24  C10 UNL     1       2.581   1.074   0.466  1.00  0.00     0.134 C 
HETATM   25  N3  UNL     1       2.049   2.214   0.700  1.00  0.00    -0.252 N 
ATOM     26  H3  UNL     1       1.039   2.223   0.842  1.00  0.00     0.196 HD
BRANCH  25  27
HETATM   27  O5  UNL     1       2.680   3.410   0.780  1.00  0.00    -0.288 OA
ATOM     28  H5  UNL     1       2.285   4.256   0.954  1.00  0.00     0.244 HD
ENDBRANCH  25  27
BRANCH  24  29
HETATM   29  C11 UNL     1       4.007   0.945   0.235  1.00  0.00     0.009 A 
HETATM   30  C12 UNL     1       4.752   1.843  -0.515  1.00  0.00     0.015 A 
HETATM   31  C13 UNL     1       6.111   1.702  -0.708  1.00  0.00     0.001 A 
HETATM   32  C14 UNL     1       6.801   0.646  -0.158  1.00  0.00     0.000 A 
HETATM   33  C15 UNL     1       6.089  -0.262   0.592  1.00  0.00     0.001 A 
HETATM   34  C16 UNL     1       4.731  -0.122   0.786  1.00  0.00     0.015 A 
ENDBRANCH  24  29
ENDBRANCH   7  24
TORSDOF 10
