REMARK  18 active torsions:
REMARK  status: ('A' for Active; 'I' for Inactive)
REMARK    1  A    between atoms: C2_2  and  O2_4 
REMARK    2  A    between atoms: O2_4  and  C3_5 
REMARK    3  A    between atoms: C3_5  and  C4_6 
REMARK    4  A    between atoms: C4_6  and  O3_7 
REMARK    5  A    between atoms: N1_9  and  N2_11 
REMARK    6  A    between atoms: N3_13  and  N4_15 
REMARK    7  A    between atoms: N4_15  and  O4_16 
REMARK    8  A    between atoms: N4_15  and  C5_18 
REMARK    9  A    between atoms: C5_18  and  N5_20 
REMARK   10  A    between atoms: C7_22  and  O5_23 
REMARK   11  A    between atoms: C7_22  and  C8_25 
REMARK   12  A    between atoms: C8_25  and  O6_26 
REMARK   13  A    between atoms: C9_28  and  O7_30 
REMARK   14  A    between atoms: C11_32  and  O8_33 
REMARK   15  A    between atoms: C12_35  and  O9_36 
REMARK   16  A    between atoms: C12_35  and  C13_38 
REMARK   17  A    between atoms: C13_38  and  O10_39 
REMARK   18  A    between atoms: C13_38  and  O11_41 
ROOT
HETATM    1  N5  UNL     1      -1.139   0.152   0.459  1.00  0.00    -0.314 N 
HETATM    2  C6  UNL     1      -0.720   0.069  -0.901  1.00  0.00     0.172 C 
HETATM    3  C7  UNL     1      -1.738  -0.290  -1.890  1.00  0.00     0.128 C 
HETATM    4  C9  UNL     1      -2.998  -0.932  -1.486  1.00  0.00     0.119 C 
HETATM    5  C10 UNL     1      -4.261  -0.322  -2.073  1.00  0.00     0.052 C 
HETATM    6  C11 UNL     1      -3.168  -1.149  -0.013  1.00  0.00     0.216 C 
HETATM    7  C12 UNL     1      -2.497  -0.077   0.816  1.00  0.00     0.215 C 
ENDROOT
BRANCH   1   8
HETATM    8  C5  UNL     1      -0.168   0.463   1.431  1.00  0.00     0.223 C 
HETATM    9  S1  UNL     1      -0.592   0.547   3.016  1.00  0.00    -0.037 SA
BRANCH   8  10
HETATM   10  N4  UNL     1       1.177   0.702   1.115  1.00  0.00    -0.119 N 
BRANCH  10  11
HETATM   11  N3  UNL     1       2.045   1.007   2.211  1.00  0.00    -0.199 N 
HETATM   12  N2  UNL     1       3.183   0.454   2.185  1.00  0.00    -0.224 N 
ATOM     13  H2  UNL     1       3.448  -0.168   1.421  1.00  0.00     0.210 HD
ATOM     14  H3  UNL     1       1.764   1.632   2.967  1.00  0.00     0.212 HD
BRANCH  12  15
HETATM   15  N1  UNL     1       4.048   0.717   3.215  1.00  0.00    -0.266 N 
HETATM   16  C4  UNL     1       5.291   0.466   3.133  1.00  0.00     0.156 C 
ATOM     17  H1  UNL     1       3.683   1.127   4.074  1.00  0.00     0.190 HD
BRANCH  16  18
HETATM   18  C3  UNL     1       5.973  -0.115   1.990  1.00  0.00     0.264 C 
BRANCH  18  19
HETATM   19  O2  UNL     1       5.116  -0.421   0.920  1.00  0.00    -0.314 OA
BRANCH  19  20
HETATM   20  C2  UNL     1       5.704  -0.981  -0.210  1.00  0.00     0.255 C 
HETATM   21  C1  UNL     1       4.931  -1.357  -1.415  1.00  0.00     0.126 C 
HETATM   22  O1  UNL     1       6.961  -1.187  -0.231  1.00  0.00    -0.266 OA
ENDBRANCH  19  20
ENDBRANCH  18  19
ENDBRANCH  16  18
BRANCH  16  23
HETATM   23  O3  UNL     1       6.065   0.786   4.257  1.00  0.00    -0.347 OA
ATOM     24  H3  UNL     1       5.619   1.166   5.005  1.00  0.00     0.219 HD
ENDBRANCH  16  23
ENDBRANCH  12  15
ENDBRANCH  10  11
BRANCH  10  25
HETATM   25  O4  UNL     1       1.776   0.691  -0.074  1.00  0.00    -0.265 OA
ATOM     26  H4  UNL     1       1.200   0.489  -0.802  1.00  0.00     0.247 HD
ENDBRANCH  10  25
ENDBRANCH   8  10
ENDBRANCH   1   8
BRANCH   7  27
HETATM   27  O9  UNL     1      -2.534  -0.558   2.151  1.00  0.00    -0.364 OA
ATOM     28  H9  UNL     1      -3.441  -0.711   2.389  1.00  0.00     0.213 HD
ENDBRANCH   7  27
BRANCH   7  29
HETATM   29  C13 UNL     1      -3.308   1.188   0.854  1.00  0.00     0.313 C 
BRANCH  29  30
HETATM   30  O10 UNL     1      -2.859   2.139   1.759  1.00  0.00    -0.367 OA
ATOM     31  H10 UNL     1      -3.372   2.939   1.783  1.00  0.00     0.212 HD
ENDBRANCH  29  30
BRANCH  29  32
HETATM   32  O11 UNL     1      -4.640   0.940   1.203  1.00  0.00    -0.367 OA
ATOM     33  H11 UNL     1      -5.153   1.740   1.227  1.00  0.00     0.212 HD
ENDBRANCH  29  32
ENDBRANCH   7  29
BRANCH   3  34
HETATM   34  O5  UNL     1      -1.033  -1.150  -2.830  1.00  0.00    -0.383 OA
ATOM     35  H5  UNL     1      -1.694  -1.383  -3.472  1.00  0.00     0.210 HD
ENDBRANCH   3  34
BRANCH   3  36
HETATM   36  C8  UNL     1      -1.954   0.944  -2.806  1.00  0.00     0.206 C 
BRANCH  36  37
HETATM   37  O6  UNL     1      -2.682   0.579  -3.932  1.00  0.00    -0.398 OA
ATOM     38  H6  UNL     1      -2.814   1.334  -4.493  1.00  0.00     0.209 HD
ENDBRANCH  36  37
ENDBRANCH   3  36
BRANCH   6  39
HETATM   39  O8  UNL     1      -2.728  -2.406   0.389  1.00  0.00    -0.387 OA
ATOM     40  H8  UNL     1      -2.836  -2.544   1.323  1.00  0.00     0.210 HD
ENDBRANCH   6  39
BRANCH   4  41
HETATM   41  O7  UNL     1      -2.993  -2.250  -2.025  1.00  0.00    -0.384 OA
ATOM     42  H7  UNL     1      -3.807  -2.665  -1.764  1.00  0.00     0.210 HD
ENDBRANCH   4  41
TORSDOF 18
