REMARK  11 active torsions:
REMARK  status: ('A' for Active; 'I' for Inactive)
REMARK    1  A    between atoms: O1_2  and  C2_3 
REMARK    2  A    between atoms: C2_3  and  O2_4 
REMARK    3  A    between atoms: C2_3  and  C3_6 
REMARK    4  A    between atoms: C3_6  and  O3_7 
REMARK    5  A    between atoms: C3_6  and  C4_9 
REMARK    6  A    between atoms: C4_9  and  O4_10 
REMARK    7  A    between atoms: C4_9  and  C5_12 
REMARK    8  A    between atoms: C6_13  and  O5_14 
REMARK    9  A    between atoms: C7_16  and  C8_17 
REMARK   10  A    between atoms: C10_21  and  N2_22 
REMARK   11  A    between atoms: C13_34  and  N7_35 
REMARK       I    between atoms: N7_35  and  C14_37 
ROOT
HETATM    1  C5  UNL     1      -1.947  -0.420   0.194  1.00  0.00     0.075 A 
HETATM    2  C6  UNL     1      -0.655   0.096   0.103  1.00  0.00     0.098 A 
HETATM    3  C7  UNL     1       0.413  -0.736   0.352  1.00  0.00     0.088 A 
HETATM    4  C13 UNL     1       0.220  -2.088   0.693  1.00  0.00     0.130 A 
HETATM    5  N8  UNL     1      -1.023  -2.522   0.765  1.00  0.00    -0.308 N 
ATOM      6  H8  UNL     1      -1.189  -3.498   1.010  1.00  0.00     0.170 HD
HETATM    7  C15 UNL     1      -2.087  -1.721   0.526  1.00  0.00     0.258 A 
HETATM    8  O9  UNL     1      -3.235  -2.288   0.638  1.00  0.00    -0.267 OA
ENDROOT
BRANCH   3   9
HETATM    9  C8  UNL     1       1.765  -0.188   0.249  1.00  0.00     0.140 A 
HETATM   10  N1  UNL     1       2.506  -0.155  -0.879  1.00  0.00    -0.321 N 
HETATM   11  C9  UNL     1       3.712   0.415  -0.609  1.00  0.00     0.191 A 
ATOM     12  H1  UNL     1       2.209  -0.503  -1.791  1.00  0.00     0.169 HD
HETATM   13  C10 UNL     1       4.827   0.699  -1.347  1.00  0.00     0.153 A 
HETATM   14  N5  UNL     1       3.698   0.725   0.678  1.00  0.00    -0.170 N 
HETATM   15  N3  UNL     1       5.888   1.287  -0.751  1.00  0.00    -0.286 N 
HETATM   16  C11 UNL     1       7.069   1.585  -1.546  1.00  0.00     0.163 C 
HETATM   17  C12 UNL     1       5.829   1.583   0.555  1.00  0.00     0.344 A 
HETATM   18  O6  UNL     1       6.838   2.134   1.083  1.00  0.00    -0.245 OA
HETATM   19  N4  UNL     1       4.746   1.307   1.269  1.00  0.00    -0.228 N 
ATOM     20  H4  UNL     1       4.713   1.537   2.262  1.00  0.00     0.194 HD
HETATM   21  N6  UNL     1       2.515   0.359   1.201  1.00  0.00    -0.261 N 
ATOM     22  H6  UNL     1       2.237   0.482   2.175  1.00  0.00     0.191 HD
BRANCH  13  23
HETATM   23  N2  UNL     1       4.845   0.398  -2.599  1.00  0.00    -0.382 N 
ATOM     24  H22 UNL     1       4.044  -0.046  -3.049  1.00  0.00     0.157 HD
ATOM     25  H21 UNL     1       5.677   0.610  -3.150  1.00  0.00     0.157 HD
ENDBRANCH  13  23
ENDBRANCH   3   9
BRANCH   2  26
HETATM   26  O5  UNL     1      -0.402   1.434  -0.233  1.00  0.00    -0.359 OA
ATOM     27  H5  UNL     1       0.478   1.786  -0.295  1.00  0.00     0.217 HD
ENDBRANCH   2  26
BRANCH   4  28
HETATM   28  N7  UNL     1       1.399  -2.825   0.914  1.00  0.00    -0.286 N 
HETATM   29  C14 UNL     1       1.441  -4.179   1.262  1.00  0.00     0.289 C 
HETATM   30  O7  UNL     1       0.498  -4.973   1.444  1.00  0.00    -0.629 OA
HETATM   31  O8  UNL     1       2.726  -4.770   1.442  1.00  0.00    -0.629 OA
ATOM     32  H7  UNL     1       2.288  -2.335   0.813  1.00  0.00     0.173 HD
ENDBRANCH   4  28
BRANCH   1  33
HETATM   33  C4  UNL     1      -3.062   0.507  -0.061  1.00  0.00     0.193 C 
BRANCH  33  34
HETATM   34  C3  UNL     1      -4.399  -0.071  -0.333  1.00  0.00     0.206 C 
BRANCH  34  35
HETATM   35  C2  UNL     1      -5.280   1.105  -0.808  1.00  0.00     0.287 C 
BRANCH  35  36
HETATM   36  O1  UNL     1      -5.455   2.043   0.176  1.00  0.00    -0.364 OA
HETATM   37  C1  UNL     1      -6.788   2.218   0.547  1.00  0.00     0.204 C 
ENDBRANCH  35  36
BRANCH  35  38
HETATM   38  O2  UNL     1      -4.620   1.679  -1.902  1.00  0.00    -0.369 OA
ATOM     39  H2  UNL     1      -4.499   1.029  -2.584  1.00  0.00     0.212 HD
ENDBRANCH  35  38
ENDBRANCH  34  35
BRANCH  34  40
HETATM   40  O3  UNL     1      -4.365  -0.921  -1.470  1.00  0.00    -0.388 OA
ATOM     41  H3  UNL     1      -3.823  -1.644  -1.178  1.00  0.00     0.210 HD
ENDBRANCH  34  40
ENDBRANCH  33  34
BRANCH  33  42
HETATM   42  O4  UNL     1      -3.083   1.375   1.046  1.00  0.00    -0.388 OA
ATOM     43  H4  UNL     1      -2.226   1.746   1.220  1.00  0.00     0.210 HD
ENDBRANCH  33  42
ENDBRANCH   1  33
TORSDOF 11
