REMARK  10 active torsions:
REMARK  status: ('A' for Active; 'I' for Inactive)
REMARK    1  A    between atoms: O1_2  and  C2_3 
REMARK    2  A    between atoms: C3_6  and  N2_7 
REMARK    3  A    between atoms: C6_12  and  N4_13 
REMARK    4  A    between atoms: C7_16  and  C8_17 
REMARK    5  A    between atoms: C10_21  and  N7_22 
REMARK    6  A    between atoms: C12_30  and  C13_31 
REMARK    7  A    between atoms: C13_31  and  N11_35 
REMARK    8  A    between atoms: N11_35  and  O2_37 
REMARK    9  A    between atoms: O2_37  and  C14_38 
REMARK   10  A    between atoms: C15_43  and  N14_44 
ROOT
HETATM    1  N4  UNL     1      -0.310   0.224   0.339  1.00  0.00    -0.066 N 
HETATM    2  N5  UNL     1      -0.054   1.469   0.087  1.00  0.00    -0.262 N 
ATOM      3  H5  UNL     1      -0.837   2.093  -0.109  1.00  0.00     0.190 HD
HETATM    4  C7  UNL     1       1.189   1.982   0.070  1.00  0.00     0.134 A 
HETATM    5  N9  UNL     1       2.210   1.166   0.328  1.00  0.00    -0.334 N 
ATOM      6  H9  UNL     1       3.159   1.541   0.320  1.00  0.00     0.168 HD
HETATM    7  C12 UNL     1       2.020  -0.171   0.605  1.00  0.00     0.126 A 
HETATM    8  C15 UNL     1       0.725  -0.645   0.609  1.00  0.00     0.170 A 
ENDROOT
BRANCH   1   9
HETATM    9  C6  UNL     1      -1.631  -0.275   0.347  1.00  0.00     0.723 A 
HETATM   10  N3  UNL     1      -2.375  -0.389  -0.774  1.00  0.00    -0.020 N 
HETATM   11  C3  UNL     1      -3.632  -0.863  -0.777  1.00  0.00     0.697 A 
ATOM     12  H3  UNL     1      -1.963  -0.101  -1.661  1.00  0.00     0.203 HD
HETATM   13  N1  UNL     1      -4.185  -1.243   0.373  1.00  0.00    -0.154 N 
HETATM   14  C2  UNL     1      -3.494  -1.153   1.523  1.00  0.00     0.252 A 
ATOM     15  H1  UNL     1      -5.139  -1.605   0.382  1.00  0.00     0.188 HD
HETATM   16  N15 UNL     1      -2.238  -0.676   1.503  1.00  0.00    -0.152 N 
ATOM     17  H15 UNL     1      -1.721  -0.611   2.380  1.00  0.00     0.188 HD
BRANCH  11  18
HETATM   18  N2  UNL     1      -4.394  -0.970  -1.992  1.00  0.00    -0.226 N 
HETATM   19  C4  UNL     1      -3.765  -0.551  -3.216  1.00  0.00     0.168 C 
HETATM   20  C5  UNL     1      -5.731  -1.478  -1.966  1.00  0.00     0.168 C 
ENDBRANCH  11  18
BRANCH  14  21
HETATM   21  O1  UNL     1      -4.034  -1.538   2.741  1.00  0.00    -0.326 OA
HETATM   22  C1  UNL     1      -3.301  -1.439   3.931  1.00  0.00     0.213 C 
ENDBRANCH  14  21
ENDBRANCH   1   9
BRANCH   8  23
HETATM   23  N14 UNL     1       0.384  -1.840   0.844  1.00  0.00    -0.382 N 
ATOM     24 2H14 UNL     1      -0.574  -2.191   0.847  1.00  0.00     0.157 HD
ATOM     25 1H14 UNL     1       1.150  -2.483   1.044  1.00  0.00     0.157 HD
ENDBRANCH   8  23
BRANCH   4  26
HETATM   26  C8  UNL     1       1.363   3.400  -0.226  1.00  0.00     0.041 A 
HETATM   27  C9  UNL     1       2.613   3.983  -0.257  1.00  0.00     0.122 A 
HETATM   28  N6  UNL     1       2.719   5.280  -0.533  1.00  0.00    -0.201 N 
HETATM   29  C10 UNL     1       1.665   6.070  -0.787  1.00  0.00     0.675 A 
ATOM     30  H6  UNL     1       3.650   5.696  -0.553  1.00  0.00     0.183 HD
HETATM   31  N8  UNL     1       0.428   5.512  -0.760  1.00  0.00    -0.201 N 
HETATM   32  C11 UNL     1       0.272   4.212  -0.488  1.00  0.00     0.122 A 
ATOM     33  H8  UNL     1      -0.391   6.090  -0.949  1.00  0.00     0.183 HD
BRANCH  29  34
HETATM   34  N7  UNL     1       1.853   7.309  -1.044  1.00  0.00    -0.234 N 
ATOM     35  H72 UNL     1       2.783   7.728  -1.064  1.00  0.00     0.174 HD
ATOM     36  H71 UNL     1       1.052   7.910  -1.237  1.00  0.00     0.174 HD
ENDBRANCH  29  34
ENDBRANCH   4  26
BRANCH   7  37
HETATM   37  C13 UNL     1       3.172  -1.006   0.877  1.00  0.00     0.150 C 
HETATM   38  N10 UNL     1       4.352  -0.445   0.845  1.00  0.00    -0.382 N 
ATOM     39 2H10 UNL     1       4.350   0.551   0.627  1.00  0.00     0.157 HD
ATOM     40 1H10 UNL     1       5.163  -1.033   1.037  1.00  0.00     0.157 HD
BRANCH  37  41
HETATM   41  N11 UNL     1       3.175  -2.380   1.178  1.00  0.00    -0.240 N 
ATOM     42  H11 UNL     1       2.952  -2.721   2.113  1.00  0.00     0.196 HD
BRANCH  41  43
HETATM   43  O2  UNL     1       3.496  -3.256   0.141  1.00  0.00    -0.203 OA
BRANCH  43  44
HETATM   44  C14 UNL     1       4.754  -3.859   0.132  1.00  0.00     0.249 C 
HETATM   45  N12 UNL     1       5.490  -3.700   1.177  1.00  0.00    -0.366 N 
ATOM     46 2H12 UNL     1       5.171  -3.157   1.979  1.00  0.00     0.159 HD
ATOM     47 1H12 UNL     1       6.410  -4.141   1.170  1.00  0.00     0.159 HD
HETATM   48  N13 UNL     1       5.199  -4.618  -0.989  1.00  0.00    -0.055 NA
ENDBRANCH  43  44
ENDBRANCH  41  43
ENDBRANCH  37  41
ENDBRANCH   7  37
TORSDOF 10
