REMARK  15 active torsions:
REMARK  status: ('A' for Active; 'I' for Inactive)
REMARK    1  A    between atoms: N1_1  and  C1_5 
REMARK    2  A    between atoms: C1_5  and  N2_6 
REMARK    3  A    between atoms: C1_5  and  C2_10 
REMARK       I    between atoms: C2_10  and  N3_12 
REMARK    4  A    between atoms: N3_12  and  C3_14 
REMARK    5  A    between atoms: C3_14  and  C4_15 
REMARK    6  A    between atoms: C3_14  and  C8_23 
REMARK    7  A    between atoms: C4_15  and  C5_16 
REMARK    8  A    between atoms: C8_23  and  O2_24 
REMARK    9  A    between atoms: C8_23  and  N6_26 
REMARK   10  A    between atoms: C10_31  and  N9_32 
REMARK   11  A    between atoms: N9_32  and  C11_34 
REMARK   12  A    between atoms: C13_36  and  C14_37 
REMARK   13  A    between atoms: C14_37  and  O3_38 
REMARK   14  A    between atoms: C15_40  and  O4_41 
REMARK   15  A    between atoms: C16_43  and  N10_44 
ROOT
HETATM    1  N6  UNL     1      -1.454   0.705  -1.636  1.00  0.00    -0.227 N 
HETATM    2  N7  UNL     1      -1.152   1.852  -1.030  1.00  0.00    -0.015 NA
HETATM    3  N8  UNL     1       0.052   1.758  -0.481  1.00  0.00    -0.277 N 
ATOM      4  H8  UNL     1       0.516   2.500   0.043  1.00  0.00     0.184 HD
HETATM    5  C9  UNL     1       0.575   0.529  -0.719  1.00  0.00     0.135 A 
HETATM    6  C10 UNL     1       1.770  -0.068  -0.376  1.00  0.00     0.134 A 
HETATM    7  N11 UNL     1       1.989  -1.332  -0.777  1.00  0.00    -0.337 N 
ATOM      8  H11 UNL     1       2.863  -1.803  -0.542  1.00  0.00     0.168 HD
HETATM    9  C17 UNL     1       1.049  -1.967  -1.488  1.00  0.00     0.183 A 
HETATM   10  N12 UNL     1      -0.109  -1.383  -1.818  1.00  0.00    -0.336 N 
ATOM     11  H12 UNL     1      -0.789  -1.914  -2.362  1.00  0.00     0.168 HD
HETATM   12  C18 UNL     1      -0.411  -0.123  -1.460  1.00  0.00     0.156 A 
ENDROOT
BRANCH   1  13
HETATM   13  C8  UNL     1      -2.668   0.392  -2.355  1.00  0.00     0.264 C 
BRANCH  13  14
HETATM   14  C3  UNL     1      -3.725  -0.228  -1.530  1.00  0.00     0.140 C 
BRANCH  14  15
HETATM   15  N3  UNL     1      -4.195   0.636  -0.488  1.00  0.00    -0.349 N 
HETATM   16  C2  UNL     1      -3.821   0.689   0.853  1.00  0.00     0.276 C 
HETATM   17  O1  UNL     1      -2.960  -0.054   1.344  1.00  0.00    -0.269 OA
ATOM     18  H3  UNL     1      -4.907   1.310  -0.769  1.00  0.00     0.163 HD
BRANCH  16  19
HETATM   19  C1  UNL     1      -4.465   1.669   1.763  1.00  0.00     0.468 C 
BRANCH  19  20
HETATM   20  N1  UNL     1      -5.455   2.484   1.084  1.00  0.00    -0.042 N 
ATOM     21  H13 UNL     1      -5.867   3.181   1.704  1.00  0.00     0.277 HD
ATOM     22  H12 UNL     1      -5.030   3.118   0.408  1.00  0.00     0.277 HD
ATOM     23  H11 UNL     1      -6.163   1.888   0.656  1.00  0.00     0.277 HD
ENDBRANCH  19  20
BRANCH  19  24
HETATM   24  N2  UNL     1      -3.452   2.522   2.376  1.00  0.00    -0.042 N 
ATOM     25  H23 UNL     1      -3.027   3.156   1.700  1.00  0.00     0.277 HD
ATOM     26  H22 UNL     1      -3.864   3.219   2.996  1.00  0.00     0.277 HD
ATOM     27  H21 UNL     1      -2.756   1.949   2.853  1.00  0.00     0.277 HD
ENDBRANCH  19  24
ENDBRANCH  16  19
ENDBRANCH  14  15
BRANCH  14  28
HETATM   28  C4  UNL     1      -3.481  -1.667  -1.132  1.00  0.00     0.088 C 
BRANCH  28  29
HETATM   29  C5  UNL     1      -4.728  -2.347  -0.669  1.00  0.00     0.027 A 
HETATM   30  C6  UNL     1      -5.630  -3.032  -1.480  1.00  0.00     0.114 A 
HETATM   31  N4  UNL     1      -6.622  -3.521  -0.739  1.00  0.00    -0.360 N 
HETATM   32  C7  UNL     1      -6.385  -3.167   0.545  1.00  0.00     0.180 A 
ATOM     33  H4  UNL     1      -7.416  -4.064  -1.078  1.00  0.00     0.166 HD
HETATM   34  N5  UNL     1      -5.242  -2.464   0.560  1.00  0.00    -0.355 N 
ATOM     35  H5  UNL     1      -4.820  -2.070   1.401  1.00  0.00     0.166 HD
ENDBRANCH  28  29
ENDBRANCH  14  28
ENDBRANCH  13  14
BRANCH  13  36
HETATM   36  O2  UNL     1      -3.196   1.560  -2.952  1.00  0.00    -0.373 OA
ATOM     37  H2  UNL     1      -2.516   1.959  -3.483  1.00  0.00     0.212 HD
ENDBRANCH  13  36
ENDBRANCH   1  13
BRANCH   6  38
HETATM   38  N9  UNL     1       2.653   0.571   0.310  1.00  0.00    -0.367 N 
ATOM     39  H9  UNL     1       2.462   1.530   0.602  1.00  0.00     0.161 HD
BRANCH  38  40
HETATM   40  C11 UNL     1       3.896  -0.037   0.671  1.00  0.00     0.116 C 
HETATM   41  C12 UNL     1       4.852  -0.028  -0.503  1.00  0.00     0.036 C 
HETATM   42  C13 UNL     1       5.960   0.897  -0.117  1.00  0.00     0.042 C 
HETATM   43  C15 UNL     1       6.060   0.643   1.387  1.00  0.00     0.156 C 
HETATM   44  C16 UNL     1       4.602   0.752   1.783  1.00  0.00     0.234 C 
BRANCH  42  45
HETATM   45  C14 UNL     1       7.264   0.609  -0.807  1.00  0.00     0.171 C 
BRANCH  45  46
HETATM   46  O3  UNL     1       8.186   1.567  -0.329  1.00  0.00    -0.400 OA
ATOM     47  H3  UNL     1       9.010   1.385  -0.765  1.00  0.00     0.209 HD
ENDBRANCH  45  46
ENDBRANCH  42  45
BRANCH  43  48
HETATM   48  O4  UNL     1       6.866   1.552   2.025  1.00  0.00    -0.393 OA
ATOM     49  H4  UNL     1       6.928   1.394   2.960  1.00  0.00     0.210 HD
ENDBRANCH  43  48
BRANCH  44  50
HETATM   50  N10 UNL     1       4.345   0.199   3.075  1.00  0.00    -0.071 N 
ATOM     51 3H10 UNL     1       3.344   0.123   3.253  1.00  0.00     0.274 HD
ATOM     52 2H10 UNL     1       4.590  -0.791   3.110  1.00  0.00     0.274 HD
ATOM     53 1H10 UNL     1       4.814   0.723   3.814  1.00  0.00     0.274 HD
ENDBRANCH  44  50
ENDBRANCH  38  40
ENDBRANCH   6  38
TORSDOF 15
