REMARK  5 active torsions:
REMARK  status: ('A' for Active; 'I' for Inactive)
REMARK    1  A    between atoms: C2_2  and  C3_3 
REMARK    2  A    between atoms: C2_2  and  C10_19 
REMARK       I    between atoms: C3_3  and  N1_5 
REMARK    3  A    between atoms: C5_7  and  N2_8 
REMARK    4  A    between atoms: N2_8  and  S1_10 
REMARK    5  A    between atoms: C10_19  and  C12_21 
ROOT
HETATM    1  C3  UNL     1       0.867  -0.765   0.650  1.00  0.00     0.224 C 
HETATM    2  O1  UNL     1       1.316   0.063   1.542  1.00  0.00    -0.273 OA
HETATM    3  N1  UNL     1       1.817  -1.145  -0.313  1.00  0.00    -0.344 N 
HETATM    4  C4  UNL     1       3.177  -0.601  -0.266  1.00  0.00     0.152 C 
HETATM    5  C5  UNL     1       3.377   0.284  -1.441  1.00  0.00     0.116 C 
HETATM    6  C7  UNL     1       2.697  -0.235  -2.662  1.00  0.00     0.108 C 
HETATM    7  C8  UNL     1       2.509  -1.716  -2.572  1.00  0.00     0.261 C 
HETATM    8  F1  UNL     1       1.808  -2.078  -3.733  1.00  0.00    -0.204 F 
HETATM    9  F2  UNL     1       3.686  -2.389  -2.498  1.00  0.00    -0.204 F 
HETATM   10  C9  UNL     1       1.618  -2.085  -1.397  1.00  0.00     0.204 C 
ENDROOT
BRANCH   1  11
HETATM   11  C2  UNL     1      -0.535  -1.158   0.795  1.00  0.00     0.078 C 
HETATM   12  C1  UNL     1      -0.887  -2.532   0.327  1.00  0.00     0.020 C 
BRANCH  11  13
HETATM   13  C10 UNL     1      -1.460  -0.110   0.310  1.00  0.00    -0.002 C 
HETATM   14  C11 UNL     1      -1.570   0.055  -1.173  1.00  0.00     0.011 C 
BRANCH  13  15
HETATM   15  C12 UNL     1      -2.868  -0.207   0.874  1.00  0.00    -0.010 C 
HETATM   16  C13 UNL     1      -3.651   0.930   0.258  1.00  0.00     0.005 C 
HETATM   17  C14 UNL     1      -5.039   1.092   0.773  1.00  0.00     0.000 C 
HETATM   18  C15 UNL     1      -5.165   0.990   2.251  1.00  0.00     0.000 C 
HETATM   19  C16 UNL     1      -4.355  -0.159   2.820  1.00  0.00     0.000 C 
HETATM   20  C17 UNL     1      -2.909  -0.081   2.353  1.00  0.00     0.005 C 
ENDBRANCH  13  15
ENDBRANCH  11  13
ENDBRANCH   1  11
BRANCH   5  21
HETATM   21  N2  UNL     1       4.774   0.605  -1.677  1.00  0.00    -0.313 N 
ATOM     22  H2  UNL     1       5.480  -0.090  -1.920  1.00  0.00     0.172 HD
BRANCH  21  23
HETATM   23  S1  UNL     1       5.110   2.289  -1.502  1.00  0.00     0.223 S 
HETATM   24  C6  UNL     1       4.713   2.702   0.203  1.00  0.00     0.185 C 
HETATM   25  O2  UNL     1       6.542   2.596  -1.714  1.00  0.00    -0.206 OA
HETATM   26  O3  UNL     1       4.178   3.063  -2.361  1.00  0.00    -0.206 OA
ENDBRANCH  21  23
ENDBRANCH   5  21
TORSDOF 5
