REMARK  8 active torsions:
REMARK  status: ('A' for Active; 'I' for Inactive)
REMARK    1  A    between atoms: N2_3  and  O1_4 
REMARK    2  A    between atoms: C4_8  and  N3_9 
REMARK    3  A    between atoms: N6_19  and  C7_21 
REMARK    4  A    between atoms: C7_21  and  C8_22 
REMARK    5  A    between atoms: C8_22  and  N7_23 
REMARK    6  A    between atoms: N8_27  and  C9_28 
REMARK    7  A    between atoms: C10_32  and  O3_33 
REMARK    8  A    between atoms: C11_35  and  O4_36 
ROOT
HETATM    1  C1  UNL     1       1.205  -2.181  -0.402  1.00  0.00     0.166 C 
HETATM    2  N1  UNL     1       1.310  -0.929  -1.093  1.00  0.00    -0.112 NA
HETATM    3  N2  UNL     1       0.017  -0.551  -1.499  1.00  0.00    -0.160 N 
HETATM    4  C2  UNL     1      -0.549   0.191  -0.417  1.00  0.00     0.153 C 
HETATM    5  C3  UNL     1       0.530   0.588   0.347  1.00  0.00     0.128 C 
HETATM    6  C4  UNL     1       0.477   1.331   1.507  1.00  0.00     0.134 C 
HETATM    7  N4  UNL     1      -0.558   2.060   1.958  1.00  0.00    -0.293 N 
ATOM      8  H4  UNL     1      -0.309   2.789   2.626  1.00  0.00     0.172 HD
HETATM    9  C5  UNL     1      -1.870   1.983   1.670  1.00  0.00     0.327 C 
HETATM   10  O2  UNL     1      -2.660   2.728   2.307  1.00  0.00    -0.247 OA
HETATM   11  N5  UNL     1      -2.440   1.163   0.740  1.00  0.00    -0.293 N 
ATOM     12  H5  UNL     1      -3.456   1.102   0.799  1.00  0.00     0.172 HD
HETATM   13  C6  UNL     1      -1.897   0.422  -0.239  1.00  0.00     0.138 C 
HETATM   14  N6  UNL     1      -2.670  -0.121  -1.084  1.00  0.00    -0.373 N 
ATOM     15  H6  UNL     1      -2.217  -0.675  -1.811  1.00  0.00     0.161 HD
HETATM   16  N8  UNL     1       1.739   0.113  -0.235  1.00  0.00    -0.251 N 
ENDROOT
BRANCH  16  17
HETATM   17  C9  UNL     1       3.055   0.607   0.028  1.00  0.00     0.340 C 
HETATM   18  N9  UNL     1       3.988  -0.330   0.633  1.00  0.00    -0.021 N 
HETATM   19  C10 UNL     1       5.020   0.279  -0.222  1.00  0.00     0.354 C 
ATOM     20  H92 UNL     1       4.102  -0.390   1.645  1.00  0.00     0.283 HD
ATOM     21  H91 UNL     1       3.814  -1.335   0.624  1.00  0.00     0.283 HD
HETATM   22  C11 UNL     1       3.892   0.402  -1.255  1.00  0.00     0.226 C 
BRANCH  19  23
HETATM   23  O3  UNL     1       5.478   1.481   0.260  1.00  0.00    -0.368 OA
ATOM     24  H3  UNL     1       6.144   1.874  -0.292  1.00  0.00     0.212 HD
ENDBRANCH  19  23
BRANCH  22  25
HETATM   25  O4  UNL     1       3.643  -0.770  -1.921  1.00  0.00    -0.387 OA
ATOM     26  H4  UNL     1       4.157  -0.896  -2.710  1.00  0.00     0.210 HD
ENDBRANCH  22  25
ENDBRANCH  16  17
BRANCH   3  27
HETATM   27  O1  UNL     1      -0.622  -0.810  -2.674  1.00  0.00    -0.270 OA
ATOM     28  H1  UNL     1      -1.495  -0.555  -2.948  1.00  0.00     0.246 HD
ENDBRANCH   3  27
BRANCH   6  29
HETATM   29  N3  UNL     1       1.550   1.291   2.193  1.00  0.00    -0.383 N 
ATOM     30  H32 UNL     1       2.336   0.738   1.851  1.00  0.00     0.157 HD
ATOM     31  H31 UNL     1       1.511   1.841   3.051  1.00  0.00     0.157 HD
ENDBRANCH   6  29
BRANCH  14  32
HETATM   32  C7  UNL     1      -4.090  -0.055  -1.145  1.00  0.00     0.148 C 
BRANCH  32  33
HETATM   33  C8  UNL     1      -4.762  -1.156  -0.344  1.00  0.00     0.249 C 
BRANCH  33  34
HETATM   34  N7  UNL     1      -6.196  -1.071  -0.419  1.00  0.00    -0.078 N 
ATOM     35  H73 UNL     1      -6.529  -0.149  -0.136  1.00  0.00     0.274 HD
ATOM     36  H72 UNL     1      -6.518  -1.066  -1.387  1.00  0.00     0.274 HD
ATOM     37  H71 UNL     1      -6.647  -1.811   0.119  1.00  0.00     0.274 HD
ENDBRANCH  33  34
ENDBRANCH  32  33
ENDBRANCH  14  32
TORSDOF 8
