REMARK  10 active torsions:
REMARK  status: ('A' for Active; 'I' for Inactive)
REMARK    1  A    between atoms: N1_1  and  N2_4 
REMARK    2  A    between atoms: N2_4  and  C1_5 
REMARK    3  A    between atoms: C1_5  and  O1_6 
REMARK    4  A    between atoms: C1_5  and  C2_8 
REMARK    5  A    between atoms: C2_8  and  O2_9 
REMARK    6  A    between atoms: C2_8  and  C3_11 
REMARK    7  A    between atoms: C4_15  and  O3_16 
REMARK    8  A    between atoms: C5_18  and  N4_19 
REMARK    9  A    between atoms: N4_19  and  C6_21 
REMARK   10  A    between atoms: C11_33  and  O7_34 
ROOT
HETATM    1  C3  UNL     1       1.807  -0.636  -0.530  1.00  0.00     0.262 C 
HETATM    2  N3  UNL     1       1.348   0.727  -0.514  1.00  0.00    -0.036 N 
ATOM      3  H31 UNL     1       1.676   1.238  -1.334  1.00  0.00     0.281 HD
ATOM      4  H32 UNL     1       1.819   1.268   0.211  1.00  0.00     0.281 HD
HETATM    5  C4  UNL     1      -0.116   0.813  -0.380  1.00  0.00     0.349 C 
HETATM    6  C5  UNL     1      -0.653  -0.082   0.645  1.00  0.00     0.211 C 
HETATM    7  C10 UNL     1      -0.418  -1.499   0.204  1.00  0.00     0.184 C 
HETATM    8  O6  UNL     1      -1.106  -2.441   0.470  1.00  0.00    -0.293 OA
HETATM    9  C11 UNL     1       0.782  -1.697  -0.630  1.00  0.00     0.223 C 
ENDROOT
BRANCH   6  10
HETATM   10  N4  UNL     1      -1.950   0.142   1.136  1.00  0.00    -0.369 N 
ATOM     11  H4  UNL     1      -1.979   0.210   2.153  1.00  0.00     0.160 HD
BRANCH  10  12
HETATM   12  C6  UNL     1      -3.204   0.292   0.552  1.00  0.00     0.113 A 
HETATM   13  C7  UNL     1      -3.411   0.606  -0.753  1.00  0.00     0.127 A 
HETATM   14  N5  UNL     1      -4.674   0.775  -1.259  1.00  0.00    -0.316 N 
HETATM   15  C8  UNL     1      -5.753   0.637  -0.490  1.00  0.00     0.327 A 
ATOM     16  H5  UNL     1      -4.790   1.011  -2.244  1.00  0.00     0.170 HD
HETATM   17  O4  UNL     1      -6.919   0.789  -0.939  1.00  0.00    -0.247 OA
HETATM   18  N6  UNL     1      -5.568   0.324   0.814  1.00  0.00    -0.274 N 
HETATM   19  C9  UNL     1      -4.355   0.153   1.341  1.00  0.00     0.277 A 
ATOM     20  H6  UNL     1      -6.385   0.215   1.415  1.00  0.00     0.173 HD
HETATM   21  O5  UNL     1      -4.301  -0.138   2.573  1.00  0.00    -0.266 OA
ENDBRANCH  10  12
ENDBRANCH   6  10
BRANCH   5  22
HETATM   22  O3  UNL     1      -0.397   2.147  -0.192  1.00  0.00    -0.368 OA
ATOM     23  H3  UNL     1      -1.341   2.202  -0.106  1.00  0.00     0.212 HD
ENDBRANCH   5  22
BRANCH   9  24
HETATM   24  O7  UNL     1       1.411  -2.922  -0.390  1.00  0.00    -0.386 OA
ATOM     25  H7  UNL     1       0.752  -3.604  -0.454  1.00  0.00     0.210 HD
ENDBRANCH   9  24
BRANCH   1  26
HETATM   26  C2  UNL     1       2.956  -0.931   0.407  1.00  0.00     0.243 C 
BRANCH  26  27
HETATM   27  C1  UNL     1       4.263  -0.314  -0.082  1.00  0.00     0.244 C 
BRANCH  27  28
HETATM   28  N2  UNL     1       4.923   0.639   0.535  1.00  0.00    -0.309 NA
BRANCH  28  29
HETATM   29  N1  UNL     1       5.602   1.619   1.169  1.00  0.00    -0.278 N 
ATOM     30  H12 UNL     1       5.102   0.881   0.673  1.00  0.00     0.191 HD
ATOM     31  H11 UNL     1       6.115   2.359   1.648  1.00  0.00     0.191 HD
ENDBRANCH  28  29
ENDBRANCH  27  28
BRANCH  27  32
HETATM   32  O1  UNL     1       4.612  -0.884  -1.203  1.00  0.00    -0.335 OA
ATOM     33  H1  UNL     1       4.135  -1.573  -1.649  1.00  0.00     0.220 HD
ENDBRANCH  27  32
ENDBRANCH  26  27
BRANCH  26  34
HETATM   34  O2  UNL     1       2.775  -0.582   1.703  1.00  0.00    -0.384 OA
ATOM     35  H2  UNL     1       1.961  -0.966   2.007  1.00  0.00     0.210 HD
ENDBRANCH  26  34
ENDBRANCH   1  26
TORSDOF 10
