REMARK  8 active torsions:
REMARK  status: ('A' for Active; 'I' for Inactive)
REMARK    1  A    between atoms: C2_2  and  O1_3 
REMARK    2  A    between atoms: O1_3  and  C3_4 
REMARK    3  A    between atoms: C3_4  and  C4_6 
REMARK    4  A    between atoms: C4_6  and  N1_7 
REMARK       I    between atoms: N2_13  and  C8_15 
REMARK       I    between atoms: C8_15  and  N3_17 
REMARK    5  A    between atoms: C13_22  and  C14_23 
REMARK    6  A    between atoms: C15_26  and  C16_27 
REMARK       I    between atoms: C16_27  and  N4_29 
REMARK    7  A    between atoms: N4_29  and  C17_31 
REMARK    8  A    between atoms: C17_31  and  C20_34 
ROOT
HETATM    1  N1  UNL     1       4.410  -0.758   1.310  1.00  0.00    -0.319 N 
HETATM    2  C5  UNL     1       4.509  -1.212  -0.055  1.00  0.00     0.215 C 
HETATM    3  C6  UNL     1       3.368  -2.163  -0.323  1.00  0.00     0.317 C 
HETATM    4  F1  UNL     1       3.468  -2.604  -1.629  1.00  0.00    -0.196 F 
HETATM    5  F2  UNL     1       3.381  -3.243   0.539  1.00  0.00    -0.196 F 
HETATM    6  C7  UNL     1       2.110  -1.371  -0.124  1.00  0.00     0.164 C 
HETATM    7  N2  UNL     1       1.244  -1.346  -1.048  1.00  0.00    -0.293 N 
ATOM      8  H2  UNL     1       1.428  -1.868  -1.905  1.00  0.00     0.172 HD
HETATM    9  C8  UNL     1       0.034  -0.625  -0.940  1.00  0.00     0.325 C 
HETATM   10  O3  UNL     1       0.086   0.570  -0.576  1.00  0.00    -0.247 OA
HETATM   11  N3  UNL     1      -1.223  -1.213  -1.229  1.00  0.00    -0.309 N 
HETATM   12  C9  UNL     1      -1.233  -2.584  -1.651  1.00  0.00     0.099 C 
HETATM   13  C10 UNL     1      -2.111  -2.717  -2.914  1.00  0.00     0.032 C 
HETATM   14  C11 UNL     1      -3.253  -2.659  -1.893  1.00  0.00     0.005 C 
HETATM   15  C12 UNL     1      -3.551  -1.287  -1.423  1.00  0.00     0.046 A 
HETATM   16  C13 UNL     1      -3.306  -0.090  -2.255  1.00  0.00     0.132 A 
HETATM   17  C15 UNL     1      -2.412  -0.400  -1.091  1.00  0.00     0.137 A 
HETATM   18  C21 UNL     1      -2.293  -3.442  -1.013  1.00  0.00    -0.023 C 
HETATM   19  C22 UNL     1      -2.474  -3.432   0.437  1.00  0.00     0.017 C 
HETATM   20  C23 UNL     1      -2.172  -4.865  -1.537  1.00  0.00     0.017 C 
HETATM   21  N5  UNL     1       1.961  -0.683   1.113  1.00  0.00    -0.293 N 
ATOM     22  H5  UNL     1       1.043  -0.419   1.471  1.00  0.00     0.172 HD
HETATM   23  C24 UNL     1       3.146  -0.384   1.820  1.00  0.00     0.324 C 
HETATM   24  O7  UNL     1       3.061   0.221   2.916  1.00  0.00    -0.247 OA
ENDROOT
BRANCH  17  25
HETATM   25  C16 UNL     1      -2.472   0.555   0.026  1.00  0.00     0.248 C 
HETATM   26  O6  UNL     1      -2.419   0.068   1.206  1.00  0.00    -0.271 OA
HETATM   27  N4  UNL     1      -2.581   1.945  -0.152  1.00  0.00    -0.350 N 
ATOM     28  H4  UNL     1      -2.609   2.305  -1.106  1.00  0.00     0.163 HD
BRANCH  27  29
HETATM   29  C17 UNL     1      -2.656   2.894   0.935  1.00  0.00     0.034 C 
HETATM   30  C18 UNL     1      -3.851   2.650   1.828  1.00  0.00     0.039 C 
HETATM   31  C19 UNL     1      -1.430   2.826   1.809  1.00  0.00     0.039 C 
BRANCH  29  32
HETATM   32  C20 UNL     1      -2.767   4.317   0.432  1.00  0.00     0.115 C 
HETATM   33 BR1  UNL     1      -2.865   5.585   1.866  1.00  0.00    -0.094 Br
ENDBRANCH  29  32
ENDBRANCH  27  29
ENDBRANCH  17  25
BRANCH  16  34
HETATM   34  C14 UNL     1      -4.369   0.919  -2.234  1.00  0.00     0.180 C 
HETATM   35  O4  UNL     1      -4.585   1.730  -3.195  1.00  0.00    -0.648 OA
HETATM   36  O5  UNL     1      -5.250   1.081  -1.149  1.00  0.00    -0.648 OA
ENDBRANCH  16  34
BRANCH   1  37
HETATM   37  C4  UNL     1       5.547  -0.662   2.193  1.00  0.00     0.238 C 
BRANCH  37  38
HETATM   38  C3  UNL     1       6.180   0.659   2.105  1.00  0.00     0.276 C 
HETATM   39  O2  UNL     1       7.186   0.961   2.784  1.00  0.00    -0.263 OA
BRANCH  38  40
HETATM   40  O1  UNL     1       5.638   1.600   1.238  1.00  0.00    -0.321 OA
BRANCH  40  41
HETATM   41  C2  UNL     1       6.245   2.881   1.147  1.00  0.00     0.174 C 
HETATM   42  C1  UNL     1       5.475   3.715   0.145  1.00  0.00     0.034 C 
ENDBRANCH  40  41
ENDBRANCH  38  40
ENDBRANCH  37  38
ENDBRANCH   1  37
TORSDOF 8
