REMARK  4 active torsions:
REMARK  status: ('A' for Active; 'I' for Inactive)
REMARK    1  A    between atoms: C2_2  and  C5_5 
REMARK    2  A    between atoms: C7_7  and  C8_8 
REMARK    3  A    between atoms: C8_8  and  N1_9 
REMARK    4  A    between atoms: C15_16  and  C16_17 
ROOT
HETATM    1  N1  UNL     1       0.360   0.960   0.218  1.00  0.00    -0.348 N 
HETATM    2  C9  UNL     1       0.720   1.413  -1.040  1.00  0.00     0.071 C 
HETATM    3  C10 UNL     1       2.102   2.051  -0.917  1.00  0.00     0.083 C 
HETATM    4  C11 UNL     1       3.055   0.969  -0.575  1.00  0.00     0.073 C 
HETATM    5  C12 UNL     1       2.620   0.046   0.501  1.00  0.00     0.083 C 
HETATM    6  C13 UNL     1       1.196   0.100   0.931  1.00  0.00     0.071 C 
HETATM    7  C14 UNL     1       4.432   1.588  -0.332  1.00  0.00     0.079 C 
HETATM    8  C15 UNL     1       4.899   0.573  -1.354  1.00  0.00     0.200 C 
HETATM    9  O2  UNL     1       3.594   0.266  -1.653  1.00  0.00    -0.366 OA
ENDROOT
BRANCH   1  10
HETATM   10  C8  UNL     1      -0.894   1.260   0.772  1.00  0.00     0.126 C 
BRANCH  10  11
HETATM   11  C7  UNL     1      -2.040   0.696   0.027  1.00  0.00     0.073 A 
HETATM   12  C6  UNL     1      -3.205   0.163   0.606  1.00  0.00     0.068 A 
HETATM   13  C5  UNL     1      -4.024  -0.258  -0.425  1.00  0.00     0.086 A 
HETATM   14  O3  UNL     1      -3.397   0.005  -1.545  1.00  0.00    -0.241 OA
HETATM   15  N3  UNL     1      -2.239   0.560  -1.285  1.00  0.00    -0.260 N 
ATOM     16  H3  UNL     1      -1.571   0.852  -1.999  1.00  0.00     0.195 HD
BRANCH  13  17
HETATM   17  C2  UNL     1      -5.328  -0.871  -0.200  1.00  0.00     0.000 C 
HETATM   18  C1  UNL     1      -6.278   0.200   0.339  1.00  0.00     0.021 C 
HETATM   19  C3  UNL     1      -5.910  -1.466  -1.443  1.00  0.00     0.021 C 
HETATM   20  C4  UNL     1      -5.222  -1.958   0.885  1.00  0.00     0.021 C 
ENDBRANCH  13  17
ENDBRANCH  10  11
ENDBRANCH   1  10
BRANCH   8  21
HETATM   21  C16 UNL     1       5.670  -0.511  -0.658  1.00  0.00     0.152 A 
HETATM   22  N2  UNL     1       6.449  -0.259   0.405  1.00  0.00    -0.346 N 
HETATM   23  C17 UNL     1       6.994  -1.422   0.786  1.00  0.00     0.114 A 
ATOM     24  H2  UNL     1       6.599   0.650   0.842  1.00  0.00     0.167 HD
HETATM   25  C18 UNL     1       6.518  -2.389  -0.082  1.00  0.00     0.161 A 
HETATM   26  O1  UNL     1       5.720  -1.795  -0.939  1.00  0.00    -0.306 OA
ENDBRANCH   8  21
TORSDOF 4
