REMARK  10 active torsions:
REMARK  status: ('A' for Active; 'I' for Inactive)
REMARK    1  A    between atoms: C1_2  and  C2_3 
REMARK    2  A    between atoms: C1_2  and  C12_13 
REMARK    3  A    between atoms: C2_3  and  C3_4 
REMARK    4  A    between atoms: C3_4  and  C4_5 
REMARK    5  A    between atoms: C4_5  and  C5_6 
REMARK    6  A    between atoms: C5_6  and  C6_7 
REMARK       I    between atoms: N2_16  and  C13_17 
REMARK    7  A    between atoms: C13_17  and  C14_19 
REMARK    8  A    between atoms: C14_19  and  C15_20 
REMARK    9  A    between atoms: C15_20  and  O3_21 
REMARK   10  A    between atoms: C17_25  and  O5_26 
ROOT
HETATM    1  C12 UNL     1      -2.181  -0.257  -0.596  1.00  0.00     0.133 A 
HETATM    2  N1  UNL     1      -3.488  -0.131  -0.904  1.00  0.00    -0.282 N 
ATOM      3  H1  UNL     1      -3.844   0.236  -1.787  1.00  0.00     0.188 HD
HETATM    4  N2  UNL     1      -4.248  -0.551   0.101  1.00  0.00    -0.184 N 
HETATM    5  C13 UNL     1      -5.671  -0.556   0.107  1.00  0.00     0.247 C 
HETATM    6  O2  UNL     1      -6.300  -0.973   1.104  1.00  0.00    -0.271 OA
HETATM    7  C16 UNL     1      -3.469  -0.972   1.114  1.00  0.00     0.305 A 
HETATM    8  O4  UNL     1      -3.825  -1.439   2.233  1.00  0.00    -0.263 OA
HETATM    9  C17 UNL     1      -2.152  -0.786   0.674  1.00  0.00     0.168 A 
ENDROOT
BRANCH   1  10
HETATM   10  C1  UNL     1      -1.052   0.100  -1.445  1.00  0.00     0.180 C 
HETATM   11  O1  UNL     1      -1.177   0.576  -2.592  1.00  0.00    -0.291 OA
BRANCH  10  12
HETATM   12  C2  UNL     1       0.350  -0.112  -0.920  1.00  0.00     0.085 C 
BRANCH  12  13
HETATM   13  C3  UNL     1       1.291   0.306  -1.981  1.00  0.00     0.008 C 
BRANCH  13  14
HETATM   14  C4  UNL     1       2.734   0.158  -1.738  1.00  0.00     0.001 C 
BRANCH  14  15
HETATM   15  C5  UNL     1       3.458   0.899  -0.700  1.00  0.00     0.004 C 
BRANCH  15  16
HETATM   16  C6  UNL     1       3.108   0.753   0.732  1.00  0.00    -0.014 C 
HETATM   17  C7  UNL     1       4.078   1.625   1.551  1.00  0.00     0.004 C 
HETATM   18  C8  UNL     1       5.476   1.139   1.347  1.00  0.00     0.000 C 
HETATM   19  C9  UNL     1       5.575  -0.336   1.546  1.00  0.00     0.000 C 
HETATM   20  C10 UNL     1       4.311  -0.917   2.130  1.00  0.00     0.000 C 
HETATM   21  C11 UNL     1       3.130  -0.657   1.207  1.00  0.00     0.004 C 
ENDBRANCH  15  16
ENDBRANCH  14  15
ENDBRANCH  13  14
ENDBRANCH  12  13
ENDBRANCH  10  12
ENDBRANCH   1  10
BRANCH   9  22
HETATM   22  O5  UNL     1      -0.997  -1.081   1.384  1.00  0.00    -0.354 OA
ATOM     23  H5  UNL     1      -0.977  -1.446   2.261  1.00  0.00     0.218 HD
ENDBRANCH   9  22
BRANCH   5  24
HETATM   24  C14 UNL     1      -6.424  -0.064  -1.076  1.00  0.00     0.131 C 
BRANCH  24  25
HETATM   25  C15 UNL     1      -7.915  -0.155  -0.867  1.00  0.00     0.173 C 
BRANCH  25  26
HETATM   26  O3  UNL     1      -8.550   0.322  -2.012  1.00  0.00    -0.400 OA
ATOM     27  H3  UNL     1      -9.489   0.265  -1.880  1.00  0.00     0.209 HD
ENDBRANCH  25  26
ENDBRANCH  24  25
ENDBRANCH   5  24
TORSDOF 10
