REMARK  9 active torsions:
REMARK  status: ('A' for Active; 'I' for Inactive)
REMARK    1  A    between atoms: O1_1  and  C1_3 
REMARK    2  A    between atoms: C4_6  and  N1_7 
REMARK    3  A    between atoms: N1_7  and  C5_9 
REMARK    4  A    between atoms: C11_15  and  N2_16 
REMARK    5  A    between atoms: N2_16  and  C12_18 
REMARK    6  A    between atoms: C15_23  and  N4_24 
REMARK    7  A    between atoms: N4_24  and  C16_26 
REMARK    8  A    between atoms: C16_26  and  C17_27 
REMARK    9  A    between atoms: C20_30  and  C21_31 
ROOT
HETATM    1  C12 UNL     1      -1.712   0.120   0.469  1.00  0.00     0.680 A 
HETATM    2  N3  UNL     1      -1.684  -1.104   0.988  1.00  0.00    -0.195 N 
ATOM      3  H3  UNL     1      -0.784  -1.465   1.304  1.00  0.00     0.184 HD
HETATM    4  C13 UNL     1      -2.776  -1.911   1.127  1.00  0.00     0.036 A 
HETATM    5  C14 UNL     1      -3.994  -1.449   0.708  1.00  0.00     0.009 A 
HETATM    6  C15 UNL     1      -4.061  -0.174   0.160  1.00  0.00     0.125 A 
HETATM    7  N5  UNL     1      -2.954   0.566   0.053  1.00  0.00    -0.176 N 
ATOM      8  H5  UNL     1      -3.027   1.499  -0.352  1.00  0.00     0.186 HD
HETATM    9  C24 UNL     1      -5.224  -2.229   0.809  1.00  0.00     0.044 C 
HETATM   10  C25 UNL     1      -5.089  -3.644   1.234  1.00  0.00     0.005 C 
HETATM   11  C26 UNL     1      -3.690  -4.196   1.155  1.00  0.00     0.006 C 
HETATM   12  C27 UNL     1      -2.667  -3.260   1.716  1.00  0.00     0.058 C 
ENDROOT
BRANCH   1  13
HETATM   13  N2  UNL     1      -0.755   0.930   0.306  1.00  0.00    -0.221 N 
ATOM     14  H2  UNL     1      -0.999   1.827  -0.114  1.00  0.00     0.178 HD
BRANCH  13  15
HETATM   15  C11 UNL     1       0.592   0.756   0.626  1.00  0.00     0.099 C 
HETATM   16  C10 UNL     1       0.970   0.444   2.028  1.00  0.00     0.026 C 
HETATM   17  C9  UNL     1       2.026  -0.587   2.178  1.00  0.00     0.011 C 
HETATM   18  C8  UNL     1       3.236  -0.349   1.297  1.00  0.00    -0.040 C 
HETATM   19  C7  UNL     1       4.106   0.633   1.986  1.00  0.00     0.011 C 
HETATM   20  C29 UNL     1       2.838   0.010  -0.106  1.00  0.00     0.011 C 
HETATM   21  C30 UNL     1       3.986  -1.674   1.264  1.00  0.00     0.011 C 
HETATM   22  C6  UNL     1       5.493   0.793   1.399  1.00  0.00     0.025 C 
HETATM   23  C5  UNL     1       6.163  -0.457   0.980  1.00  0.00     0.077 C 
HETATM   24  C31 UNL     1       5.215  -1.546   0.466  1.00  0.00     0.025 C 
HETATM   25  C28 UNL     1       1.334  -0.210  -0.294  1.00  0.00     0.026 C 
BRANCH  23  26
HETATM   26  N1  UNL     1       7.167  -0.279   0.024  1.00  0.00    -0.413 N 
ATOM     27  H1  UNL     1       7.005  -0.710  -0.886  1.00  0.00     0.154 HD
BRANCH  26  28
HETATM   28  C4  UNL     1       8.346   0.410   0.169  1.00  0.00     0.077 C 
HETATM   29  C3  UNL     1       8.394   1.869   0.366  1.00  0.00     0.027 C 
HETATM   30  C2  UNL     1       7.981   2.729  -0.801  1.00  0.00     0.034 C 
HETATM   31  C1  UNL     1       8.378   2.243  -2.140  1.00  0.00     0.118 C 
HETATM   32  C33 UNL     1       8.463   0.739  -2.243  1.00  0.00     0.034 C 
HETATM   33  C32 UNL     1       9.199   0.122  -1.102  1.00  0.00     0.027 C 
BRANCH  31  34
HETATM   34  O1  UNL     1       7.394   2.654  -3.064  1.00  0.00    -0.396 OA
ATOM     35  H1  UNL     1       7.649   2.342  -3.924  1.00  0.00     0.210 HD
ENDBRANCH  31  34
ENDBRANCH  26  28
ENDBRANCH  23  26
ENDBRANCH  13  15
ENDBRANCH   1  13
BRANCH   6  36
HETATM   36  N4  UNL     1      -5.212   0.251  -0.238  1.00  0.00    -0.375 N 
ATOM     37  H4  UNL     1      -6.053  -0.321  -0.156  1.00  0.00     0.161 HD
BRANCH  36  38
HETATM   38  C16 UNL     1      -5.248   1.599  -0.814  1.00  0.00     0.126 C 
BRANCH  38  39
HETATM   39  C17 UNL     1      -6.625   1.927  -1.354  1.00  0.00     0.003 C 
HETATM   40  C18 UNL     1      -7.025   0.933  -2.421  1.00  0.00     0.007 C 
HETATM   41  C19 UNL     1      -8.530   0.780  -2.362  1.00  0.00     0.014 C 
HETATM   42  C20 UNL     1      -8.931   0.130  -1.048  1.00  0.00     0.093 C 
HETATM   43  C22 UNL     1      -8.389   0.901   0.127  1.00  0.00     0.014 C 
HETATM   44  C23 UNL     1      -7.660   2.148  -0.304  1.00  0.00     0.007 C 
BRANCH  42  45
HETATM   45  C21 UNL     1     -10.457   0.038  -0.989  1.00  0.00     0.391 C 
HETATM   46  F1  UNL     1     -10.867  -0.734  -2.062  1.00  0.00    -0.171 F 
HETATM   47  F2  UNL     1     -10.880  -0.458   0.215  1.00  0.00    -0.171 F 
HETATM   48  F3  UNL     1     -10.945   1.341  -1.086  1.00  0.00    -0.171 F 
ENDBRANCH  42  45
ENDBRANCH  38  39
ENDBRANCH  36  38
ENDBRANCH   6  36
TORSDOF 9
