REMARK  7 active torsions:
REMARK  status: ('A' for Active; 'I' for Inactive)
REMARK    1  A    between atoms: C5_9  and  S1_10 
REMARK    2  A    between atoms: S1_10  and  N3_13 
REMARK    3  A    between atoms: N3_13  and  C6_15 
REMARK    4  A    between atoms: C6_15  and  C7_16 
REMARK    5  A    between atoms: C6_15  and  C9_20 
REMARK    6  A    between atoms: C7_16  and  S2_17 
REMARK       I    between atoms: C9_20  and  N4_22 
REMARK    7  A    between atoms: N4_22  and  C10_24 
ROOT
HETATM    1  C6  UNL     1       0.278  -0.337   0.613  1.00  0.00     0.197 C 
ENDROOT
BRANCH   1   2
HETATM    2  N3  UNL     1      -0.555  -1.431   0.976  1.00  0.00    -0.301 N 
ATOM      3  H3  UNL     1      -0.354  -2.369   0.631  1.00  0.00     0.173 HD
BRANCH   2   4
HETATM    4  S1  UNL     1      -1.876  -1.160   1.981  1.00  0.00     0.264 S 
HETATM    5  O1  UNL     1      -2.548  -2.490   2.343  1.00  0.00    -0.200 OA
HETATM    6  O2  UNL     1      -1.421  -0.620   3.335  1.00  0.00    -0.200 OA
BRANCH   4   7
HETATM    7  C5  UNL     1      -3.038  -0.087   1.315  1.00  0.00     0.142 A 
HETATM    8  C2  UNL     1      -3.218   1.259   1.499  1.00  0.00     0.048 A 
HETATM    9  C1  UNL     1      -2.419   2.131   2.395  1.00  0.00     0.071 C 
HETATM   10  N1  UNL     1      -4.275   1.659   0.727  1.00  0.00    -0.301 N 
HETATM   11  N2  UNL     1      -4.745   0.614   0.084  1.00  0.00    -0.284 N 
ATOM     12  H1  UNL     1      -4.638   2.610   0.662  1.00  0.00     0.187 HD
HETATM   13  C3  UNL     1      -5.878   0.664  -0.837  1.00  0.00     0.179 C 
HETATM   14  C4  UNL     1      -4.025  -0.474   0.409  1.00  0.00     0.145 A 
HETATM   15 CL1  UNL     1      -4.270  -2.100  -0.192  1.00  0.00    -0.061 Cl
ENDBRANCH   4   7
ENDBRANCH   2   4
ENDBRANCH   1   2
BRANCH   1  16
HETATM   16  C7  UNL     1       0.705  -0.302  -0.819  1.00  0.00     0.143 C 
BRANCH  16  17
HETATM   17  S2  UNL     1      -0.659  -0.180  -1.951  1.00  0.00     0.013 S 
HETATM   18  C8  UNL     1      -0.075  -0.166  -3.668  1.00  0.00     0.127 C 
HETATM   19  O3  UNL     1      -1.493   1.083  -1.696  1.00  0.00    -0.258 OA
ENDBRANCH  16  17
ENDBRANCH   1  16
BRANCH   1  20
HETATM   20  C9  UNL     1       1.595  -0.530   1.384  1.00  0.00     0.247 C 
HETATM   21  O4  UNL     1       1.650  -1.540   2.118  1.00  0.00    -0.271 OA
HETATM   22  N4  UNL     1       2.620   0.407   1.225  1.00  0.00    -0.310 N 
ATOM     23  H4  UNL     1       2.485   1.362   1.556  1.00  0.00     0.170 HD
BRANCH  22  24
HETATM   24  C10 UNL     1       3.730   0.079   0.667  1.00  0.00     0.125 A 
HETATM   25  N5  UNL     1       3.957  -1.163   0.217  1.00  0.00    -0.349 N 
HETATM   26  C11 UNL     1       5.129  -1.526  -0.375  1.00  0.00     0.113 A 
ATOM     27  H5  UNL     1       3.223  -1.864   0.322  1.00  0.00     0.166 HD
HETATM   28  C12 UNL     1       6.137  -0.603  -0.529  1.00  0.00     0.050 A 
HETATM   29 CL2  UNL     1       7.653  -1.040  -1.286  1.00  0.00    -0.083 Cl
HETATM   30  C13 UNL     1       5.952   0.693  -0.081  1.00  0.00     0.048 A 
HETATM   31  C14 UNL     1       4.756   1.020   0.510  1.00  0.00     0.056 A 
HETATM   32 BR1  UNL     1       4.447   2.789   1.148  1.00  0.00    -0.047 Br
ENDBRANCH  22  24
ENDBRANCH   1  20
TORSDOF 7
