REMARK  9 active torsions:
REMARK  status: ('A' for Active; 'I' for Inactive)
REMARK    1  A    between atoms: N1_8  and  C8_9 
REMARK    2  A    between atoms: C8_9  and  C9_10 
REMARK    3  A    between atoms: C9_10  and  C10_11 
REMARK    4  A    between atoms: C10_11  and  C11_12 
REMARK       I    between atoms: C11_12  and  N2_14 
REMARK    5  A    between atoms: N2_14  and  C12_16 
REMARK    6  A    between atoms: C12_16  and  C13_17 
REMARK    7  A    between atoms: C12_16  and  C20_24 
REMARK    8  A    between atoms: C13_17  and  C14_18 
REMARK       I    between atoms: C20_24  and  N3_26 
REMARK    9  A    between atoms: N3_26  and  C21_28 
ROOT
HETATM    1  C21 UNL     1      -4.560   3.438   0.149  1.00  0.00     0.115 C 
HETATM    2  C22 UNL     1      -3.548   4.555  -0.097  1.00  0.00     0.055 C 
HETATM    3  C23 UNL     1      -4.862   3.422   1.627  1.00  0.00     0.055 C 
HETATM    4  C24 UNL     1      -5.829   3.763  -0.545  1.00  0.00     0.090 C 
HETATM    5  N4  UNL     1      -6.817   4.010  -1.094  1.00  0.00    -0.195 NA
ENDROOT
BRANCH   1   6
HETATM    6  N3  UNL     1      -4.031   2.194  -0.340  1.00  0.00    -0.338 N 
HETATM    7  C20 UNL     1      -2.834   1.675   0.176  1.00  0.00     0.241 C 
HETATM    8  O2  UNL     1      -2.260   2.387   1.084  1.00  0.00    -0.271 OA
ATOM      9  H3  UNL     1      -4.530   1.684  -1.069  1.00  0.00     0.164 HD
BRANCH   7  10
HETATM   10  C12 UNL     1      -2.156   0.421  -0.199  1.00  0.00     0.177 C 
BRANCH  10  11
HETATM   11  N2  UNL     1      -0.803   0.508   0.444  1.00  0.00    -0.348 N 
HETATM   12  C11 UNL     1       0.356   0.652  -0.362  1.00  0.00     0.218 C 
HETATM   13  O1  UNL     1       0.215   0.711  -1.602  1.00  0.00    -0.274 OA
ATOM     14  H2  UNL     1      -0.716   0.464   1.459  1.00  0.00     0.163 HD
BRANCH  12  15
HETATM   15  C10 UNL     1       1.705   0.731   0.229  1.00  0.00     0.104 C 
BRANCH  15  16
HETATM   16  C9  UNL     1       2.709   0.972  -0.859  1.00  0.00     0.029 C 
BRANCH  16  17
HETATM   17  C8  UNL     1       4.124   1.043  -0.324  1.00  0.00     0.118 C 
BRANCH  17  18
HETATM   18  N1  UNL     1       4.500  -0.174   0.314  1.00  0.00    -0.405 N 
HETATM   19  C2  UNL     1       4.660  -1.284  -0.564  1.00  0.00     0.075 C 
HETATM   20  C1  UNL     1       4.316  -2.587   0.116  1.00  0.00     0.032 C 
HETATM   21  C3  UNL     1       6.071  -1.397  -1.109  1.00  0.00     0.024 C 
HETATM   22  C4  UNL     1       6.951  -1.647   0.099  1.00  0.00     0.004 C 
HETATM   23  C5  UNL     1       6.862  -0.427   0.970  1.00  0.00     0.024 C 
HETATM   24  C6  UNL     1       5.456  -0.063   1.358  1.00  0.00     0.075 C 
HETATM   25  C7  UNL     1       5.515   1.307   1.995  1.00  0.00     0.032 C 
ENDBRANCH  17  18
ENDBRANCH  16  17
ENDBRANCH  15  16
ENDBRANCH  12  15
ENDBRANCH  10  11
BRANCH  10  26
HETATM   26  C13 UNL     1      -2.858  -0.751   0.413  1.00  0.00     0.039 C 
BRANCH  26  27
HETATM   27  C14 UNL     1      -4.215  -1.054  -0.093  1.00  0.00    -0.012 C 
HETATM   28  C15 UNL     1      -4.823  -2.269   0.616  1.00  0.00     0.005 C 
HETATM   29  C16 UNL     1      -5.105  -3.386  -0.351  1.00  0.00     0.000 C 
HETATM   30  C17 UNL     1      -3.821  -3.737  -1.115  1.00  0.00     0.000 C 
HETATM   31  C18 UNL     1      -3.413  -2.554  -1.943  1.00  0.00     0.000 C 
HETATM   32  C19 UNL     1      -4.212  -1.315  -1.605  1.00  0.00     0.005 C 
ENDBRANCH  26  27
ENDBRANCH  10  26
ENDBRANCH   7  10
ENDBRANCH   1   6
TORSDOF 9
