REMARK  5 active torsions:
REMARK  status: ('A' for Active; 'I' for Inactive)
REMARK    1  A    between atoms: C3_3  and  N1_4 
REMARK    2  A    between atoms: N2_7  and  C6_8 
REMARK    3  A    between atoms: N3_11  and  C9_12 
REMARK    4  A    between atoms: C9_12  and  C10_13 
REMARK    5  A    between atoms: C10_13  and  C11_14 
ROOT
HETATM    1  N1  UNL     1      -3.473   0.241   0.418  1.00  0.00    -0.376 N 
HETATM    2  C4  UNL     1      -2.567  -0.020   1.522  1.00  0.00     0.153 C 
HETATM    3  C5  UNL     1      -1.343  -0.727   0.985  1.00  0.00     0.292 C 
HETATM    4  N2  UNL     1      -0.653   0.089   0.002  1.00  0.00     0.096 N 
HETATM    5  C16 UNL     1      -1.492   0.536  -1.052  1.00  0.00     0.292 C 
HETATM    6  C17 UNL     1      -2.879   0.944  -0.706  1.00  0.00     0.153 C 
ENDROOT
BRANCH   4   7
HETATM    7  C6  UNL     1       0.425  -0.747  -0.531  1.00  0.00     0.226 C 
HETATM    8  C7  UNL     1       1.130  -0.070  -1.680  1.00  0.00     0.066 C 
HETATM    9  C8  UNL     1       2.035   0.984  -1.138  1.00  0.00     0.274 C 
HETATM   10  N3  UNL     1       3.194   0.317  -0.569  1.00  0.00     0.088 N 
HETATM   11  C14 UNL     1       2.872  -0.935   0.039  1.00  0.00     0.274 C 
HETATM   12  C15 UNL     1       1.453  -1.051   0.521  1.00  0.00     0.066 C 
BRANCH  10  13
HETATM   13  C9  UNL     1       3.863   1.262   0.269  1.00  0.00     0.278 C 
BRANCH  13  14
HETATM   14  C10 UNL     1       5.089   0.755   0.952  1.00  0.00     0.088 C 
BRANCH  14  15
HETATM   15  C11 UNL     1       6.127   0.300  -0.004  1.00  0.00     0.027 A 
HETATM   16  C12 UNL     1       7.350  -0.208   0.408  1.00  0.00     0.114 A 
HETATM   17  N4  UNL     1       8.068  -0.531  -0.678  1.00  0.00    -0.360 N 
HETATM   18  C13 UNL     1       7.333  -0.241  -1.761  1.00  0.00     0.180 A 
ATOM     19  H4  UNL     1       9.008  -0.927  -0.680  1.00  0.00     0.166 HD
HETATM   20  N5  UNL     1       6.150   0.266  -1.336  1.00  0.00    -0.355 N 
ATOM     21  H5  UNL     1       5.392   0.575  -1.944  1.00  0.00     0.166 HD
ENDBRANCH  14  15
ENDBRANCH  13  14
ENDBRANCH  10  13
ENDBRANCH   4   7
BRANCH   1  22
HETATM   22  C3  UNL     1      -4.835  -0.191   0.440  1.00  0.00     0.058 A 
HETATM   23  C2  UNL     1      -5.152  -1.334   1.092  1.00  0.00     0.032 A 
HETATM   24  C1  UNL     1      -6.422  -1.896   1.177  1.00  0.00     0.004 A 
HETATM   25  C21 UNL     1      -7.416  -1.193   0.525  1.00  0.00     0.021 A 
HETATM   26  C20 UNL     1      -7.119  -0.005  -0.160  1.00  0.00     0.035 A 
HETATM   27  C18 UNL     1      -5.855   0.521  -0.223  1.00  0.00     0.076 A 
HETATM   28  S1  UNL     1      -8.016   1.144  -1.061  1.00  0.00    -0.083 SA
HETATM   29  N6  UNL     1      -5.706   1.637  -0.886  1.00  0.00    -0.357 N 
HETATM   30  C19 UNL     1      -6.745   2.211  -1.459  1.00  0.00     0.139 A 
ATOM     31  H6  UNL     1      -4.783   2.065  -0.960  1.00  0.00     0.166 HD
ENDBRANCH   1  22
TORSDOF 5
