REMARK  4 active torsions:
REMARK  status: ('A' for Active; 'I' for Inactive)
REMARK    1  A    between atoms: O1_1  and  C1_3 
REMARK    2  A    between atoms: C1_3  and  C2_4 
REMARK    3  A    between atoms: C2_4  and  N1_5 
REMARK    4  A    between atoms: N1_5  and  C3_8 
ROOT
HETATM    1  C3  UNL     1       0.586  -0.268   0.094  1.00  0.00     0.194 C 
HETATM    2  C4  UNL     1       0.000  -1.425  -0.667  1.00  0.00     0.038 C 
HETATM    3  C5  UNL     1      -1.313  -1.934  -0.338  1.00  0.00    -0.012 C 
HETATM    4  C6  UNL     1      -2.002  -1.496   0.912  1.00  0.00     0.009 C 
HETATM    5  C7  UNL     1      -2.919  -0.624   0.137  1.00  0.00    -0.013 C 
HETATM    6  C8  UNL     1      -2.487  -1.351  -1.104  1.00  0.00     0.009 C 
HETATM    7  C9  UNL     1      -2.641   0.848   0.163  1.00  0.00     0.014 C 
HETATM    8  C10 UNL     1      -1.316   1.185   0.726  1.00  0.00     0.018 A 
HETATM    9  C11 UNL     1      -0.821   2.531   0.758  1.00  0.00    -0.025 A 
HETATM   10  C12 UNL     1       0.121   2.277  -0.092  1.00  0.00    -0.023 A 
HETATM   11  C13 UNL     1      -0.252   0.925  -0.247  1.00  0.00     0.046 A 
ENDROOT
BRANCH   1  12
HETATM   12  N1  UNL     1       1.929  -0.061  -0.373  1.00  0.00    -0.068 N 
ATOM     13  H12 UNL     1       1.922   0.457  -1.252  1.00  0.00     0.277 HD
ATOM     14  H11 UNL     1       2.332  -0.942  -0.691  1.00  0.00     0.277 HD
BRANCH  12  15
HETATM   15  C2  UNL     1       2.799   0.571   0.567  1.00  0.00     0.258 C 
BRANCH  15  16
HETATM   16  C1  UNL     1       4.218   0.696   0.018  1.00  0.00     0.191 C 
BRANCH  16  17
HETATM   17  O1  UNL     1       4.648  -0.617  -0.234  1.00  0.00    -0.399 OA
ATOM     18  H1  UNL     1       5.531  -0.539  -0.576  1.00  0.00     0.209 HD
ENDBRANCH  16  17
ENDBRANCH  15  16
ENDBRANCH  12  15
ENDBRANCH   1  12
TORSDOF 4
