REMARK  6 active torsions:
REMARK  status: ('A' for Active; 'I' for Inactive)
REMARK    1  A    between atoms: N1_1  and  S1_4 
REMARK    2  A    between atoms: S1_4  and  C1_6 
REMARK    3  A    between atoms: S1_4  and  N2_14 
REMARK    4  A    between atoms: C1_6  and  C2_7 
REMARK    5  A    between atoms: C2_7  and  C3_8 
REMARK    6  A    between atoms: N2_14  and  O2_16 
ROOT
HETATM    1  S1  UNL     1       3.236  -0.338  -0.039  1.00  0.00     0.122 S 
HETATM    2  O1  UNL     1       4.098  -0.965  -1.107  1.00  0.00    -0.227 OA
ENDROOT
BRANCH   1   3
HETATM    3  N1  UNL     1       3.355  -1.273   1.396  1.00  0.00    -0.344 N 
ATOM      4  H12 UNL     1       3.922  -2.115   1.495  1.00  0.00     0.167 HD
ATOM      5  H11 UNL     1       2.772  -0.849   2.118  1.00  0.00     0.167 HD
ENDBRANCH   1   3
BRANCH   1   6
HETATM    6  C1  UNL     1       1.586  -0.241  -0.647  1.00  0.00     0.141 C 
BRANCH   6   7
HETATM    7  C2  UNL     1       0.671   0.394   0.379  1.00  0.00     0.020 C 
BRANCH   7   8
HETATM    8  C3  UNL     1      -0.747   0.476  -0.149  1.00  0.00    -0.014 C 
HETATM    9  C4  UNL     1      -1.579   1.120   0.937  1.00  0.00     0.005 C 
HETATM   10  C5  UNL     1      -2.988   1.157   0.443  1.00  0.00     0.000 C 
HETATM   11  C6  UNL     1      -3.549  -0.195   0.122  1.00  0.00     0.000 C 
HETATM   12  C7  UNL     1      -2.652  -1.099  -0.631  1.00  0.00     0.000 C 
HETATM   13  C8  UNL     1      -1.201  -0.894  -0.486  1.00  0.00     0.005 C 
ENDBRANCH   7   8
ENDBRANCH   6   7
ENDBRANCH   1   6
BRANCH   1  14
HETATM   14  N2  UNL     1       3.793   1.102   0.241  1.00  0.00    -0.211 N 
ATOM     15  H2  UNL     1       3.214   1.826   0.665  1.00  0.00     0.205 HD
BRANCH  14  16
HETATM   16  O2  UNL     1       5.108   1.341  -0.116  1.00  0.00    -0.281 OA
ATOM     17  H2  UNL     1       5.445   2.213   0.054  1.00  0.00     0.245 HD
ENDBRANCH  14  16
ENDBRANCH   1  14
TORSDOF 6
