REMARK  5 active torsions:
REMARK  status: ('A' for Active; 'I' for Inactive)
REMARK    1  A    between atoms: N1_1  and  C1_5 
REMARK    2  A    between atoms: C1_5  and  C2_6 
REMARK    3  A    between atoms: N2_9  and  C5_10 
REMARK    4  A    between atoms: C5_10  and  C6_11 
REMARK    5  A    between atoms: C12_17  and  N3_18 
ROOT
HETATM    1  C2  UNL     1      -2.885   0.410  -0.681  1.00  0.00     0.073 C 
HETATM    2  C3  UNL     1      -2.140   1.734  -0.756  1.00  0.00     0.040 C 
HETATM    3  C4  UNL     1      -0.746   1.239  -1.161  1.00  0.00     0.276 C 
HETATM    4  N2  UNL     1      -0.590  -0.038  -0.520  1.00  0.00     0.123 N 
HETATM    5  C12 UNL     1      -1.856  -0.478  -0.025  1.00  0.00     0.423 C 
ENDROOT
BRANCH   4   6
HETATM    6  C5  UNL     1       0.376  -0.113   0.510  1.00  0.00     0.309 C 
BRANCH   6   7
HETATM    7  C6  UNL     1       1.795  -0.021   0.124  1.00  0.00    -0.056 C 
HETATM    8  C7  UNL     1       2.142   0.094  -1.138  1.00  0.00    -0.022 C 
HETATM    9  C8  UNL     1       3.625   0.184  -1.437  1.00  0.00     0.027 C 
HETATM   10  C9  UNL     1       4.275  -0.892  -0.589  1.00  0.00     0.004 C 
HETATM   11  C10 UNL     1       4.162  -0.414   0.840  1.00  0.00     0.005 C 
HETATM   12  C11 UNL     1       2.780  -0.065   1.246  1.00  0.00     0.035 C 
ENDBRANCH   6   7
ENDBRANCH   4   6
BRANCH   5  13
HETATM   13  N3  UNL     1      -2.050  -1.875  -0.369  1.00  0.00    -0.047 N 
ATOM     14  H33 UNL     1      -2.998  -2.182  -0.152  1.00  0.00     0.276 HD
ATOM     15  H32 UNL     1      -2.066  -2.009  -1.380  1.00  0.00     0.276 HD
ATOM     16  H31 UNL     1      -1.355  -2.475   0.074  1.00  0.00     0.276 HD
ENDBRANCH   5  13
BRANCH   1  17
HETATM   17  C1  UNL     1      -4.086   0.531   0.242  1.00  0.00     0.238 C 
BRANCH  17  18
HETATM   18  N1  UNL     1      -4.748  -0.751   0.272  1.00  0.00    -0.079 N 
ATOM     19  H13 UNL     1      -4.995  -1.091  -0.657  1.00  0.00     0.274 HD
ATOM     20  H12 UNL     1      -4.123  -1.514   0.533  1.00  0.00     0.274 HD
ATOM     21  H11 UNL     1      -5.554  -0.670   0.892  1.00  0.00     0.274 HD
ENDBRANCH  17  18
ENDBRANCH   1  17
TORSDOF 5
