REMARK  0 active torsions:
REMARK  status: ('A' for Active; 'I' for Inactive)
ROOT
HETATM    1  O1  UNL     1      -2.445  -3.764  -0.422  1.00  0.00    -0.262 OA
HETATM    2  C1  UNL     1      -1.998  -2.649  -0.745  1.00  0.00     0.296 A 
HETATM    3  O2  UNL     1      -2.028  -1.760  -1.919  1.00  0.00    -0.296 OA
HETATM    4  C2  UNL     1      -1.345  -1.409  -0.731  1.00  0.00     0.166 A 
HETATM    5  C3  UNL     1       0.168  -1.366  -0.738  1.00  0.00     0.060 C 
HETATM    6  C4  UNL     1       0.532   0.089  -0.617  1.00  0.00    -0.032 C 
HETATM    7  C5  UNL     1       1.248   0.488  -1.892  1.00  0.00     0.010 C 
HETATM    8  C6  UNL     1       2.611   0.973  -1.498  1.00  0.00     0.006 C 
HETATM    9  C7  UNL     1       2.521   1.352  -0.044  1.00  0.00    -0.010 C 
HETATM   10  C8  UNL     1       3.781   1.090   0.717  1.00  0.00     0.005 C 
HETATM   11  C9  UNL     1       3.815  -0.382   0.960  1.00  0.00     0.001 C 
HETATM   12  C10 UNL     1       2.429  -0.903   0.610  1.00  0.00     0.006 C 
HETATM   13  C11 UNL     1       1.546   0.303   0.482  1.00  0.00    -0.002 C 
HETATM   14  C12 UNL     1      -0.742   0.847  -0.402  1.00  0.00     0.023 C 
HETATM   15  C13 UNL     1      -1.823  -0.158  -0.086  1.00  0.00     0.006 C 
HETATM   16  C14 UNL     1      -1.960  -0.267   1.413  1.00  0.00     0.039 C 
HETATM   17  C15 UNL     1      -2.724   0.958   1.881  1.00  0.00     0.168 C 
HETATM   18  O3  UNL     1      -4.072   0.716   1.583  1.00  0.00    -0.391 OA
HETATM   19  C16 UNL     1      -4.235   0.042   0.397  1.00  0.00     0.168 C 
HETATM   20  C17 UNL     1      -3.165   0.314  -0.619  1.00  0.00     0.039 C 
ENDROOT
TORSDOF 0
