REMARK  12 active torsions:
REMARK  status: ('A' for Active; 'I' for Inactive)
REMARK    1  A    between atoms: C3_3  and  C5_5 
REMARK    2  A    between atoms: C6_6  and  C7_7 
REMARK    3  A    between atoms: C8_9  and  O2_10 
REMARK    4  A    between atoms: C9_12  and  C10_13 
REMARK    5  A    between atoms: C10_13  and  C11_14 
REMARK    6  A    between atoms: C10_13  and  C15_18 
REMARK    7  A    between atoms: C11_14  and  C12_15 
REMARK    8  A    between atoms: C15_18  and  C16_19 
REMARK    9  A    between atoms: C17_20  and  O3_21 
REMARK   10  A    between atoms: C20_25  and  O4_26 
REMARK   11  A    between atoms: C21_28  and  O5_30 
REMARK   12  A    between atoms: C23_32  and  O6_33 
ROOT
HETATM    1  C10 UNL     1      -1.271  -1.559  -0.157  1.00  0.00    -0.043 C 
ENDROOT
BRANCH   1   2
HETATM    2  C9  UNL     1       0.105  -1.254  -0.516  1.00  0.00     0.064 A 
HETATM    3  C8  UNL     1       0.693  -1.365  -1.787  1.00  0.00     0.197 A 
HETATM    4  O1  UNL     1       1.891  -0.954  -1.771  1.00  0.00    -0.284 OA
HETATM    5  C7  UNL     1       2.259  -0.528  -0.553  1.00  0.00     0.112 A 
HETATM    6  C23 UNL     1       1.158  -0.702   0.262  1.00  0.00     0.115 A 
BRANCH   3   7
HETATM    7  O2  UNL     1       0.023  -1.864  -2.896  1.00  0.00    -0.340 OA
ATOM      8  H2  UNL     1      -0.876  -2.172  -2.908  1.00  0.00     0.220 HD
ENDBRANCH   3   7
BRANCH   5   9
HETATM    9  C6  UNL     1       3.588  -0.032  -0.366  1.00  0.00     0.041 C 
HETATM   10  C5  UNL     1       4.102   0.475   0.711  1.00  0.00     0.009 C 
BRANCH  10  11
HETATM   11  C3  UNL     1       5.497   0.952   0.771  1.00  0.00    -0.066 C 
HETATM   12  C2  UNL     1       5.955   1.464   1.889  1.00  0.00    -0.024 C 
HETATM   13  C1  UNL     1       7.340   1.974   2.070  1.00  0.00     0.036 C 
HETATM   14  C4  UNL     1       6.346   0.838  -0.432  1.00  0.00     0.048 C 
ENDBRANCH  10  11
ENDBRANCH   5   9
BRANCH   6  15
HETATM   15  O6  UNL     1       1.088  -0.398   1.570  1.00  0.00    -0.357 OA
ATOM     16  H6  UNL     1       0.331  -0.518   2.131  1.00  0.00     0.217 HD
ENDBRANCH   6  15
ENDBRANCH   1   2
BRANCH   1  17
HETATM   17  C11 UNL     1      -1.475  -1.938   1.267  1.00  0.00     0.043 C 
BRANCH  17  18
HETATM   18  C12 UNL     1      -0.905  -3.209   1.752  1.00  0.00    -0.019 C 
HETATM   19  C13 UNL     1      -1.175  -3.418   3.253  1.00  0.00     0.010 C 
HETATM   20  C14 UNL     1       0.389  -3.748   1.336  1.00  0.00     0.010 C 
ENDBRANCH  17  18
ENDBRANCH   1  17
BRANCH   1  21
HETATM   21  C15 UNL     1      -2.370  -0.810  -0.777  1.00  0.00    -0.008 C 
BRANCH  21  22
HETATM   22  C16 UNL     1      -2.614   0.612  -0.691  1.00  0.00     0.074 C 
HETATM   23  C17 UNL     1      -1.563   1.495  -1.274  1.00  0.00     0.129 C 
HETATM   24  C18 UNL     1      -1.884   2.976  -1.059  1.00  0.00     0.035 C 
HETATM   25  C19 UNL     1      -3.254   3.356  -1.504  1.00  0.00     0.037 C 
HETATM   26  C20 UNL     1      -4.260   2.406  -0.907  1.00  0.00     0.152 C 
HETATM   27  C21 UNL     1      -3.918   1.020  -1.402  1.00  0.00     0.089 C 
HETATM   28  C22 UNL     1      -5.061   0.116  -1.051  1.00  0.00     0.049 C 
BRANCH  23  29
HETATM   29  O3  UNL     1      -1.454   1.344  -2.680  1.00  0.00    -0.395 OA
ATOM     30  H3  UNL     1      -0.785   1.906  -3.051  1.00  0.00     0.210 HD
ENDBRANCH  23  29
BRANCH  26  31
HETATM   31  O4  UNL     1      -4.161   2.468   0.483  1.00  0.00    -0.393 OA
ATOM     32  H4  UNL     1      -4.795   1.869   0.859  1.00  0.00     0.210 HD
ENDBRANCH  26  31
BRANCH  27  33
HETATM   33  O5  UNL     1      -3.779   1.059  -2.764  1.00  0.00    -0.387 OA
ATOM     34  H5  UNL     1      -4.583   1.311  -3.203  1.00  0.00     0.210 HD
ENDBRANCH  27  33
ENDBRANCH  21  22
ENDBRANCH   1  21
TORSDOF 12
