REMARK  8 active torsions:
REMARK  status: ('A' for Active; 'I' for Inactive)
REMARK    1  A    between atoms: O1_1  and  N1_3 
REMARK    2  A    between atoms: N1_3  and  C1_4 
REMARK    3  A    between atoms: N1_3  and  C9_12 
REMARK    4  A    between atoms: C1_4  and  C2_5 
REMARK    5  A    between atoms: C11_14  and  N2_15 
REMARK    6  A    between atoms: N2_15  and  C12_17 
REMARK    7  A    between atoms: C12_17  and  C13_18 
REMARK    8  A    between atoms: C13_18  and  C14_19 
ROOT
HETATM    1  C9  UNL     1       0.845  -1.767   0.518  1.00  0.00     0.060 A 
HETATM    2  C10 UNL     1      -0.539  -1.703   0.442  1.00  0.00     0.063 A 
HETATM    3  C11 UNL     1      -1.278  -2.316  -0.537  1.00  0.00     0.059 A 
HETATM    4  C19 UNL     1      -0.558  -3.037  -1.496  1.00  0.00     0.086 A 
HETATM    5  N4  UNL     1      -0.932  -3.746  -2.568  1.00  0.00    -0.298 N 
ATOM      6  H4  UNL     1      -1.896  -3.877  -2.873  1.00  0.00     0.187 HD
HETATM    7  N5  UNL     1       0.134  -4.254  -3.177  1.00  0.00    -0.310 N 
ATOM      8  H5  UNL     1       0.105  -4.831  -4.018  1.00  0.00     0.186 HD
HETATM    9  C20 UNL     1       1.259  -3.899  -2.526  1.00  0.00     0.121 A 
HETATM   10  C21 UNL     1       0.813  -3.130  -1.466  1.00  0.00     0.013 A 
HETATM   11  C22 UNL     1       1.508  -2.504  -0.472  1.00  0.00     0.047 A 
ENDROOT
BRANCH   1  12
HETATM   12  N1  UNL     1       1.628  -1.161   1.516  1.00  0.00    -0.258 N 
BRANCH  12  13
HETATM   13  O1  UNL     1       1.855  -1.716   2.733  1.00  0.00    -0.287 OA
ATOM     14  H1  UNL     1       1.443  -2.558   2.886  1.00  0.00     0.244 HD
ENDBRANCH  12  13
BRANCH  12  15
HETATM   15  C1  UNL     1       2.262   0.136   1.280  1.00  0.00     0.183 C 
BRANCH  15  16
HETATM   16  C2  UNL     1       3.725   0.035   1.380  1.00  0.00    -0.002 C 
HETATM   17  C3  UNL     1       4.540   0.321   0.404  1.00  0.00    -0.082 C 
HETATM   18  C4  UNL     1       4.181   0.787  -0.943  1.00  0.00     0.034 C 
HETATM   19  C8  UNL     1       6.031   0.170   0.649  1.00  0.00     0.034 C 
HETATM   20  C5  UNL     1       4.708   2.206  -1.157  1.00  0.00     0.004 C 
HETATM   21  C6  UNL     1       5.912   2.453  -0.263  1.00  0.00     0.001 C 
HETATM   22  C7  UNL     1       6.763   1.201  -0.145  1.00  0.00     0.004 C 
ENDBRANCH  15  16
ENDBRANCH  12  15
ENDBRANCH   1  12
BRANCH   3  23
HETATM   23  N2  UNL     1      -2.687  -2.303  -0.626  1.00  0.00    -0.388 N 
ATOM     24  H2  UNL     1      -3.122  -2.904  -1.326  1.00  0.00     0.159 HD
BRANCH  23  25
HETATM   25  C12 UNL     1      -3.565  -1.494   0.209  1.00  0.00     0.120 C 
BRANCH  25  26
HETATM   26  C13 UNL     1      -3.396  -0.071  -0.209  1.00  0.00     0.024 C 
BRANCH  26  27
HETATM   27  C14 UNL     1      -4.255   0.910   0.558  1.00  0.00    -0.010 C 
HETATM   28  C15 UNL     1      -5.722   0.569   0.367  1.00  0.00     0.024 C 
HETATM   29  C16 UNL     1      -6.594   1.586   1.017  1.00  0.00     0.114 C 
HETATM   30  N3  UNL     1      -5.982   2.838   1.309  1.00  0.00    -0.421 N 
HETATM   31  C17 UNL     1      -5.017   3.297   0.370  1.00  0.00     0.114 C 
ATOM     32  H3  UNL     1      -6.222   3.374   2.143  1.00  0.00     0.153 HD
HETATM   33  C18 UNL     1      -4.065   2.264  -0.124  1.00  0.00     0.024 C 
ENDBRANCH  26  27
ENDBRANCH  25  26
ENDBRANCH  23  25
ENDBRANCH   3  23
TORSDOF 8
