REMARK  9 active torsions:
REMARK  status: ('A' for Active; 'I' for Inactive)
REMARK    1  A    between atoms: C2_2  and  C3_3 
REMARK    2  A    between atoms: C3_3  and  C4_4 
REMARK    3  A    between atoms: C4_4  and  S1_5 
REMARK    4  A    between atoms: S1_5  and  C5_6 
REMARK    5  A    between atoms: C8_9  and  C9_10 
REMARK    6  A    between atoms: C12_13  and  C13_14 
REMARK    7  A    between atoms: C14_15  and  C15_16 
REMARK    8  A    between atoms: C17_20  and  N2_21 
REMARK    9  A    between atoms: C18_26  and  N4_27 
ROOT
HETATM    1  C9  UNL     1      -0.418  -0.531  -0.062  1.00  0.00     0.014 A 
HETATM    2  C10 UNL     1      -1.204  -1.134  -1.003  1.00  0.00     0.018 A 
HETATM    3  C11 UNL     1      -2.503  -0.807  -1.024  1.00  0.00     0.020 A 
HETATM    4  C12 UNL     1      -2.947   0.103  -0.105  1.00  0.00     0.005 A 
HETATM    5  S2  UNL     1      -1.512   0.472   0.766  1.00  0.00    -0.093 SA
ENDROOT
BRANCH   4   6
HETATM    6  C13 UNL     1      -4.313   0.645   0.104  1.00  0.00     0.020 C 
HETATM    7  C14 UNL     1      -5.262   0.211  -0.683  1.00  0.00     0.018 C 
BRANCH   7   8
HETATM    8  C15 UNL     1      -6.626   0.691  -0.544  1.00  0.00     0.024 A 
HETATM    9  C16 UNL     1      -6.968   1.623   0.415  1.00  0.00     0.121 A 
HETATM   10  N1  UNL     1      -8.257   2.048   0.517  1.00  0.00    -0.201 N 
HETATM   11  C17 UNL     1      -9.188   1.556  -0.319  1.00  0.00     0.677 A 
ATOM     12  H1  UNL     1      -8.515   2.736   1.224  1.00  0.00     0.183 HD
HETATM   13  N3  UNL     1      -8.902   0.654  -1.260  1.00  0.00    -0.177 N 
HETATM   14  C18 UNL     1      -7.613   0.220  -1.372  1.00  0.00     0.126 A 
ATOM     15  H3  UNL     1      -9.629   0.298  -1.880  1.00  0.00     0.186 HD
BRANCH  11  16
HETATM   16  N2  UNL     1     -10.423   1.973  -0.210  1.00  0.00    -0.234 N 
ATOM     17  H22 UNL     1     -10.642   2.662   0.509  1.00  0.00     0.174 HD
ATOM     18  H21 UNL     1     -11.129   1.600  -0.844  1.00  0.00     0.174 HD
ENDBRANCH  11  16
BRANCH  14  19
HETATM   19  N4  UNL     1      -7.418  -0.642  -2.295  1.00  0.00    -0.384 N 
ATOM     20  H42 UNL     1      -6.455  -0.966  -2.379  1.00  0.00     0.157 HD
ATOM     21  H41 UNL     1      -8.152  -0.992  -2.911  1.00  0.00     0.157 HD
ENDBRANCH  14  19
ENDBRANCH   7   8
ENDBRANCH   4   6
BRANCH   1  22
HETATM   22  C8  UNL     1       1.037  -0.692   0.200  1.00  0.00     0.225 C 
HETATM   23  C7  UNL     1       1.896   0.052  -0.790  1.00  0.00     0.039 C 
HETATM   24  C6  UNL     1       3.270   0.188  -0.116  1.00  0.00     0.019 C 
HETATM   25  C5  UNL     1       3.595  -1.108   0.631  1.00  0.00     0.073 C 
HETATM   26  C19 UNL     1       2.825  -2.275   0.107  1.00  0.00     0.248 C 
HETATM   27  N5  UNL     1       1.392  -2.080   0.165  1.00  0.00    -0.065 N 
ATOM     28  H52 UNL     1       0.982  -2.586   0.950  1.00  0.00     0.278 HD
ATOM     29  H51 UNL     1       0.922  -2.562  -0.601  1.00  0.00     0.278 HD
BRANCH  25  30
HETATM   30  S1  UNL     1       5.369  -1.396   0.424  1.00  0.00    -0.163 SA
BRANCH  30  31
HETATM   31  C4  UNL     1       6.249  -0.060   1.311  1.00  0.00     0.074 C 
BRANCH  31  32
HETATM   32  C3  UNL     1       7.751  -0.296   1.134  1.00  0.00     0.010 C 
BRANCH  32  33
HETATM   33  C2  UNL     1       7.979  -0.242  -0.381  1.00  0.00    -0.004 C 
HETATM   34  C1  UNL     1       7.548   1.128  -0.881  1.00  0.00     0.005 C 
ENDBRANCH  32  33
ENDBRANCH  31  32
ENDBRANCH  30  31
ENDBRANCH  25  30
ENDBRANCH   1  22
TORSDOF 9
