REMARK  9 active torsions:
REMARK  status: ('A' for Active; 'I' for Inactive)
REMARK    1  A    between atoms: C2_2  and  N1_3 
REMARK    2  A    between atoms: N1_3  and  C3_4 
REMARK    3  A    between atoms: N1_3  and  C5_6 
REMARK    4  A    between atoms: C5_6  and  C6_7 
REMARK    5  A    between atoms: C7_9  and  C8_10 
REMARK    6  A    between atoms: C11_16  and  N3_17 
REMARK    7  A    between atoms: C12_22  and  N5_23 
REMARK    8  A    between atoms: C15_28  and  C16_29 
REMARK    9  A    between atoms: C16_29  and  C17_30 
ROOT
HETATM    1  C8  UNL     1       3.111   0.792  -0.556  1.00  0.00     0.004 A 
HETATM    2  C9  UNL     1       3.626   1.997  -1.004  1.00  0.00     0.065 A 
HETATM    3  S2  UNL     1       5.276   1.714  -1.169  1.00  0.00    -0.082 SA
HETATM    4  C10 UNL     1       5.322   0.083  -0.675  1.00  0.00     0.105 A 
HETATM    5  N2  UNL     1       6.339  -0.822  -0.536  1.00  0.00    -0.185 N 
ATOM      6  H2  UNL     1       7.291  -0.541  -0.770  1.00  0.00     0.185 HD
HETATM    7  C11 UNL     1       6.114  -2.063  -0.101  1.00  0.00     0.678 A 
HETATM    8  N4  UNL     1       4.868  -2.396   0.196  1.00  0.00    -0.176 N 
ATOM      9  H4  UNL     1       4.680  -3.341   0.532  1.00  0.00     0.186 HD
HETATM   10  C12 UNL     1       3.839  -1.537   0.072  1.00  0.00     0.128 A 
HETATM   11  C13 UNL     1       4.016  -0.214  -0.384  1.00  0.00     0.054 A 
ENDROOT
BRANCH   1  12
HETATM   12  C7  UNL     1       1.625   0.775  -0.293  1.00  0.00     0.017 A 
HETATM   13  S1  UNL     1       0.504  -0.479  -0.151  1.00  0.00    -0.092 SA
HETATM   14  C6  UNL     1      -0.915   0.394   0.238  1.00  0.00     0.007 A 
HETATM   15  C15 UNL     1      -0.461   1.678   0.243  1.00  0.00    -0.042 A 
HETATM   16  C14 UNL     1       0.846   1.873  -0.030  1.00  0.00     0.028 A 
BRANCH  14  17
HETATM   17  C5  UNL     1      -2.269  -0.195   0.573  1.00  0.00     0.168 C 
BRANCH  17  18
HETATM   18  N1  UNL     1      -2.258  -1.616   0.399  1.00  0.00    -0.389 N 
BRANCH  18  19
HETATM   19  C2  UNL     1      -2.097  -2.086  -0.911  1.00  0.00     0.118 C 
HETATM   20  C1  UNL     1      -1.334  -3.421  -0.974  1.00  0.00     0.026 C 
ENDBRANCH  18  19
BRANCH  18  21
HETATM   21  C3  UNL     1      -3.112  -2.285   1.290  1.00  0.00     0.054 C 
HETATM   22  C4  UNL     1      -4.579  -2.191   0.950  1.00  0.00     0.054 C 
ENDBRANCH  18  21
ENDBRANCH  17  18
ENDBRANCH  14  17
BRANCH  15  23
HETATM   23  C16 UNL     1      -1.369   2.883   0.482  1.00  0.00     0.043 C 
BRANCH  23  24
HETATM   24  C17 UNL     1      -1.878   3.454  -0.790  1.00  0.00    -0.019 C 
HETATM   25  C18 UNL     1      -2.696   2.586  -1.675  1.00  0.00     0.010 C 
HETATM   26  C19 UNL     1      -2.614   4.791  -0.527  1.00  0.00     0.010 C 
ENDBRANCH  23  24
ENDBRANCH  15  23
ENDBRANCH   1  12
BRANCH  10  27
HETATM   27  N5  UNL     1       2.707  -1.999   0.420  1.00  0.00    -0.384 N 
ATOM     28  H52 UNL     1       2.579  -2.956   0.750  1.00  0.00     0.157 HD
ATOM     29  H51 UNL     1       1.927  -1.348   0.326  1.00  0.00     0.157 HD
ENDBRANCH  10  27
BRANCH   7  30
HETATM   30  N3  UNL     1       7.072  -2.915   0.030  1.00  0.00    -0.234 N 
ATOM     31  H32 UNL     1       8.032  -2.658  -0.199  1.00  0.00     0.174 HD
ATOM     32  H31 UNL     1       6.900  -3.864   0.363  1.00  0.00     0.174 HD
ENDBRANCH   7  30
TORSDOF 9
