REMARK  6 active torsions:
REMARK  status: ('A' for Active; 'I' for Inactive)
REMARK    1  A    between atoms: C2_2  and  C4_4 
REMARK    2  A    between atoms: C11_11  and  C12_12 
REMARK    3  A    between atoms: C12_12  and  N1_13 
REMARK    4  A    between atoms: C12_12  and  C13_17 
REMARK    5  A    between atoms: C13_17  and  O1_18 
REMARK    6  A    between atoms: C17_24  and  O3_25 
ROOT
HETATM    1  C4  UNL     1      -2.694  -0.206  -0.283  1.00  0.00     0.018 C 
HETATM    2  C5  UNL     1      -2.125   0.019  -1.665  1.00  0.00     0.008 C 
HETATM    3  C6  UNL     1      -0.984  -0.968  -1.777  1.00  0.00     0.006 C 
HETATM    4  C7  UNL     1       0.082  -0.552  -0.802  1.00  0.00     0.002 C 
HETATM    5  C8  UNL     1       1.176  -1.621  -0.939  1.00  0.00     0.011 C 
HETATM    6  C9  UNL     1       0.986  -2.769  -0.011  1.00  0.00     0.015 C 
HETATM    7  C10 UNL     1       2.455  -0.972  -0.680  1.00  0.00     0.012 C 
HETATM    8  C11 UNL     1       2.747   0.075   0.043  1.00  0.00     0.076 C 
HETATM    9  O2  UNL     1       1.816   0.811   0.748  1.00  0.00    -0.348 OA
HETATM   10  C14 UNL     1       0.605   0.513   1.346  1.00  0.00     0.131 C 
HETATM   11  C15 UNL     1       0.917  -0.069   2.734  1.00  0.00     0.040 C 
HETATM   12  C16 UNL     1      -0.342  -0.360   0.593  1.00  0.00     0.049 C 
HETATM   13  C17 UNL     1      -1.725   0.179   0.800  1.00  0.00     0.129 C 
ENDROOT
BRANCH   8  14
HETATM   14  C12 UNL     1       4.166   0.535   0.137  1.00  0.00     0.262 C 
BRANCH  14  15
HETATM   15  N1  UNL     1       5.044  -0.293  -0.626  1.00  0.00    -0.067 N 
ATOM     16  H13 UNL     1       4.953  -1.274  -0.361  1.00  0.00     0.275 HD
ATOM     17  H12 UNL     1       4.739  -0.361  -1.597  1.00  0.00     0.275 HD
ATOM     18  H11 UNL     1       6.012   0.021  -0.562  1.00  0.00     0.275 HD
ENDBRANCH  14  15
BRANCH  14  19
HETATM   19  C13 UNL     1       4.240   1.944  -0.388  1.00  0.00     0.203 C 
BRANCH  19  20
HETATM   20  O1  UNL     1       5.552   2.425  -0.278  1.00  0.00    -0.398 OA
ATOM     21  H1  UNL     1       5.599   3.314  -0.609  1.00  0.00     0.209 HD
ENDBRANCH  19  20
ENDBRANCH  14  19
ENDBRANCH   8  14
BRANCH  13  22
HETATM   22  O3  UNL     1      -1.764   1.574   0.891  1.00  0.00    -0.395 OA
ATOM     23  H3  UNL     1      -1.152   1.817   1.575  1.00  0.00     0.210 HD
ENDBRANCH  13  22
BRANCH   1  24
HETATM   24  C2  UNL     1      -4.044   0.373  -0.064  1.00  0.00    -0.016 C 
HETATM   25  C1  UNL     1      -5.063  -0.231  -1.042  1.00  0.00     0.010 C 
HETATM   26  C3  UNL     1      -4.142   1.854  -0.230  1.00  0.00     0.010 C 
ENDBRANCH   1  24
TORSDOF 6
