REMARK  7 active torsions:
REMARK  status: ('A' for Active; 'I' for Inactive)
REMARK    1  A    between atoms: C3_3  and  C5_5 
REMARK    2  A    between atoms: C5_5  and  N1_6 
REMARK    3  A    between atoms: N1_6  and  C7_8 
REMARK    4  A    between atoms: C8_11  and  N3_12 
REMARK    5  A    between atoms: N3_12  and  C9_14 
REMARK    6  A    between atoms: C9_14  and  C10_15 
REMARK    7  A    between atoms: C10_15  and  O1_16 
ROOT
HETATM    1  C1  UNL     1      -0.797   5.032   1.405  1.00  0.00     0.012 C 
HETATM    2  C2  UNL     1      -0.750   4.268   0.469  1.00  0.00    -0.111 C 
HETATM    3  C3  UNL     1      -0.696   3.376  -0.676  1.00  0.00     0.078 C 
HETATM    4  C4  UNL     1      -1.537   3.968  -1.821  1.00  0.00     0.025 C 
ENDROOT
BRANCH   3   5
HETATM    5  C5  UNL     1      -1.213   2.013  -0.455  1.00  0.00     0.140 C 
BRANCH   5   6
HETATM    6  N1  UNL     1      -0.561   1.210   0.552  1.00  0.00    -0.369 N 
HETATM    7  C6  UNL     1      -0.739   1.576   1.944  1.00  0.00     0.151 C 
BRANCH   6   8
HETATM    8  C7  UNL     1       0.320   0.159   0.278  1.00  0.00     0.134 A 
HETATM    9  N2  UNL     1       1.665   0.448   0.233  1.00  0.00    -0.176 N 
HETATM   10  C8  UNL     1       2.609  -0.452  -0.094  1.00  0.00     0.681 A 
ATOM     11  H2  UNL     1       1.962   1.397   0.460  1.00  0.00     0.186 HD
HETATM   12  N4  UNL     1       2.279  -1.707  -0.400  1.00  0.00    -0.169 N 
HETATM   13  C11 UNL     1       0.977  -2.054  -0.372  1.00  0.00     0.179 A 
ATOM     14  H4  UNL     1       2.995  -2.389  -0.650  1.00  0.00     0.186 HD
HETATM   15  O2  UNL     1       0.415  -3.202  -0.624  1.00  0.00    -0.275 OA
HETATM   16  C18 UNL     1      -0.010  -1.107  -0.028  1.00  0.00     0.075 A 
HETATM   17  C12 UNL     1      -0.881  -3.131  -0.478  1.00  0.00     0.162 A 
HETATM   18  N5  UNL     1      -2.017  -3.867  -0.559  1.00  0.00    -0.339 N 
HETATM   19  C17 UNL     1      -1.188  -1.817  -0.098  1.00  0.00     0.041 A 
HETATM   20  C13 UNL     1      -3.028  -3.059  -0.239  1.00  0.00     0.014 A 
ATOM     21  H5  UNL     1      -2.085  -4.852  -0.816  1.00  0.00     0.168 HD
HETATM   22  C14 UNL     1      -4.470  -3.424  -0.186  1.00  0.00     0.068 C 
HETATM   23  C15 UNL     1      -2.541  -1.771   0.055  1.00  0.00    -0.024 A 
HETATM   24  C16 UNL     1      -3.390  -0.673   0.467  1.00  0.00     0.051 C 
BRANCH  10  25
HETATM   25  N3  UNL     1       3.841  -0.102  -0.107  1.00  0.00    -0.224 N 
ATOM     26  H3  UNL     1       4.035   0.869   0.139  1.00  0.00     0.177 HD
BRANCH  25  27
HETATM   27  C9  UNL     1       4.964  -0.901  -0.422  1.00  0.00     0.164 C 
BRANCH  27  28
HETATM   28  C10 UNL     1       6.161  -0.352   0.382  1.00  0.00     0.184 C 
BRANCH  28  29
HETATM   29  O1  UNL     1       7.257  -1.122   0.084  1.00  0.00    -0.399 OA
ATOM     30  H1  UNL     1       7.994  -0.784   0.579  1.00  0.00     0.209 HD
ENDBRANCH  28  29
ENDBRANCH  27  28
ENDBRANCH  25  27
ENDBRANCH  10  25
ENDBRANCH   6   8
ENDBRANCH   5   6
ENDBRANCH   3   5
TORSDOF 7
