REMARK  7 active torsions:
REMARK  status: ('A' for Active; 'I' for Inactive)
REMARK    1  A    between atoms: C2_2  and  C3_3 
REMARK    2  A    between atoms: C3_3  and  C4_4 
REMARK    3  A    between atoms: C4_4  and  N1_5 
REMARK    4  A    between atoms: C4_4  and  C15_23 
REMARK       I    between atoms: N1_5  and  C5_7 
REMARK    5  A    between atoms: C5_7  and  C6_9 
REMARK    6  A    between atoms: C6_9  and  N2_10 
REMARK    7  A    between atoms: N2_10  and  C7_11 
REMARK       I    between atoms: N2_10  and  C9_13 
REMARK       I    between atoms: C15_23  and  N5_25 
ROOT
HETATM    1  N2  UNL     1      -3.195  -1.380   0.331  1.00  0.00    -0.322 N 
HETATM    2  C9  UNL     1      -3.436  -2.006  -0.944  1.00  0.00     0.325 C 
HETATM    3  O2  UNL     1      -2.933  -1.482  -1.967  1.00  0.00    -0.256 OA
HETATM    4  C10 UNL     1      -4.232  -3.186  -0.975  1.00  0.00     0.162 C 
HETATM    5  N3  UNL     1      -4.879  -4.169  -1.004  1.00  0.00    -0.186 NA
ENDROOT
BRANCH   1   6
HETATM    6  C6  UNL     1      -2.367  -0.163   0.384  1.00  0.00     0.120 C 
HETATM    7  C11 UNL     1      -2.249   0.217   1.839  1.00  0.00     0.060 C 
HETATM    8  C12 UNL     1      -1.654   1.579   2.016  1.00  0.00     0.116 C 
HETATM    9  N4  UNL     1      -2.397   2.581   1.326  1.00  0.00    -0.421 N 
HETATM   10  C13 UNL     1      -3.421   2.111   0.450  1.00  0.00     0.116 C 
ATOM     11  H4  UNL     1      -2.208   3.575   1.451  1.00  0.00     0.153 HD
HETATM   12  C14 UNL     1      -3.021   0.932  -0.374  1.00  0.00     0.060 C 
BRANCH   6  13
HETATM   13  C5  UNL     1      -1.009  -0.486  -0.178  1.00  0.00     0.247 C 
HETATM   14  N1  UNL     1      -0.118   0.494  -0.639  1.00  0.00    -0.345 N 
ATOM     15  H1  UNL     1      -0.389   1.477  -0.602  1.00  0.00     0.163 HD
HETATM   16  O1  UNL     1      -0.657  -1.704  -0.238  1.00  0.00    -0.271 OA
BRANCH  14  17
HETATM   17  C4  UNL     1       1.189   0.131  -1.170  1.00  0.00     0.180 C 
BRANCH  17  18
HETATM   18  C3  UNL     1       1.307   0.564  -2.614  1.00  0.00     0.061 C 
BRANCH  18  19
HETATM   19  C2  UNL     1       2.614   0.215  -3.214  1.00  0.00    -0.034 C 
HETATM   20  C1  UNL     1       3.451   1.123  -3.675  1.00  0.00     0.007 C 
ENDBRANCH  18  19
ENDBRANCH  17  18
BRANCH  17  21
HETATM   21  C15 UNL     1       2.196   0.770  -0.297  1.00  0.00     0.243 C 
HETATM   22  O3  UNL     1       1.860   1.915   0.175  1.00  0.00    -0.271 OA
HETATM   23  N5  UNL     1       3.445   0.280   0.068  1.00  0.00    -0.346 N 
HETATM   24  C16 UNL     1       4.328   1.037   0.920  1.00  0.00     0.152 C 
HETATM   25  C19 UNL     1       3.916  -1.011  -0.361  1.00  0.00     0.152 C 
HETATM   26  C17 UNL     1       5.723   0.509   0.930  1.00  0.00     0.187 C 
HETATM   27  O4  UNL     1       5.826  -0.845   1.020  1.00  0.00    -0.388 OA
HETATM   28  C18 UNL     1       4.685  -1.576   0.851  1.00  0.00     0.187 C 
ENDBRANCH  17  21
ENDBRANCH  14  17
ENDBRANCH   6  13
ENDBRANCH   1   6
BRANCH   1  29
HETATM   29  C7  UNL     1      -3.767  -1.972   1.493  1.00  0.00     0.124 C 
HETATM   30  C8  UNL     1      -5.167  -1.461   1.778  1.00  0.00     0.026 C 
ENDBRANCH   1  29
TORSDOF 7
