REMARK  8 active torsions:
REMARK  status: ('A' for Active; 'I' for Inactive)
REMARK    1  A    between atoms: C2_5  and  C3_6 
REMARK    2  A    between atoms: C2_5  and  N5_21 
REMARK    3  A    between atoms: C3_6  and  S1_7 
REMARK    4  A    between atoms: S1_7  and  C4_9 
REMARK    5  A    between atoms: C4_9  and  C5_10 
REMARK       I    between atoms: C5_10  and  N3_12 
REMARK    6  A    between atoms: C8_15  and  C9_16 
REMARK    7  A    between atoms: N5_21  and  C12_23 
REMARK    8  A    between atoms: C12_23  and  C13_24 
ROOT
HETATM    1  N1  UNL     1       1.062   2.802  -2.533  1.00  0.00    -0.172 NA
HETATM    2  C1  UNL     1       1.522   2.353  -1.574  1.00  0.00     0.183 C 
HETATM    3  N2  UNL     1       2.066   1.819  -0.394  1.00  0.00    -0.282 N 
ATOM      4  H2  UNL     1       2.302   2.441   0.379  1.00  0.00     0.179 HD
HETATM    5  C2  UNL     1       2.273   0.536  -0.277  1.00  0.00     0.097 C 
ENDROOT
BRANCH   5   6
HETATM    6  C3  UNL     1       1.945  -0.405  -1.374  1.00  0.00     0.185 C 
BRANCH   6   7
HETATM    7  S1  UNL     1       0.685  -1.553  -0.804  1.00  0.00     0.030 S 
HETATM    8  O1  UNL     1       0.342  -2.610  -2.085  1.00  0.00    -0.257 OA
BRANCH   7   9
HETATM    9  C4  UNL     1      -0.741  -0.570  -0.421  1.00  0.00     0.212 C 
BRANCH   9  10
HETATM   10  C5  UNL     1      -1.863  -1.412   0.065  1.00  0.00     0.231 C 
HETATM   11  O2  UNL     1      -1.718  -2.660   0.163  1.00  0.00    -0.272 OA
HETATM   12  N3  UNL     1      -3.092  -0.791   0.413  1.00  0.00    -0.351 N 
HETATM   13  C6  UNL     1      -3.251   0.654   0.301  1.00  0.00     0.126 C 
HETATM   14  C11 UNL     1      -4.248  -1.510   0.888  1.00  0.00     0.126 C 
HETATM   15  C7  UNL     1      -4.295   0.874  -0.770  1.00  0.00     0.033 C 
HETATM   16  C8  UNL     1      -5.592   0.312  -0.252  1.00  0.00     0.078 C 
HETATM   17  C10 UNL     1      -5.522  -1.097   0.225  1.00  0.00     0.033 C 
BRANCH  16  18
HETATM   18  C9  UNL     1      -6.186   1.251   0.700  1.00  0.00     0.235 C 
HETATM   19  N4  UNL     1      -7.411   1.020   1.391  1.00  0.00    -0.062 NA
HETATM   20  O3  UNL     1      -5.606   2.335   0.946  1.00  0.00    -0.277 OA
ENDBRANCH  16  18
ENDBRANCH   9  10
ENDBRANCH   7   9
ENDBRANCH   6   7
ENDBRANCH   5   6
BRANCH   5  21
HETATM   21  N5  UNL     1       2.826   0.071   0.950  1.00  0.00    -0.376 N 
ATOM     22  H5  UNL     1       2.516   0.430   1.853  1.00  0.00     0.160 HD
BRANCH  21  23
HETATM   23  C12 UNL     1       3.863  -0.950   0.837  1.00  0.00     0.153 C 
BRANCH  23  24
HETATM   24  C13 UNL     1       5.052  -0.265   0.200  1.00  0.00     0.139 C 
HETATM   25  C14 UNL     1       5.553   0.781   1.172  1.00  0.00     0.035 C 
HETATM   26  C15 UNL     1       7.033   0.803   0.853  1.00  0.00     0.029 C 
HETATM   27  C16 UNL     1       7.267  -0.452   0.054  1.00  0.00     0.168 C 
HETATM   28  O4  UNL     1       6.085  -1.189   0.063  1.00  0.00    -0.384 OA
ENDBRANCH  23  24
ENDBRANCH  21  23
ENDBRANCH   5  21
TORSDOF 8
