REMARK  3 active torsions:
REMARK  status: ('A' for Active; 'I' for Inactive)
REMARK    1  A    between atoms: N1_1  and  C1_5 
REMARK    2  A    between atoms: C3_10  and  N3_11 
REMARK    3  A    between atoms: N3_11  and  C4_13 
ROOT
HETATM    1  C1  UNL     1      -1.320   0.314  -0.368  1.00  0.00     0.212 C 
HETATM    2  C2  UNL     1      -0.927  -1.114  -0.162  1.00  0.00     0.267 C 
HETATM    3  N2  UNL     1      -0.050  -1.108   0.969  1.00  0.00    -0.052 N 
ATOM      4  H21 UNL     1       0.496  -1.963   1.079  1.00  0.00     0.279 HD
ATOM      5  H22 UNL     1      -0.528  -1.164   1.868  1.00  0.00     0.279 HD
HETATM    6  C3  UNL     1       0.741   0.075   0.798  1.00  0.00     0.288 C 
HETATM    7  C5  UNL     1      -0.216   1.112   0.280  1.00  0.00     0.089 C 
ENDROOT
BRANCH   1   8
HETATM    8  N1  UNL     1      -2.605   0.528   0.278  1.00  0.00    -0.073 N 
ATOM      9  H13 UNL     1      -3.319  -0.127  -0.040  1.00  0.00     0.274 HD
ATOM     10  H12 UNL     1      -2.601   0.259   1.262  1.00  0.00     0.274 HD
ATOM     11  H11 UNL     1      -2.873   1.502   0.137  1.00  0.00     0.274 HD
ENDBRANCH   1   8
BRANCH   6  12
HETATM   12  N3  UNL     1       1.819  -0.209  -0.116  1.00  0.00    -0.341 N 
ATOM     13  H3  UNL     1       1.581  -0.574  -1.038  1.00  0.00     0.163 HD
BRANCH  12  14
HETATM   14  C4  UNL     1       3.183  -0.013   0.188  1.00  0.00     0.350 C 
HETATM   15  O1  UNL     1       3.517   0.432   1.304  1.00  0.00    -0.284 OA
ENDBRANCH  12  14
ENDBRANCH   6  12
TORSDOF 3
