REMARK  6 active torsions:
REMARK  status: ('A' for Active; 'I' for Inactive)
REMARK    1  A    between atoms: C2_2  and  C3_3 
REMARK    2  A    between atoms: C3_3  and  C4_4 
REMARK    3  A    between atoms: C4_4  and  C6_6 
REMARK    4  A    between atoms: C6_6  and  N2_13 
REMARK    5  A    between atoms: N1_7  and  C7_9 
REMARK    6  A    between atoms: N2_13  and  C11_15 
ROOT
HETATM    1  C6  UNL     1      -1.406  -0.087   0.231  1.00  0.00     0.077 C 
HETATM    2  N1  UNL     1      -2.059  -1.097   0.039  1.00  0.00    -0.371 N 
ATOM      3  H1  UNL     1      -2.903  -0.754  -0.419  1.00  0.00     0.161 HD
ENDROOT
BRANCH   1   4
HETATM    4  C4  UNL     1      -2.090   1.211  -0.268  1.00  0.00     0.049 C 
HETATM    5  C5  UNL     1      -1.700   1.563  -1.636  1.00  0.00     0.018 C 
BRANCH   4   6
HETATM    6  C3  UNL     1      -1.958   2.262   0.750  1.00  0.00     0.011 C 
BRANCH   6   7
HETATM    7  C2  UNL     1      -2.745   3.497   0.577  1.00  0.00    -0.004 C 
HETATM    8  C1  UNL     1      -2.444   4.332  -0.629  1.00  0.00     0.005 C 
ENDBRANCH   6   7
ENDBRANCH   4   6
ENDBRANCH   1   4
BRANCH   1   9
HETATM    9  N2  UNL     1      -0.162   0.164   0.836  1.00  0.00    -0.370 N 
ATOM     10  H2  UNL     1      -0.238   0.517   1.790  1.00  0.00     0.161 HD
BRANCH   9  11
HETATM   11  C11 UNL     1       1.170   0.027   0.391  1.00  0.00     0.032 C 
HETATM   12  C12 UNL     1       2.062   0.617   1.505  1.00  0.00     0.035 C 
HETATM   13  C13 UNL     1       3.519   0.447   1.241  1.00  0.00    -0.012 C 
HETATM   14  C14 UNL     1       3.869   1.206  -0.023  1.00  0.00     0.009 C 
HETATM   15  C18 UNL     1       3.794  -1.038   1.111  1.00  0.00     0.009 C 
HETATM   16  C15 UNL     1       3.029   0.621  -1.118  1.00  0.00    -0.012 C 
HETATM   17  C16 UNL     1       3.446  -0.821  -1.309  1.00  0.00     0.009 C 
HETATM   18  C20 UNL     1       1.540   0.739  -0.874  1.00  0.00     0.035 C 
HETATM   19  C17 UNL     1       3.044  -1.568  -0.081  1.00  0.00    -0.012 C 
HETATM   20  C19 UNL     1       1.563  -1.432   0.168  1.00  0.00     0.035 C 
ENDBRANCH   9  11
ENDBRANCH   1   9
BRANCH   2  21
HETATM   21  C7  UNL     1      -2.258  -2.441   0.112  1.00  0.00     0.020 C 
HETATM   22  C8  UNL     1      -3.743  -2.858   0.082  1.00  0.00     0.037 C 
HETATM   23  C9  UNL     1      -1.677  -3.152  -1.120  1.00  0.00     0.037 C 
HETATM   24  C10 UNL     1      -1.691  -3.153   1.324  1.00  0.00     0.037 C 
ENDBRANCH   2  21
TORSDOF 6
