REMARK  8 active torsions:
REMARK  status: ('A' for Active; 'I' for Inactive)
REMARK    1  A    between atoms: C2_2  and  C3_4 
REMARK       I    between atoms: N1_7  and  C6_8 
REMARK    2  A    between atoms: C10_14  and  N2_15 
REMARK       I    between atoms: N2_15  and  C11_17 
REMARK    3  A    between atoms: C11_17  and  C12_19 
REMARK    4  A    between atoms: C12_19  and  S2_20 
REMARK    5  A    between atoms: S2_20  and  C13_21 
REMARK    6  A    between atoms: C13_21  and  C14_22 
REMARK    7  A    between atoms: C14_22  and  N3_23 
REMARK    8  A    between atoms: C21_30  and  C22_31 
ROOT
HETATM    1  C3  UNL     1      -5.005   1.219   0.097  1.00  0.00     0.035 C 
HETATM    2  C4  UNL     1      -5.198   2.490   0.810  1.00  0.00     0.028 C 
HETATM    3  C5  UNL     1      -5.640   0.205   1.103  1.00  0.00     0.145 C 
HETATM    4  N1  UNL     1      -5.960  -0.997   0.452  1.00  0.00    -0.346 N 
HETATM    5  C6  UNL     1      -7.133  -1.748   0.713  1.00  0.00     0.216 C 
HETATM    6  C7  UNL     1      -7.466  -3.017   0.009  1.00  0.00     0.117 C 
HETATM    7  O1  UNL     1      -7.929  -1.290   1.602  1.00  0.00    -0.274 OA
HETATM    8  C8  UNL     1      -5.031  -1.486  -0.508  1.00  0.00     0.172 C 
HETATM    9  C9  UNL     1      -3.770  -0.702  -0.506  1.00  0.00     0.011 A 
HETATM   10  S1  UNL     1      -2.230  -1.209  -0.858  1.00  0.00    -0.074 SA
HETATM   11  C10 UNL     1      -1.377   0.255  -0.696  1.00  0.00     0.093 A 
HETATM   12  C21 UNL     1      -2.373   1.182  -0.346  1.00  0.00     0.071 A 
HETATM   13  C23 UNL     1      -3.651   0.678  -0.240  1.00  0.00    -0.010 A 
ENDROOT
BRANCH  11  14
HETATM   14  N2  UNL     1       0.033   0.416  -0.914  1.00  0.00    -0.320 N 
HETATM   15  C11 UNL     1       0.763  -0.744  -1.327  1.00  0.00     0.231 C 
HETATM   16  O2  UNL     1       0.150  -1.821  -1.464  1.00  0.00    -0.272 OA
ATOM     17  H2  UNL     1       0.494   1.316  -0.781  1.00  0.00     0.169 HD
BRANCH  15  18
HETATM   18  C12 UNL     1       2.199  -0.730  -1.606  1.00  0.00     0.177 C 
BRANCH  18  19
HETATM   19  S2  UNL     1       2.895   0.876  -1.197  1.00  0.00    -0.155 SA
BRANCH  19  20
HETATM   20  C13 UNL     1       3.009   1.067   0.576  1.00  0.00     0.119 C 
BRANCH  20  21
HETATM   21  C14 UNL     1       4.032   0.159   1.164  1.00  0.00     0.073 C 
BRANCH  21  22
HETATM   22  N3  UNL     1       5.370   0.270   0.795  1.00  0.00    -0.373 N 
HETATM   23  C15 UNL     1       5.864  -0.105  -0.460  1.00  0.00     0.063 C 
HETATM   24  C16 UNL     1       6.082  -1.611  -0.586  1.00  0.00     0.044 C 
HETATM   25  C17 UNL     1       7.326  -2.048   0.123  1.00  0.00     0.005 C 
HETATM   26  C18 UNL     1       8.228  -0.939   0.564  1.00  0.00     0.002 C 
HETATM   27  C19 UNL     1       7.642   0.022   1.537  1.00  0.00     0.020 C 
HETATM   28  C20 UNL     1       6.211  -0.192   1.894  1.00  0.00     0.127 C 
ENDBRANCH  21  22
ENDBRANCH  20  21
ENDBRANCH  19  20
ENDBRANCH  18  19
ENDBRANCH  15  18
ENDBRANCH  11  14
BRANCH  12  29
HETATM   29  C22 UNL     1      -1.928   2.569  -0.192  1.00  0.00     0.268 C 
HETATM   30  N4  UNL     1      -2.611   3.749   0.099  1.00  0.00    -0.057 NA
HETATM   31  O3  UNL     1      -0.674   2.841  -0.346  1.00  0.00    -0.271 OA
ENDBRANCH  12  29
BRANCH   1  32
HETATM   32  C2  UNL     1      -5.796   1.254  -1.179  1.00  0.00    -0.006 C 
HETATM   33  C1  UNL     1      -5.150   1.285  -2.338  1.00  0.00     0.028 C 
HETATM   34 BR1  UNL     1      -7.700   1.296  -1.123  1.00  0.00    -0.055 Br
ENDBRANCH   1  32
TORSDOF 8
