REMARK  8 active torsions:
REMARK  status: ('A' for Active; 'I' for Inactive)
REMARK    1  A    between atoms: C1_2  and  O2_3 
REMARK    2  A    between atoms: C1_2  and  C7_9 
REMARK    3  A    between atoms: O2_3  and  C2_4 
REMARK    4  A    between atoms: C7_9  and  C8_10 
REMARK    5  A    between atoms: C8_10  and  O3_11 
REMARK    6  A    between atoms: C14_18  and  O4_19 
REMARK    7  A    between atoms: C16_22  and  C17_23 
REMARK    8  A    between atoms: C17_23  and  O5_24 
ROOT
HETATM    1  C7  UNL     1      -0.389  -1.228   0.758  1.00  0.00     0.100 C 
HETATM    2  C9  UNL     1      -1.041  -1.054   2.092  1.00  0.00     0.025 C 
HETATM    3  C10 UNL     1      -1.691   0.264   2.309  1.00  0.00     0.006 C 
HETATM    4  C11 UNL     1      -2.924   0.482   1.477  1.00  0.00    -0.008 C 
HETATM    5  C12 UNL     1      -3.538  -0.841   1.023  1.00  0.00     0.008 C 
HETATM    6  C13 UNL     1      -2.734  -1.510  -0.034  1.00  0.00     0.039 C 
HETATM    7  C14 UNL     1      -1.407  -0.880  -0.316  1.00  0.00     0.077 C 
HETATM    8  C15 UNL     1      -1.501   0.595  -0.568  1.00  0.00     0.046 C 
HETATM    9  C16 UNL     1      -2.625   1.257   0.208  1.00  0.00     0.016 C 
ENDROOT
BRANCH   1  10
HETATM   10  C1  UNL     1       0.842  -0.425   0.596  1.00  0.00     0.273 C 
HETATM   11  O1  UNL     1       1.227   0.346   1.523  1.00  0.00    -0.264 OA
BRANCH  10  12
HETATM   12  O2  UNL     1       1.652  -0.423  -0.500  1.00  0.00    -0.315 OA
BRANCH  12  13
HETATM   13  C2  UNL     1       2.808   0.302  -0.704  1.00  0.00     0.132 C 
HETATM   14  C3  UNL     1       2.777   1.247  -1.871  1.00  0.00     0.032 C 
HETATM   15  C4  UNL     1       4.201   1.786  -1.808  1.00  0.00     0.002 C 
HETATM   16  C5  UNL     1       5.033   0.632  -1.285  1.00  0.00     0.002 C 
HETATM   17  C6  UNL     1       4.051  -0.484  -0.965  1.00  0.00     0.032 C 
ENDBRANCH  12  13
ENDBRANCH  10  12
ENDBRANCH   1  10
BRANCH   1  18
HETATM   18  C8  UNL     1       0.016  -2.686   0.643  1.00  0.00     0.187 C 
BRANCH  18  19
HETATM   19  O3  UNL     1       0.596  -3.007  -0.559  1.00  0.00    -0.399 OA
ATOM     20  H3  UNL     1       0.850  -3.920  -0.631  1.00  0.00     0.209 HD
ENDBRANCH  18  19
ENDBRANCH   1  18
BRANCH   7  21
HETATM   21  O4  UNL     1      -0.935  -1.464  -1.515  1.00  0.00    -0.388 OA
ATOM     22  H4  UNL     1      -1.571  -1.247  -2.186  1.00  0.00     0.210 HD
ENDBRANCH   7  21
BRANCH   9  23
HETATM   23  C17 UNL     1      -2.349   2.706   0.476  1.00  0.00     0.169 C 
BRANCH  23  24
HETATM   24  O5  UNL     1      -2.089   3.318  -0.750  1.00  0.00    -0.400 OA
ATOM     25  H5  UNL     1      -1.914   4.236  -0.580  1.00  0.00     0.209 HD
ENDBRANCH  23  24
ENDBRANCH   9  23
TORSDOF 8
