REMARK  6 active torsions:
REMARK  status: ('A' for Active; 'I' for Inactive)
REMARK    1  A    between atoms: C4_5  and  C5_6 
REMARK    2  A    between atoms: C5_6  and  O2_7 
REMARK    3  A    between atoms: C6_9  and  C7_10 
REMARK    4  A    between atoms: C11_14  and  N1_15 
REMARK    5  A    between atoms: N1_15  and  C12_18 
REMARK    6  A    between atoms: C17_23  and  O3_24 
ROOT
HETATM    1  C7  UNL     1      -1.027   1.390   0.763  1.00  0.00     0.048 C 
HETATM    2  C8  UNL     1      -1.297   1.871   2.229  1.00  0.00     0.009 C 
HETATM    3  C9  UNL     1      -0.327   3.055   2.232  1.00  0.00     0.002 C 
HETATM    4  C10 UNL     1       0.847   2.594   1.428  1.00  0.00     0.033 C 
HETATM    5  C11 UNL     1       0.402   1.263   0.765  1.00  0.00     0.193 C 
ENDROOT
BRANCH   5   6
HETATM    6  N1  UNL     1       1.167   1.302  -0.461  1.00  0.00    -0.064 N 
ATOM      7  H12 UNL     1       0.551   1.268  -1.274  1.00  0.00     0.278 HD
ATOM      8  H11 UNL     1       1.580   2.224  -0.601  1.00  0.00     0.278 HD
BRANCH   6   9
HETATM    9  C12 UNL     1       2.159   0.288  -0.536  1.00  0.00     0.214 C 
HETATM   10  C13 UNL     1       1.628  -1.115  -0.656  1.00  0.00     0.036 C 
HETATM   11  C14 UNL     1       2.677  -2.039  -0.092  1.00  0.00     0.002 C 
HETATM   12  C15 UNL     1       3.936  -1.864  -0.899  1.00  0.00     0.003 C 
HETATM   13  C16 UNL     1       4.398  -0.444  -0.983  1.00  0.00     0.034 C 
HETATM   14  C17 UNL     1       3.279   0.476  -1.488  1.00  0.00     0.148 C 
BRANCH  14  15
HETATM   15  O3  UNL     1       3.838   1.776  -1.408  1.00  0.00    -0.393 OA
ATOM     16  H3  UNL     1       4.556   1.897  -2.018  1.00  0.00     0.210 HD
ENDBRANCH  14  15
ENDBRANCH   6   9
ENDBRANCH   5   6
BRANCH   1  17
HETATM   17  C6  UNL     1      -2.025   0.457   0.325  1.00  0.00     0.162 C 
HETATM   18  C4  UNL     1      -2.406  -0.843   0.720  1.00  0.00     0.178 C 
HETATM   19  O1  UNL     1      -2.185  -1.610  -0.479  1.00  0.00    -0.346 OA
HETATM   20  C2  UNL     1      -2.798  -0.728  -1.395  1.00  0.00     0.158 C 
HETATM   21  C1  UNL     1      -2.571  -1.214  -2.805  1.00  0.00     0.078 C 
HETATM   22  C3  UNL     1      -4.277  -0.569  -1.188  1.00  0.00     0.078 C 
HETATM   23  O4  UNL     1      -2.088   0.424  -1.102  1.00  0.00    -0.348 OA
BRANCH  18  24
HETATM   24  C5  UNL     1      -1.903  -1.698   1.788  1.00  0.00     0.198 C 
BRANCH  24  25
HETATM   25  O2  UNL     1      -2.029  -1.331   3.088  1.00  0.00    -0.398 OA
ATOM     26  H2  UNL     1      -1.701  -1.888   3.784  1.00  0.00     0.209 HD
ENDBRANCH  24  25
ENDBRANCH  18  24
ENDBRANCH   1  17
TORSDOF 6
