REMARK  9 active torsions:
REMARK  status: ('A' for Active; 'I' for Inactive)
REMARK    1  A    between atoms: C2_2  and  C3_3 
REMARK    2  A    between atoms: C3_3  and  C4_4 
REMARK    3  A    between atoms: C4_4  and  C5_5 
REMARK       I    between atoms: C5_5  and  N1_7 
REMARK    4  A    between atoms: N1_7  and  C6_9 
REMARK    5  A    between atoms: C7_14  and  S1_15 
REMARK    6  A    between atoms: S1_15  and  C8_16 
REMARK    7  A    between atoms: C8_16  and  C9_17 
REMARK    8  A    between atoms: C9_17  and  O2_18 
REMARK    9  A    between atoms: C9_17  and  C10_20 
ROOT
HETATM    1  C6  UNL     1       2.306   0.352  -1.937  1.00  0.00     0.168 A 
HETATM    2  N2  UNL     1       1.956   0.878  -0.758  1.00  0.00    -0.278 N 
ATOM      3  H2  UNL     1       2.665   1.138  -0.073  1.00  0.00     0.189 HD
HETATM    4  N3  UNL     1       0.723   1.047  -0.510  1.00  0.00    -0.286 N 
ATOM      5  H3  UNL     1       0.434   1.446   0.383  1.00  0.00     0.188 HD
HETATM    6  C7  UNL     1      -0.190   0.707  -1.406  1.00  0.00     0.130 A 
HETATM    7  S2  UNL     1       0.783   0.111  -2.676  1.00  0.00    -0.026 SA
ENDROOT
BRANCH   6   8
HETATM    8  S1  UNL     1      -1.986   0.861  -1.260  1.00  0.00    -0.101 SA
BRANCH   8   9
HETATM    9  C8  UNL     1      -2.355   1.573   0.351  1.00  0.00     0.113 C 
BRANCH   9  10
HETATM   10  C9  UNL     1      -3.812   1.735   0.554  1.00  0.00     0.132 C 
BRANCH  10  11
HETATM   11  O2  UNL     1      -3.942   2.343   1.858  1.00  0.00    -0.394 OA
ATOM     12  H2  UNL     1      -4.877   2.447   1.988  1.00  0.00     0.210 HD
ENDBRANCH  10  11
BRANCH  10  13
HETATM   13  C10 UNL     1      -4.667   0.536   0.565  1.00  0.00     0.015 C 
HETATM   14  C11 UNL     1      -4.685  -0.325  -0.669  1.00  0.00     0.007 C 
HETATM   15  C12 UNL     1      -5.772  -1.336  -0.199  1.00  0.00     0.000 C 
HETATM   16  C13 UNL     1      -5.369  -1.591   1.242  1.00  0.00     0.000 C 
HETATM   17  C14 UNL     1      -4.343  -0.509   1.610  1.00  0.00     0.007 C 
ENDBRANCH  10  13
ENDBRANCH   9  10
ENDBRANCH   8   9
ENDBRANCH   6   8
BRANCH   1  18
HETATM   18  N1  UNL     1       3.514   0.097  -2.388  1.00  0.00    -0.306 N 
HETATM   19  C5  UNL     1       4.609   0.408  -1.538  1.00  0.00     0.223 C 
HETATM   20  O1  UNL     1       4.917   1.590  -1.229  1.00  0.00    -0.273 OA
ATOM     21  H1  UNL     1       3.660  -0.309  -3.313  1.00  0.00     0.171 HD
BRANCH  19  22
HETATM   22  C4  UNL     1       5.393  -0.738  -1.018  1.00  0.00     0.107 C 
BRANCH  22  23
HETATM   23  C3  UNL     1       6.500  -0.194  -0.144  1.00  0.00     0.035 C 
BRANCH  23  24
HETATM   24  C2  UNL     1       7.296  -1.319   0.387  1.00  0.00    -0.036 C 
HETATM   25  C1  UNL     1       7.388  -1.498   1.692  1.00  0.00     0.007 C 
ENDBRANCH  23  24
ENDBRANCH  22  23
ENDBRANCH  19  22
ENDBRANCH   1  18
TORSDOF 9
