REMARK  4 active torsions:
REMARK  status: ('A' for Active; 'I' for Inactive)
REMARK    1  A    between atoms: C2_2  and  C3_3 
REMARK    2  A    between atoms: C6_9  and  C7_10 
REMARK    3  A    between atoms: C8_16  and  N4_17 
REMARK    4  A    between atoms: C12_25  and  N6_26 
ROOT
HETATM    1  C3  UNL     1       2.597  -0.768   1.198  1.00  0.00    -0.037 A 
HETATM    2  C4  UNL     1       2.875  -1.613   2.246  1.00  0.00     0.060 A 
HETATM    3  S1  UNL     1       1.365  -2.168   2.747  1.00  0.00    -0.083 SA
HETATM    4  C5  UNL     1       0.380  -1.311   1.608  1.00  0.00     0.087 A 
HETATM    5  N1  UNL     1      -0.929  -1.267   1.404  1.00  0.00    -0.347 N 
ATOM      6  H1  UNL     1      -1.528  -1.830   2.009  1.00  0.00     0.167 HD
HETATM    7  C6  UNL     1      -1.536  -0.499   0.414  1.00  0.00     0.080 A 
HETATM    8  C9  UNL     1      -0.686   0.227  -0.334  1.00  0.00     0.044 A 
HETATM    9  C10 UNL     1      -1.174   1.109  -1.288  1.00  0.00     0.037 A 
HETATM   10  C11 UNL     1      -2.592   1.463  -1.420  1.00  0.00     0.070 C 
HETATM   11  N5  UNL     1      -0.275   1.848  -1.983  1.00  0.00    -0.195 N 
ATOM     12  H5  UNL     1      -0.635   2.490  -2.690  1.00  0.00     0.184 HD
HETATM   13  C12 UNL     1       1.075   1.795  -1.805  1.00  0.00     0.676 A 
HETATM   14  N7  UNL     1       1.522   0.950  -0.867  1.00  0.00    -0.190 N 
ATOM     15  H7  UNL     1       2.527   0.889  -0.705  1.00  0.00     0.184 HD
HETATM   16  C13 UNL     1       0.715   0.190  -0.140  1.00  0.00     0.077 A 
HETATM   17  C14 UNL     1       1.293  -0.618   0.875  1.00  0.00     0.033 A 
ENDROOT
BRANCH   7  18
HETATM   18  C7  UNL     1      -2.950  -0.712   0.290  1.00  0.00     0.129 A 
HETATM   19  N2  UNL     1      -3.863  -0.632  -0.607  1.00  0.00    -0.236 N 
HETATM   20  O1  UNL     1      -5.033  -0.849  -0.189  1.00  0.00    -0.155 OA
ATOM     21  H2  UNL     1      -3.659  -0.410  -1.582  1.00  0.00     0.197 HD
HETATM   22  N3  UNL     1      -5.009  -1.101   1.068  1.00  0.00    -0.224 N 
HETATM   23  C8  UNL     1      -3.691  -1.032   1.463  1.00  0.00     0.152 A 
ATOM     24  H3  UNL     1      -5.811  -1.312   1.661  1.00  0.00     0.198 HD
BRANCH  23  25
HETATM   25  N4  UNL     1      -3.328  -1.198   2.662  1.00  0.00    -0.382 N 
ATOM     26  H42 UNL     1      -2.352  -1.147   2.954  1.00  0.00     0.157 HD
ATOM     27  H41 UNL     1      -3.859  -1.427   3.502  1.00  0.00     0.157 HD
ENDBRANCH  23  25
ENDBRANCH   7  18
BRANCH   1  28
HETATM   28  C2  UNL     1       3.771  -0.099   0.498  1.00  0.00     0.035 C 
HETATM   29  C1  UNL     1       4.112  -0.776  -0.801  1.00  0.00     0.010 C 
ENDBRANCH   1  28
BRANCH  13  30
HETATM   30  N6  UNL     1       1.837   2.481  -2.469  1.00  0.00    -0.234 N 
ATOM     31  H62 UNL     1       1.497   3.125  -3.183  1.00  0.00     0.174 HD
ATOM     32  H61 UNL     1       2.847   2.441  -2.336  1.00  0.00     0.174 HD
ENDBRANCH  13  30
TORSDOF 4
