REMARK  5 active torsions:
REMARK  status: ('A' for Active; 'I' for Inactive)
REMARK    1  A    between atoms: C2_2  and  N1_3 
REMARK    2  A    between atoms: N1_3  and  C3_5 
REMARK    3  A    between atoms: C3_5  and  N2_7 
REMARK    4  A    between atoms: N2_7  and  C4_9 
REMARK    5  A    between atoms: C7_12  and  N3_13 
ROOT
HETATM    1  C4  UNL     1       1.154   0.167  -0.229  1.00  0.00     0.053 A 
HETATM    2  C5  UNL     1       0.406  -0.305  -1.269  1.00  0.00     0.033 A 
HETATM    3  C6  UNL     1      -0.996  -0.451  -1.210  1.00  0.00     0.033 A 
HETATM    4  C7  UNL     1      -1.658  -0.108  -0.064  1.00  0.00     0.049 A 
HETATM    5  C12 UNL     1      -0.920   0.382   1.029  1.00  0.00     0.058 A 
HETATM    6  S2  UNL     1      -1.174   0.936   2.605  1.00  0.00    -0.049 SA
HETATM    7  S3  UNL     1       0.783   1.136   2.513  1.00  0.00    -0.049 SA
HETATM    8  C13 UNL     1       0.428   0.519   0.963  1.00  0.00     0.058 A 
ENDROOT
BRANCH   1   9
HETATM    9  N2  UNL     1       2.537   0.275  -0.279  1.00  0.00    -0.332 N 
ATOM     10  H2  UNL     1       2.982   0.456   0.621  1.00  0.00     0.168 HD
BRANCH   9  11
HETATM   11  C3  UNL     1       3.410   0.178  -1.342  1.00  0.00     0.172 C 
HETATM   12  S1  UNL     1       2.982  -0.051  -2.884  1.00  0.00    -0.041 SA
BRANCH  11  13
HETATM   13  N1  UNL     1       4.835   0.321  -1.078  1.00  0.00    -0.367 N 
ATOM     14  H1  UNL     1       5.521   0.255  -1.830  1.00  0.00     0.161 HD
BRANCH  13  15
HETATM   15  C2  UNL     1       5.238   0.558   0.281  1.00  0.00     0.117 C 
HETATM   16  C1  UNL     1       6.750   0.660   0.321  1.00  0.00     0.026 C 
ENDBRANCH  13  15
ENDBRANCH  11  13
ENDBRANCH   9  11
ENDBRANCH   1   9
BRANCH   4  17
HETATM   17  N3  UNL     1      -3.052  -0.259  -0.024  1.00  0.00    -0.376 N 
HETATM   18  C8  UNL     1      -3.995   0.809   0.203  1.00  0.00     0.149 C 
HETATM   19  C9  UNL     1      -5.114   0.414   1.140  1.00  0.00     0.187 C 
HETATM   20  O1  UNL     1      -5.186  -0.936   1.376  1.00  0.00    -0.388 OA
HETATM   21  C10 UNL     1      -5.081  -1.642   0.160  1.00  0.00     0.187 C 
HETATM   22  C11 UNL     1      -3.623  -1.599  -0.226  1.00  0.00     0.149 C 
ENDBRANCH   4  17
TORSDOF 5
