REMARK  9 active torsions:
REMARK  status: ('A' for Active; 'I' for Inactive)
REMARK    1  A    between atoms: C2_2  and  C3_3 
REMARK    2  A    between atoms: C3_3  and  C4_4 
REMARK    3  A    between atoms: C3_3  and  O1_6 
REMARK    4  A    between atoms: O1_6  and  C6_7 
REMARK    5  A    between atoms: C9_10  and  S1_11 
REMARK    6  A    between atoms: S1_11  and  C10_12 
REMARK    7  A    between atoms: C10_12  and  N2_16 
REMARK       I    between atoms: N2_16  and  C11_18 
REMARK       I    between atoms: C11_18  and  N3_20 
REMARK    8  A    between atoms: C14_23  and  O3_24 
REMARK    9  A    between atoms: O3_24  and  C15_25 
ROOT
HETATM    1  C6  UNL     1      -2.709   0.586  -0.538  1.00  0.00     0.124 C 
HETATM    2  C7  UNL     1      -1.851   0.127  -1.692  1.00  0.00     0.033 C 
HETATM    3  C8  UNL     1      -0.561  -0.419  -1.057  1.00  0.00     0.021 C 
HETATM    4  C9  UNL     1       0.277   0.808  -0.770  1.00  0.00     0.085 C 
HETATM    5  C14 UNL     1      -0.539   1.691   0.139  1.00  0.00     0.148 C 
HETATM    6  C17 UNL     1      -1.823   1.090   0.587  1.00  0.00     0.065 C 
ENDROOT
BRANCH   4   7
HETATM    7  S1  UNL     1       1.911   0.458  -0.153  1.00  0.00    -0.087 SA
BRANCH   7   8
HETATM    8  C10 UNL     1       2.905  -0.286  -1.423  1.00  0.00     0.142 C 
HETATM    9  N1  UNL     1       2.444  -0.372  -2.614  1.00  0.00    -0.380 N 
ATOM     10  H12 UNL     1       1.503  -0.024  -2.799  1.00  0.00     0.158 HD
ATOM     11  H11 UNL     1       3.015  -0.799  -3.343  1.00  0.00     0.158 HD
BRANCH   8  12
HETATM   12  N2  UNL     1       4.215  -0.771  -1.166  1.00  0.00    -0.289 N 
HETATM   13  C11 UNL     1       4.809  -0.718   0.124  1.00  0.00     0.323 C 
HETATM   14  O2  UNL     1       4.160  -0.224   1.093  1.00  0.00    -0.247 OA
HETATM   15  N3  UNL     1       6.120  -1.208   0.361  1.00  0.00    -0.343 N 
HETATM   16  C12 UNL     1       6.722  -1.156   1.669  1.00  0.00     0.154 C 
HETATM   17  C13 UNL     1       6.854  -1.771  -0.754  1.00  0.00     0.154 C 
ATOM     18  H2  UNL     1       4.750  -1.172  -1.936  1.00  0.00     0.172 HD
ENDBRANCH   8  12
ENDBRANCH   7   8
ENDBRANCH   4   7
BRANCH   5  19
HETATM   19  O3  UNL     1       0.252   1.912   1.303  1.00  0.00    -0.315 OA
BRANCH  19  20
HETATM   20  C15 UNL     1       0.611   3.191   1.703  1.00  0.00     0.255 C 
HETATM   21  C16 UNL     1       1.434   3.439   2.912  1.00  0.00     0.126 C 
HETATM   22  O4  UNL     1       0.199   4.159   0.980  1.00  0.00    -0.266 OA
ENDBRANCH  19  20
ENDBRANCH   5  19
BRANCH   1  23
HETATM   23  O1  UNL     1      -3.408  -0.526  -0.072  1.00  0.00    -0.377 OA
BRANCH  23  24
HETATM   24  C3  UNL     1      -4.769  -0.376  -0.032  1.00  0.00     0.143 C 
BRANCH  24  25
HETATM   25  C2  UNL     1      -5.151  -0.530   1.427  1.00  0.00    -0.005 C 
HETATM   26  C1  UNL     1      -4.436  -1.328   2.202  1.00  0.00     0.009 C 
ENDBRANCH  24  25
BRANCH  24  27
HETATM   27  C4  UNL     1      -5.550  -1.452  -0.749  1.00  0.00     0.031 C 
HETATM   28  C5  UNL     1      -5.292  -1.443  -2.234  1.00  0.00     0.008 C 
ENDBRANCH  24  27
ENDBRANCH  23  24
ENDBRANCH   1  23
TORSDOF 9
