REMARK  1 active torsions:
REMARK  status: ('A' for Active; 'I' for Inactive)
REMARK    1  A    between atoms: C1_2  and  C2_4 
ROOT
HETATM    1  C2  UNL     1      -0.386   0.705   0.069  1.00  0.00     0.037 A 
HETATM    2  C3  UNL     1      -0.802  -0.632   0.669  1.00  0.00     0.011 A 
HETATM    3  C4  UNL     1      -1.059  -0.295  -0.771  1.00  0.00     0.011 A 
ENDROOT
BRANCH   1   4
HETATM    4  C1  UNL     1       1.080   0.900   0.042  1.00  0.00     0.060 C 
HETATM    5  S1  UNL     1       1.642   2.001   0.759  1.00  0.00    -0.076 SA
HETATM    6  S2  UNL     1       2.211  -0.167  -0.840  1.00  0.00    -0.044 SA
ENDBRANCH   1   4
TORSDOF 1
