REMARK  2 active torsions:
REMARK  status: ('A' for Active; 'I' for Inactive)
REMARK    1  A    between atoms: C2_2  and  N1_3 
REMARK    2  A    between atoms: N4_8  and  C4_10 
ROOT
HETATM    1  C1  UNL     1       0.357  -1.126  -1.818  1.00  0.00     0.089 C 
HETATM    2  C2  UNL     1       0.678  -0.003  -0.910  1.00  0.00     0.075 C 
HETATM    3  N4  UNL     1      -0.115   0.338   0.020  1.00  0.00    -0.372 N 
ATOM      4  H4  UNL     1       0.175   1.122   0.604  1.00  0.00     0.161 HD
ENDROOT
BRANCH   2   5
HETATM    5  N1  UNL     1       1.908   0.708  -1.090  1.00  0.00    -0.323 N 
HETATM    6  C3  UNL     1       2.587   1.157  -0.091  1.00  0.00     0.202 C 
HETATM    7  N2  UNL     1       2.201   0.999   1.255  1.00  0.00    -0.066 NA
HETATM    8  N3  UNL     1       3.797   1.852  -0.368  1.00  0.00    -0.066 NA
ATOM      9  H1  UNL     1       2.257   0.863  -2.036  1.00  0.00     0.169 HD
ENDBRANCH   2   5
BRANCH   3  10
HETATM   10  C4  UNL     1      -1.375  -0.264   0.335  1.00  0.00     0.020 C 
HETATM   11  C5  UNL     1      -2.445   0.053  -0.667  1.00  0.00     0.037 C 
HETATM   12  C6  UNL     1      -1.828   0.404   1.649  1.00  0.00     0.037 C 
HETATM   13  C7  UNL     1      -1.304  -1.767   0.544  1.00  0.00     0.037 C 
ENDBRANCH   3  10
TORSDOF 2
