REMARK  0 active torsions:
REMARK  status: ('A' for Active; 'I' for Inactive)
ROOT
HETATM    1  F1  UNL     1      -1.087   2.680  -0.361  1.00  0.00    -0.242 F 
HETATM    2  C1  UNL     1      -0.887   1.338  -0.424  1.00  0.00     0.229 C 
HETATM    3  C2  UNL     1      -1.515   0.599   0.765  1.00  0.00     0.044 C 
HETATM    4  C3  UNL     1      -1.604  -0.857   0.361  1.00  0.00     0.008 C 
HETATM    5  C4  UNL     1      -0.303  -1.398  -0.130  1.00  0.00     0.044 C 
HETATM    6  C5  UNL     1       0.793  -0.403  -0.202  1.00  0.00     0.016 A 
HETATM    7  C6  UNL     1       0.562   0.964  -0.348  1.00  0.00     0.119 A 
HETATM    8  O1  UNL     1       1.704   1.557  -0.379  1.00  0.00    -0.238 OA
HETATM    9  N1  UNL     1       2.708   0.741  -0.270  1.00  0.00    -0.249 N 
ATOM     10  H1  UNL     1       3.699   0.984  -0.270  1.00  0.00     0.196 HD
HETATM   11  C7  UNL     1       2.177  -0.488  -0.158  1.00  0.00     0.130 A 
HETATM   12  S1  UNL     1       3.037  -1.882   0.007  1.00  0.00    -0.058 SA
ENDROOT
TORSDOF 0
