REMARK  2 active torsions:
REMARK  status: ('A' for Active; 'I' for Inactive)
REMARK    1  A    between atoms: C5_6  and  C6_7 
REMARK    2  A    between atoms: N1_8  and  O2_10 
ROOT
HETATM    1  C1  UNL     1      -1.463  -1.117  -1.108  1.00  0.00     0.040 C 
HETATM    2  C2  UNL     1      -1.560   0.282  -0.616  1.00  0.00     0.122 C 
HETATM    3  O1  UNL     1      -0.751   1.088  -1.409  1.00  0.00    -0.380 OA
HETATM    4  C3  UNL     1       0.560   0.861  -0.987  1.00  0.00     0.127 C 
HETATM    5  C4  UNL     1       1.395   2.070  -1.356  1.00  0.00     0.040 C 
HETATM    6  C5  UNL     1       0.487   0.680   0.523  1.00  0.00     0.061 C 
HETATM    7  C7  UNL     1      -0.975   0.500   0.755  1.00  0.00     0.022 C 
HETATM    8  C8  UNL     1      -1.336  -0.541   1.745  1.00  0.00     0.013 C 
ENDROOT
BRANCH   6   9
HETATM    9  C6  UNL     1       1.329  -0.409   1.008  1.00  0.00     0.094 C 
HETATM   10  N1  UNL     1       1.479  -1.525   0.390  1.00  0.00    -0.284 N 
ATOM     11  H1  UNL     1       0.977  -1.646  -0.489  1.00  0.00     0.192 HD
BRANCH  10  12
HETATM   12  O2  UNL     1       2.250  -2.551   0.813  1.00  0.00    -0.291 OA
ATOM     13  H2  UNL     1       2.361  -3.376   0.356  1.00  0.00     0.244 HD
ENDBRANCH  10  12
ENDBRANCH   6   9
TORSDOF 2
