REMARK  6 active torsions:
REMARK  status: ('A' for Active; 'I' for Inactive)
REMARK    1  A    between atoms: N1_1  and  C1_4 
REMARK    2  A    between atoms: N6_15  and  C4_16 
REMARK    3  A    between atoms: C4_16  and  O2_17 
REMARK    4  A    between atoms: C4_16  and  N7_19 
REMARK    5  A    between atoms: N7_19  and  N8_21 
REMARK    6  A    between atoms: C9_27  and  N9_28 
ROOT
HETATM    1  C1  UNL     1       6.500   0.029  -0.089  1.00  0.00     0.163 A 
HETATM    2  N2  UNL     1       6.411   1.180   0.603  1.00  0.00    -0.268 N 
ATOM      3  H2  UNL     1       7.207   1.710   0.957  1.00  0.00     0.190 HD
HETATM    4  N3  UNL     1       5.129   1.530   0.761  1.00  0.00    -0.231 N 
ATOM      5  H3  UNL     1       4.786   2.359   1.246  1.00  0.00     0.209 HD
HETATM    6  N4  UNL     1       4.390   0.608   0.176  1.00  0.00    -0.201 N 
HETATM    7  C2  UNL     1       3.048   0.530   0.089  1.00  0.00     0.167 A 
HETATM    8  N5  UNL     1       2.182   1.398   0.608  1.00  0.00    -0.290 N 
ATOM      9  H5  UNL     1       2.545   2.212   1.103  1.00  0.00     0.172 HD
HETATM   10  C3  UNL     1       0.820   1.244   0.505  1.00  0.00     0.337 A 
HETATM   11  O1  UNL     1       0.100   2.135   1.040  1.00  0.00    -0.246 OA
HETATM   12  N6  UNL     1       0.258   0.210  -0.124  1.00  0.00    -0.210 N 
HETATM   13  C9  UNL     1       1.128  -0.714  -0.680  1.00  0.00     0.145 A 
HETATM   14  C10 UNL     1       2.484  -0.620  -0.612  1.00  0.00     0.139 A 
HETATM   15  N10 UNL     1       3.337  -1.517  -1.122  1.00  0.00    -0.292 N 
ATOM     16  H10 UNL     1       2.964  -2.327  -1.617  1.00  0.00     0.187 HD
HETATM   17  N11 UNL     1       4.646  -1.386  -1.005  1.00  0.00    -0.280 N 
ATOM     18  H11 UNL     1       5.251  -2.099  -1.412  1.00  0.00     0.188 HD
HETATM   19  C11 UNL     1       5.206  -0.349  -0.370  1.00  0.00     0.190 A 
ENDROOT
BRANCH  12  20
HETATM   20  C4  UNL     1      -1.127  -0.042  -0.221  1.00  0.00     0.249 C 
BRANCH  20  21
HETATM   21  O2  UNL     1      -1.483  -1.090  -0.925  1.00  0.00    -0.331 OA
ATOM     22  H2  UNL     1      -2.415  -1.260  -0.990  1.00  0.00     0.221 HD
ENDBRANCH  20  21
BRANCH  20  23
HETATM   23  N7  UNL     1      -2.167   0.692   0.350  1.00  0.00    -0.259 N 
ATOM     24  H7  UNL     1      -1.934   1.516   0.904  1.00  0.00     0.191 HD
BRANCH  23  25
HETATM   25  N8  UNL     1      -3.509   0.351   0.198  1.00  0.00    -0.279 N 
HETATM   26  C5  UNL     1      -4.155  -0.283   1.259  1.00  0.00     0.114 C 
HETATM   27  C6  UNL     1      -5.616  -0.595   1.008  1.00  0.00     0.214 C 
HETATM   28  O3  UNL     1      -6.247   0.386   0.254  1.00  0.00    -0.381 OA
HETATM   29  C7  UNL     1      -5.636   0.393  -0.998  1.00  0.00     0.214 C 
HETATM   30  C8  UNL     1      -4.240   0.943  -0.826  1.00  0.00     0.114 C 
ENDBRANCH  23  25
ENDBRANCH  20  23
ENDBRANCH  12  20
BRANCH  13  31
HETATM   31  N9  UNL     1       0.639  -1.723  -1.299  1.00  0.00    -0.383 N 
ATOM     32  H92 UNL     1      -0.377  -1.793  -1.350  1.00  0.00     0.157 HD
ATOM     33  H91 UNL     1       1.279  -2.403  -1.708  1.00  0.00     0.157 HD
ENDBRANCH  13  31
BRANCH   1  34
HETATM   34  N1  UNL     1       7.562  -0.624  -0.431  1.00  0.00    -0.381 N 
ATOM     35  H12 UNL     1       8.520  -0.344  -0.223  1.00  0.00     0.157 HD
ATOM     36  H11 UNL     1       7.629  -1.496  -0.955  1.00  0.00     0.157 HD
ENDBRANCH   1  34
TORSDOF 6
