REMARK  7 active torsions:
REMARK  status: ('A' for Active; 'I' for Inactive)
REMARK    1  A    between atoms: C2_2  and  C3_3 
REMARK    2  A    between atoms: C3_3  and  C4_4 
REMARK    3  A    between atoms: C5_7  and  N2_8 
REMARK    4  A    between atoms: N2_8  and  C6_10 
REMARK    5  A    between atoms: C6_10  and  C7_11 
REMARK    6  A    between atoms: C7_11  and  O1_12 
REMARK    7  A    between atoms: C9_16  and  N4_17 
ROOT
HETATM    1  C4  UNL     1      -1.789   0.236  -0.257  1.00  0.00     0.051 A 
HETATM    2  N1  UNL     1      -0.686   0.740   0.360  1.00  0.00    -0.194 N 
ATOM      3  H1  UNL     1      -0.816   1.234   1.243  1.00  0.00     0.184 HD
HETATM    4  C5  UNL     1       0.545   0.629  -0.113  1.00  0.00     0.680 A 
HETATM    5  N3  UNL     1       0.739  -0.012  -1.265  1.00  0.00    -0.176 N 
ATOM      6  H3  UNL     1       1.682  -0.105  -1.642  1.00  0.00     0.186 HD
HETATM    7  C9  UNL     1      -0.301  -0.536  -1.931  1.00  0.00     0.137 A 
HETATM    8  C10 UNL     1      -1.585  -0.426  -1.447  1.00  0.00     0.111 A 
HETATM    9  C11 UNL     1      -2.707  -0.982  -2.150  1.00  0.00     0.105 C 
HETATM   10  N5  UNL     1      -3.617  -1.426  -2.742  1.00  0.00    -0.191 NA
ENDROOT
BRANCH   1  11
HETATM   11  C3  UNL     1      -3.135   0.392   0.323  1.00  0.00     0.059 C 
BRANCH  11  12
HETATM   12  C2  UNL     1      -3.622  -0.886   0.975  1.00  0.00     0.002 C 
HETATM   13  C1  UNL     1      -5.003  -0.700   1.562  1.00  0.00     0.005 C 
ENDBRANCH  11  12
ENDBRANCH   1  11
BRANCH   7  14
HETATM   14  N4  UNL     1      -0.134  -1.160  -3.043  1.00  0.00    -0.384 N 
ATOM     15  H42 UNL     1       0.817  -1.242  -3.402  1.00  0.00     0.157 HD
ATOM     16  H41 UNL     1      -0.925  -1.558  -3.549  1.00  0.00     0.157 HD
ENDBRANCH   7  14
BRANCH   4  17
HETATM   17  N2  UNL     1       1.535   1.126   0.517  1.00  0.00    -0.224 N 
ATOM     18  H2  UNL     1       1.336   1.608   1.394  1.00  0.00     0.177 HD
BRANCH  17  19
HETATM   19  C6  UNL     1       2.912   1.065   0.095  1.00  0.00     0.164 C 
BRANCH  19  20
HETATM   20  C7  UNL     1       3.552  -0.239   0.507  1.00  0.00     0.187 C 
BRANCH  20  21
HETATM   21  O1  UNL     1       4.866  -0.367   0.138  1.00  0.00    -0.394 OA
HETATM   22  C8  UNL     1       5.682   0.614   0.685  1.00  0.00     0.201 C 
ENDBRANCH  20  21
ENDBRANCH  19  20
ENDBRANCH  17  19
ENDBRANCH   4  17
TORSDOF 7
