REMARK  0 active torsions:
REMARK  status: ('A' for Active; 'I' for Inactive)
ROOT
HETATM    1  S1  UNL     1       4.379   0.368   0.088  1.00  0.00    -0.033 SA
HETATM    2  C1  UNL     1       2.750   0.236   0.185  1.00  0.00     0.211 C 
HETATM    3  N1  UNL     1       2.005  -0.981  -0.039  1.00  0.00    -0.354 N 
ATOM      4  H1  UNL     1       2.365  -1.873  -0.377  1.00  0.00     0.162 HD
HETATM    5  C2  UNL     1       0.660  -0.669   0.313  1.00  0.00     0.116 C 
HETATM    6  C3  UNL     1      -0.391  -1.279  -0.547  1.00  0.00     0.030 C 
HETATM    7  C4  UNL     1      -1.728  -0.729  -0.201  1.00  0.00     0.040 C 
HETATM    8  C5  UNL     1      -1.812   0.711   0.065  1.00  0.00     0.195 C 
HETATM    9  O1  UNL     1      -1.556   1.594  -0.948  1.00  0.00    -0.232 OA
HETATM   10  O2  UNL     1      -1.132   2.458  -0.021  1.00  0.00    -0.230 OA
HETATM   11  C6  UNL     1      -0.602   1.354   0.659  1.00  0.00     0.223 C 
HETATM   12  C7  UNL     1       0.613   0.834  -0.011  1.00  0.00     0.188 C 
HETATM   13  O3  UNL     1       1.831   1.261   0.496  1.00  0.00    -0.317 OA
ENDROOT
TORSDOF 0
