REMARK  1 active torsions:
REMARK  status: ('A' for Active; 'I' for Inactive)
REMARK    1  A    between atoms: O1_1  and  C1_3 
ROOT
HETATM    1  C1  UNL     1       0.378   0.185  -0.058  1.00  0.00     0.141 C 
HETATM    2  C2  UNL     1       1.389   1.232   0.046  1.00  0.00     0.057 C 
HETATM    3  C3  UNL     1       2.651   0.443   0.438  1.00  0.00     0.006 C 
HETATM    4  C4  UNL     1       2.303  -1.035   0.181  1.00  0.00     0.021 C 
HETATM    5  C5  UNL     1       1.224  -0.892  -0.786  1.00  0.00     0.115 C 
HETATM    6  S1  UNL     1      -0.079  -2.120  -0.826  1.00  0.00    -0.057 SA
HETATM    7  N1  UNL     1      -1.365  -0.887  -1.063  1.00  0.00    -0.186 NA
HETATM    8  C6  UNL     1      -2.382  -0.969  -0.080  1.00  0.00     0.123 C 
HETATM    9  C7  UNL     1      -2.583   0.433   0.435  1.00  0.00     0.033 C 
HETATM   10  C8  UNL     1      -1.731   1.245  -0.518  1.00  0.00     0.114 C 
HETATM   11  N2  UNL     1      -0.707   0.344  -0.933  1.00  0.00    -0.204 NA
ENDROOT
BRANCH   1  12
HETATM   12  O1  UNL     1       0.048  -0.286   1.208  1.00  0.00    -0.373 OA
ATOM     13  H1  UNL     1      -0.610  -0.968   1.140  1.00  0.00     0.212 HD
ENDBRANCH   1  12
TORSDOF 1
