REMARK  2 active torsions:
REMARK  status: ('A' for Active; 'I' for Inactive)
REMARK    1  A    between atoms: N1_1  and  C1_5 
REMARK    2  A    between atoms: C3_7  and  N2_8 
ROOT
HETATM    1  C1  UNL     1       1.522  -0.171  -0.368  1.00  0.00     0.190 C 
HETATM    2  C2  UNL     1       0.378  -0.619  -1.209  1.00  0.00     0.071 C 
HETATM    3  C3  UNL     1      -0.935  -0.688  -0.453  1.00  0.00     0.125 C 
HETATM    4  C4  UNL     1      -1.581   0.674  -0.311  1.00  0.00     0.038 C 
HETATM    5  C5  UNL     1      -0.554   1.769  -0.259  1.00  0.00     0.003 C 
HETATM    6  C6  UNL     1       0.294   1.573   0.962  1.00  0.00     0.007 C 
HETATM    7  C7  UNL     1       1.077   0.315   0.983  1.00  0.00     0.016 C 
HETATM    8  C8  UNL     1       0.383  -0.835   1.677  1.00  0.00     0.009 C 
HETATM    9  C9  UNL     1      -0.782  -1.358   0.894  1.00  0.00     0.039 C 
ENDROOT
BRANCH   1  10
HETATM   10  N1  UNL     1       2.358   0.833  -1.042  1.00  0.00    -0.075 N 
ATOM     11  H13 UNL     1       2.680   0.494  -1.948  1.00  0.00     0.274 HD
ATOM     12  H12 UNL     1       1.799   1.627  -1.353  1.00  0.00     0.274 HD
ATOM     13  H11 UNL     1       3.142   1.140  -0.466  1.00  0.00     0.274 HD
ENDBRANCH   1  10
BRANCH   3  14
HETATM   14  N2  UNL     1      -1.838  -1.493  -1.268  1.00  0.00    -0.070 N 
ATOM     15  H23 UNL     1      -1.939  -1.147  -2.222  1.00  0.00     0.275 HD
ATOM     16  H22 UNL     1      -1.459  -2.410  -1.505  1.00  0.00     0.275 HD
ATOM     17  H21 UNL     1      -2.721  -1.539  -0.760  1.00  0.00     0.275 HD
ENDBRANCH   3  14
TORSDOF 2
