REMARK  9 active torsions:
REMARK  status: ('A' for Active; 'I' for Inactive)
REMARK    1  A    between atoms: C3_3  and  C4_4 
REMARK    2  A    between atoms: C5_5  and  C6_6 
REMARK    3  A    between atoms: C7_8  and  O2_9 
REMARK    4  A    between atoms: C7_8  and  S1_11 
REMARK    5  A    between atoms: C9_13  and  N1_14 
REMARK    6  A    between atoms: N1_14  and  C11_16 
REMARK    7  A    between atoms: C13_18  and  C14_19 
REMARK    8  A    between atoms: C14_19  and  O3_20 
REMARK    9  A    between atoms: C15_22  and  O4_23 
ROOT
HETATM    1  C1  UNL     1      -7.915  -0.621   0.298  1.00  0.00     0.113 C 
HETATM    2  C2  UNL     1      -6.483  -0.379   0.421  1.00  0.00    -0.097 C 
HETATM    3  C3  UNL     1      -5.285  -0.197   0.516  1.00  0.00    -0.015 C 
ENDROOT
BRANCH   3   4
HETATM    4  C4  UNL     1      -3.894  -0.010   0.624  1.00  0.00    -0.012 C 
HETATM    5  C5  UNL     1      -2.694   0.128   0.713  1.00  0.00    -0.058 C 
BRANCH   5   6
HETATM    6  C6  UNL     1      -1.216   0.270   0.816  1.00  0.00     0.234 C 
HETATM    7  O1  UNL     1      -0.700  -0.887   0.337  1.00  0.00    -0.324 OA
HETATM    8  C7  UNL     1       0.664  -1.019   0.252  1.00  0.00     0.248 C 
HETATM    9  C9  UNL     1       1.252   0.042  -0.613  1.00  0.00     0.304 C 
HETATM   10  C13 UNL     1       0.681   1.382  -0.288  1.00  0.00     0.081 C 
HETATM   11  C15 UNL     1      -0.846   1.369  -0.158  1.00  0.00     0.167 C 
BRANCH   8  12
HETATM   12  O2  UNL     1       1.315  -1.174   1.453  1.00  0.00    -0.355 OA
ATOM     13  H2  UNL     1       2.259  -1.265   1.394  1.00  0.00     0.214 HD
ENDBRANCH   8  12
BRANCH   8  14
HETATM   14  S1  UNL     1       0.776  -2.660  -0.653  1.00  0.00    -0.104 SA
HETATM   15  C8  UNL     1       0.097  -3.865   0.539  1.00  0.00     0.095 C 
ENDBRANCH   8  14
BRANCH   9  16
HETATM   16  N1  UNL     1       2.695   0.140  -0.516  1.00  0.00     0.095 N 
HETATM   17  C10 UNL     1       3.312  -1.161  -0.857  1.00  0.00     0.310 C 
BRANCH  16  18
HETATM   18  C11 UNL     1       3.114   1.084  -1.554  1.00  0.00     0.268 C 
HETATM   19  C12 UNL     1       4.620   1.239  -1.578  1.00  0.00     0.037 C 
ENDBRANCH  16  18
ENDBRANCH   9  16
BRANCH  10  20
HETATM   20  C14 UNL     1       1.285   2.123   0.856  1.00  0.00     0.173 C 
BRANCH  20  21
HETATM   21  O3  UNL     1       1.209   1.507   2.086  1.00  0.00    -0.400 OA
ATOM     22  H3  UNL     1       1.594   1.979   2.815  1.00  0.00     0.209 HD
ENDBRANCH  20  21
ENDBRANCH  10  20
BRANCH  11  23
HETATM   23  O4  UNL     1      -1.219   2.629   0.282  1.00  0.00    -0.392 OA
ATOM     24  H4  UNL     1      -0.987   3.318  -0.329  1.00  0.00     0.210 HD
ENDBRANCH  11  23
ENDBRANCH   5   6
ENDBRANCH   3   4
TORSDOF 9
