REMARK  8 active torsions:
REMARK  status: ('A' for Active; 'I' for Inactive)
REMARK    1  A    between atoms: C4_9  and  C5_10 
REMARK    2  A    between atoms: C5_10  and  O1_11 
REMARK    3  A    between atoms: C5_10  and  N3_13 
REMARK    4  A    between atoms: N3_13  and  C6_16 
REMARK    5  A    between atoms: C6_16  and  C7_17 
REMARK    6  A    between atoms: C7_17  and  O2_18 
REMARK    7  A    between atoms: C7_17  and  N4_20 
REMARK    8  A    between atoms: N4_20  and  C8_22 
ROOT
HETATM    1  N3  UNL     1      -0.608   0.868  -0.384  1.00  0.00    -0.038 N 
ATOM      2  H31 UNL     1      -0.480   0.556   0.579  1.00  0.00     0.280 HD
ATOM      3  H32 UNL     1      -1.132   1.715  -0.164  1.00  0.00     0.280 HD
ENDROOT
BRANCH   1   4
HETATM    4  C5  UNL     1      -1.343  -0.084  -1.225  1.00  0.00     0.387 C 
BRANCH   4   5
HETATM    5  C4  UNL     1      -2.652  -0.428  -0.612  1.00  0.00     0.140 A 
HETATM    6  N2  UNL     1      -3.596  -1.021  -1.334  1.00  0.00    -0.352 N 
HETATM    7  C3  UNL     1      -4.810  -1.359  -0.828  1.00  0.00     0.093 A 
ATOM      8  H2  UNL     1      -3.400  -1.232  -2.313  1.00  0.00     0.166 HD
HETATM    9  C2  UNL     1      -5.085  -1.076   0.494  1.00  0.00     0.065 A 
HETATM   10  C1  UNL     1      -4.095  -0.460   1.229  1.00  0.00     0.101 A 
HETATM   11  N1  UNL     1      -4.339  -0.187   2.478  1.00  0.00    -0.385 N 
HETATM   12  N5  UNL     1      -2.909  -0.148   0.678  1.00  0.00    -0.329 N 
ATOM     13  H12 UNL     1      -5.239  -0.424   2.896  1.00  0.00     0.157 HD
ATOM     14  H11 UNL     1      -3.606   0.269   3.022  1.00  0.00     0.157 HD
ATOM     15  H5  UNL     1      -2.195   0.307   1.246  1.00  0.00     0.168 HD
ENDBRANCH   4   5
BRANCH   4  16
HETATM   16  O1  UNL     1      -1.487   0.505  -2.481  1.00  0.00    -0.364 OA
ATOM     17  H1  UNL     1      -0.650   0.725  -2.873  1.00  0.00     0.212 HD
ENDBRANCH   4  16
ENDBRANCH   1   4
BRANCH   1  18
HETATM   18  C6  UNL     1       0.649   1.117  -1.099  1.00  0.00     0.289 C 
BRANCH  18  19
HETATM   19  C7  UNL     1       1.519   2.083  -0.357  1.00  0.00     0.243 C 
BRANCH  19  20
HETATM   20  O2  UNL     1       0.904   3.318  -0.165  1.00  0.00    -0.375 OA
ATOM     21  H2  UNL     1       1.456   3.931   0.306  1.00  0.00     0.212 HD
ENDBRANCH  19  20
BRANCH  19  22
HETATM   22  N4  UNL     1       2.009   1.510   0.872  1.00  0.00    -0.362 N 
ATOM     23  H4  UNL     1       1.676   1.885   1.760  1.00  0.00     0.162 HD
BRANCH  22  24
HETATM   24  C8  UNL     1       2.937   0.444   0.881  1.00  0.00     0.029 A 
HETATM   25  C9  UNL     1       3.593   0.062  -0.260  1.00  0.00     0.029 A 
HETATM   26  C10 UNL     1       4.501  -1.007  -0.231  1.00  0.00     0.002 A 
HETATM   27  C11 UNL     1       4.768  -1.706   0.922  1.00  0.00     0.000 A 
HETATM   28  C12 UNL     1       4.109  -1.324   2.073  1.00  0.00     0.002 A 
HETATM   29  C13 UNL     1       3.218  -0.274   2.042  1.00  0.00     0.029 A 
ENDBRANCH  22  24
ENDBRANCH  19  22
ENDBRANCH  18  19
ENDBRANCH   1  18
TORSDOF 8
