REMARK  1 active torsions:
REMARK  status: ('A' for Active; 'I' for Inactive)
REMARK    1  A    between atoms: C1_2  and  C2_3 
ROOT
HETATM    1  S1  UNL     1       1.869   1.016   1.413  1.00  0.00    -0.084 SA
HETATM    2  C1  UNL     1       0.852   0.076   0.203  1.00  0.00     0.046 C 
HETATM    3  C3  UNL     1       0.048   1.051  -0.556  1.00  0.00     0.026 C 
HETATM    4  C4  UNL     1      -1.346   0.652  -0.876  1.00  0.00     0.021 C 
HETATM    5  C5  UNL     1      -1.994  -0.073   0.266  1.00  0.00     0.113 C 
HETATM    6  N1  UNL     1      -1.218  -1.229   0.555  1.00  0.00    -0.420 N 
ATOM      7  H1  UNL     1      -1.614  -2.168   0.514  1.00  0.00     0.153 HD
HETATM    8  C6  UNL     1       0.138  -1.003   0.903  1.00  0.00     0.136 C 
ENDROOT
BRANCH   2   9
HETATM    9  C2  UNL     1       1.908  -0.565  -0.717  1.00  0.00     0.137 C 
HETATM   10 CL1  UNL     1       2.909  -1.590   0.344  1.00  0.00    -0.129 Cl
ENDBRANCH   2   9
TORSDOF 1
