REMARK  3 active torsions:
REMARK  status: ('A' for Active; 'I' for Inactive)
REMARK    1  A    between atoms: O1_2  and  C2_3 
REMARK    2  A    between atoms: C4_10  and  C5_11 
REMARK    3  A    between atoms: C6_12  and  C7_13 
ROOT
HETATM    1  C7  UNL     1       3.002  -0.297  -0.270  1.00  0.00     0.111 C 
HETATM    2  C8  UNL     1       3.747  -0.684   1.010  1.00  0.00     0.029 C 
HETATM    3  C9  UNL     1       2.659  -1.516  -0.992  1.00  0.00     0.067 C 
HETATM    4  N3  UNL     1       2.403  -2.507  -1.576  1.00  0.00    -0.197 NA
ENDROOT
BRANCH   1   5
HETATM    5  C6  UNL     1       1.761   0.414   0.089  1.00  0.00    -0.006 C 
HETATM    6  C5  UNL     1       0.575  -0.057  -0.234  1.00  0.00     0.031 C 
BRANCH   6   7
HETATM    7  C4  UNL     1      -0.658   0.643   0.119  1.00  0.00     0.085 A 
HETATM    8  C2  UNL     1      -1.939   0.231  -0.175  1.00  0.00     0.171 A 
HETATM    9  N1  UNL     1      -2.745   1.176   0.339  1.00  0.00    -0.312 N 
HETATM   10  C3  UNL     1      -2.022   2.144   0.930  1.00  0.00     0.178 A 
ATOM     11  H1  UNL     1      -3.764   1.161   0.288  1.00  0.00     0.170 HD
HETATM   12  S1  UNL     1      -2.593   3.494   1.688  1.00  0.00    -0.040 SA
HETATM   13  N2  UNL     1      -0.722   1.828   0.803  1.00  0.00    -0.330 N 
ATOM     14  H2  UNL     1       0.069   2.369   1.151  1.00  0.00     0.168 HD
BRANCH   8  15
HETATM   15  O1  UNL     1      -2.254  -0.931  -0.862  1.00  0.00    -0.339 OA
HETATM   16  C1  UNL     1      -3.540  -1.355  -1.163  1.00  0.00     0.211 C 
ENDBRANCH   8  15
ENDBRANCH   6   7
ENDBRANCH   1   5
TORSDOF 3
