REMARK  5 active torsions:
REMARK  status: ('A' for Active; 'I' for Inactive)
REMARK    1  A    between atoms: C3_5  and  N2_6 
REMARK    2  A    between atoms: N2_6  and  N3_8 
REMARK       I    between atoms: N3_8  and  C5_10 
REMARK    3  A    between atoms: C5_10  and  C6_12 
REMARK    4  A    between atoms: C7_14  and  N4_15 
REMARK    5  A    between atoms: N4_15  and  O2_17 
ROOT
HETATM    1  C1  UNL     1      -2.858   1.507  -1.657  1.00  0.00     0.070 C 
HETATM    2  C2  UNL     1      -2.150   0.686  -0.628  1.00  0.00     0.029 A 
HETATM    3  N1  UNL     1      -0.897   0.239  -0.853  1.00  0.00    -0.342 N 
ATOM      4  H1  UNL     1      -0.441   0.475  -1.734  1.00  0.00     0.167 HD
HETATM    5  C3  UNL     1      -0.222  -0.514   0.053  1.00  0.00     0.153 A 
HETATM    6  C7  UNL     1      -0.828  -0.836   1.244  1.00  0.00     0.122 A 
HETATM    7  C8  UNL     1      -2.128  -0.402   1.538  1.00  0.00     0.086 A 
HETATM    8  S1  UNL     1      -2.819  -0.793   2.955  1.00  0.00    -0.076 SA
HETATM    9  C9  UNL     1      -2.758   0.363   0.567  1.00  0.00     0.090 A 
HETATM   10  C10 UNL     1      -4.077   0.830   0.809  1.00  0.00     0.103 C 
HETATM   11  N5  UNL     1      -5.165   1.223   1.027  1.00  0.00    -0.191 NA
ENDROOT
BRANCH   6  12
HETATM   12  N4  UNL     1      -0.101  -1.626   2.170  1.00  0.00    -0.264 N 
ATOM     13  H4  UNL     1       0.722  -1.245   2.637  1.00  0.00     0.194 HD
BRANCH  12  14
HETATM   14  O2  UNL     1      -0.477  -2.791   2.408  1.00  0.00    -0.289 OA
ATOM     15  H2  UNL     1       0.010  -3.320   3.028  1.00  0.00     0.244 HD
ENDBRANCH  12  14
ENDBRANCH   6  12
BRANCH   5  16
HETATM   16  N2  UNL     1       1.085  -0.954  -0.205  1.00  0.00    -0.277 N 
HETATM   17  C4  UNL     1       1.541  -2.317  -0.102  1.00  0.00     0.179 C 
BRANCH  16  18
HETATM   18  N3  UNL     1       2.023   0.011  -0.592  1.00  0.00    -0.266 N 
HETATM   19  C5  UNL     1       2.969   0.463   0.349  1.00  0.00     0.249 C 
HETATM   20  O1  UNL     1       2.970  -0.003   1.524  1.00  0.00    -0.271 OA
ATOM     21  H3  UNL     1       2.021   0.382  -1.542  1.00  0.00     0.190 HD
BRANCH  19  22
HETATM   22  C6  UNL     1       3.968   1.492  -0.039  1.00  0.00     0.219 C 
HETATM   23 CL1  UNL     1       3.714   1.962  -1.719  1.00  0.00    -0.121 Cl
ENDBRANCH  19  22
ENDBRANCH  16  18
ENDBRANCH   5  16
TORSDOF 5
