REMARK  6 active torsions:
REMARK  status: ('A' for Active; 'I' for Inactive)
REMARK    1  A    between atoms: C2_2  and  C3_3 
REMARK    2  A    between atoms: C3_3  and  C4_4 
REMARK    3  A    between atoms: C4_4  and  C5_5 
REMARK    4  A    between atoms: C6_10  and  N3_11 
REMARK    5  A    between atoms: N3_11  and  N4_13 
REMARK    6  A    between atoms: N4_13  and  C7_15 
ROOT
HETATM    1  C5  UNL     1       1.275   0.351  -1.298  1.00  0.00     0.065 A 
HETATM    2  N1  UNL     1       0.579  -0.712  -1.790  1.00  0.00    -0.287 N 
ATOM      3  H1  UNL     1       1.053  -1.336  -2.443  1.00  0.00     0.187 HD
HETATM    4  N2  UNL     1      -0.673  -0.980  -1.470  1.00  0.00    -0.130 N 
ATOM      5  H2  UNL     1      -1.146  -1.791  -1.869  1.00  0.00     0.205 HD
HETATM    6  C6  UNL     1      -1.317  -0.172  -0.612  1.00  0.00     0.712 A 
HETATM    7  N5  UNL     1      -0.663   0.875  -0.113  1.00  0.00    -0.177 N 
ATOM      8  H5  UNL     1      -1.157   1.484   0.539  1.00  0.00     0.185 HD
HETATM    9  C10 UNL     1       0.626   1.179  -0.423  1.00  0.00     0.140 A 
HETATM   10  S2  UNL     1       1.286   2.530   0.229  1.00  0.00    -0.058 SA
ENDROOT
BRANCH   6  11
HETATM   11  N3  UNL     1      -2.543  -0.455  -0.320  1.00  0.00    -0.128 N 
ATOM     12  H3  UNL     1      -2.979  -1.274  -0.745  1.00  0.00     0.205 HD
BRANCH  11  13
HETATM   13  N4  UNL     1      -3.288   0.333   0.564  1.00  0.00    -0.259 N 
ATOM     14  H4  UNL     1      -2.874   1.111   1.077  1.00  0.00     0.190 HD
BRANCH  13  15
HETATM   15  C7  UNL     1      -4.558   0.007   0.692  1.00  0.00     0.207 A 
HETATM   16  O1  UNL     1      -5.441   0.582   1.438  1.00  0.00    -0.274 OA
HETATM   17  C8  UNL     1      -6.626   0.180   1.481  1.00  0.00     0.154 A 
HETATM   18 CL1  UNL     1      -7.855   0.963   2.509  1.00  0.00    -0.056 Cl
HETATM   19  C9  UNL     1      -6.976  -0.901   0.705  1.00  0.00     0.104 A 
HETATM   20  S1  UNL     1      -5.464  -1.235  -0.043  1.00  0.00    -0.053 SA
ENDBRANCH  13  15
ENDBRANCH  11  13
ENDBRANCH   6  11
BRANCH   1  21
HETATM   21  C4  UNL     1       2.688   0.582  -1.647  1.00  0.00     0.062 C 
BRANCH  21  22
HETATM   22  C3  UNL     1       3.716  -0.040  -0.793  1.00  0.00     0.006 C 
BRANCH  22  23
HETATM   23  C2  UNL     1       3.761   0.292   0.646  1.00  0.00    -0.004 C 
HETATM   24  C1  UNL     1       4.934  -0.513   1.253  1.00  0.00     0.005 C 
ENDBRANCH  22  23
ENDBRANCH  21  22
ENDBRANCH   1  21
TORSDOF 6
