REMARK  8 active torsions:
REMARK  status: ('A' for Active; 'I' for Inactive)
REMARK    1  A    between atoms: C2_2  and  C3_3 
REMARK    2  A    between atoms: C3_3  and  O1_4 
REMARK    3  A    between atoms: C3_3  and  C4_6 
REMARK    4  A    between atoms: C5_7  and  C6_8 
REMARK    5  A    between atoms: C8_12  and  N2_13 
REMARK    6  A    between atoms: N2_13  and  C9_15 
REMARK    7  A    between atoms: C9_15  and  C10_16 
REMARK    8  A    between atoms: C17_26  and  C18_27 
ROOT
HETATM    1  C6  UNL     1       0.968  -0.154   0.724  1.00  0.00     0.048 A 
HETATM    2  C7  UNL     1       0.075  -1.034   1.252  1.00  0.00     0.111 A 
HETATM    3  N1  UNL     1      -1.205  -1.021   0.908  1.00  0.00    -0.350 N 
ATOM      4  H1  UNL     1      -1.841  -1.698   1.329  1.00  0.00     0.166 HD
HETATM    5  C8  UNL     1      -1.696  -0.112  -0.007  1.00  0.00     0.127 A 
HETATM    6  C15 UNL     1      -0.819   0.812  -0.580  1.00  0.00     0.103 A 
HETATM    7  C16 UNL     1      -1.321   1.699  -1.595  1.00  0.00     0.104 C 
HETATM    8  N4  UNL     1      -1.739   2.396  -2.453  1.00  0.00    -0.191 NA
HETATM    9  C17 UNL     1       0.501   0.784  -0.208  1.00  0.00     0.042 A 
ENDROOT
BRANCH   5  10
HETATM   10  N2  UNL     1      -2.927  -0.193  -0.251  1.00  0.00    -0.349 N 
ATOM     11  H2  UNL     1      -3.335  -0.948   0.301  1.00  0.00     0.167 HD
BRANCH  10  12
HETATM   12  C9  UNL     1      -3.903   0.398  -1.014  1.00  0.00     0.119 C 
BRANCH  12  13
HETATM   13  C10 UNL     1      -5.245  -0.294  -0.781  1.00  0.00     0.047 A 
HETATM   14  C11 UNL     1      -5.300  -1.350   0.102  1.00  0.00     0.031 A 
HETATM   15  C12 UNL     1      -6.502  -2.005   0.340  1.00  0.00     0.004 A 
HETATM   16  C13 UNL     1      -7.625  -1.577  -0.322  1.00  0.00     0.017 A 
HETATM   17  C14 UNL     1      -7.521  -0.511  -1.202  1.00  0.00     0.088 A 
HETATM   18  N3  UNL     1      -6.335   0.110  -1.414  1.00  0.00    -0.365 N 
ATOM     19  H3  UNL     1      -6.282   0.893  -2.065  1.00  0.00     0.165 HD
ENDBRANCH  12  13
ENDBRANCH  10  12
ENDBRANCH   5  10
BRANCH   9  20
HETATM   20  C18 UNL     1       1.519   1.657  -0.766  1.00  0.00     0.090 A 
HETATM   21  C19 UNL     1       1.373   2.886  -1.328  1.00  0.00     0.042 A 
HETATM   22  C20 UNL     1       2.645   3.368  -1.725  1.00  0.00     0.053 A 
HETATM   23  C21 UNL     1       3.497   2.365  -1.361  1.00  0.00     0.145 A 
HETATM   24 CL1  UNL     1       5.242   2.423  -1.617  1.00  0.00    -0.057 Cl
HETATM   25  O2  UNL     1       2.822   1.401  -0.815  1.00  0.00    -0.298 OA
ENDBRANCH   9  20
BRANCH   1  26
HETATM   26  C5  UNL     1       2.334  -0.209   1.148  1.00  0.00    -0.062 C 
HETATM   27  C4  UNL     1       3.500  -0.276   1.540  1.00  0.00    -0.069 C 
BRANCH  27  28
HETATM   28  C3  UNL     1       4.878  -0.343   2.026  1.00  0.00     0.196 C 
BRANCH  28  29
HETATM   29  C2  UNL     1       5.587  -1.565   1.478  1.00  0.00     0.040 C 
HETATM   30  C1  UNL     1       5.662  -1.518  -0.031  1.00  0.00     0.009 C 
ENDBRANCH  28  29
BRANCH  28  31
HETATM   31  O1  UNL     1       5.505   0.832   1.695  1.00  0.00    -0.383 OA
ATOM     32  H1  UNL     1       5.061   1.598   2.039  1.00  0.00     0.211 HD
ENDBRANCH  28  31
ENDBRANCH  27  28
ENDBRANCH   1  26
TORSDOF 8
