REMARK  6 active torsions:
REMARK  status: ('A' for Active; 'I' for Inactive)
REMARK    1  A    between atoms: N1_2  and  C2_4 
REMARK    2  A    between atoms: C4_8  and  N3_9 
REMARK    3  A    between atoms: N3_9  and  C5_11 
REMARK    4  A    between atoms: C5_11  and  C6_12 
REMARK    5  A    between atoms: C6_12  and  C7_13 
REMARK    6  A    between atoms: C13_22  and  C14_23 
ROOT
HETATM    1  C2  UNL     1       0.361   3.620  -0.378  1.00  0.00     0.146 A 
HETATM    2  N2  UNL     1      -0.155   2.452   0.001  1.00  0.00    -0.331 N 
ATOM      3  H2  UNL     1      -1.153   2.365   0.193  1.00  0.00     0.168 HD
HETATM    4  C3  UNL     1       0.641   1.415   0.123  1.00  0.00     0.113 A 
HETATM    5  C4  UNL     1       0.307   0.102   0.507  1.00  0.00     0.133 A 
HETATM    6  N4  UNL     1       1.270  -0.820   0.571  1.00  0.00    -0.325 N 
ATOM      7  H4  UNL     1       0.987  -1.759   0.852  1.00  0.00     0.169 HD
HETATM    8  C13 UNL     1       2.566  -0.639   0.305  1.00  0.00     0.135 A 
HETATM    9  N6  UNL     1       2.906   0.607  -0.064  1.00  0.00    -0.333 N 
ATOM     10  H6  UNL     1       3.880   0.815  -0.284  1.00  0.00     0.168 HD
HETATM   11  C19 UNL     1       1.968   1.605  -0.151  1.00  0.00     0.110 A 
HETATM   12  S1  UNL     1       2.017   3.269  -0.574  1.00  0.00    -0.034 SA
ENDROOT
BRANCH   5  13
HETATM   13  N3  UNL     1      -0.918  -0.176   0.786  1.00  0.00    -0.374 N 
ATOM     14  H3  UNL     1      -1.596   0.583   0.714  1.00  0.00     0.161 HD
BRANCH  13  15
HETATM   15  C5  UNL     1      -1.407  -1.447   1.185  1.00  0.00     0.126 C 
BRANCH  15  16
HETATM   16  C6  UNL     1      -2.889  -1.304   1.498  1.00  0.00     0.058 C 
BRANCH  16  17
HETATM   17  C7  UNL     1      -3.641  -0.839   0.309  1.00  0.00    -0.057 A 
HETATM   18  C8  UNL     1      -3.794   0.515   0.116  1.00  0.00     0.009 A 
HETATM   19  C9  UNL     1      -4.501   0.945  -1.000  1.00  0.00     0.024 A 
HETATM   20  C10 UNL     1      -5.035   0.043  -1.892  1.00  0.00     0.034 A 
HETATM   21 CL1  UNL     1      -5.922   0.620  -3.294  1.00  0.00    -0.084 Cl
HETATM   22  C11 UNL     1      -4.871  -1.288  -1.682  1.00  0.00     0.024 A 
HETATM   23  C12 UNL     1      -4.170  -1.745  -0.574  1.00  0.00     0.009 A 
ENDBRANCH  16  17
ENDBRANCH  15  16
ENDBRANCH  13  15
ENDBRANCH   5  13
BRANCH   8  24
HETATM   24  C14 UNL     1       3.556  -1.708   0.401  1.00  0.00     0.076 A 
HETATM   25  C15 UNL     1       4.885  -1.472   0.115  1.00  0.00     0.033 A 
HETATM   26  C16 UNL     1       5.840  -2.434   0.191  1.00  0.00     0.004 A 
HETATM   27  C17 UNL     1       5.463  -3.704   0.572  1.00  0.00     0.017 A 
HETATM   28  C18 UNL     1       4.133  -3.937   0.857  1.00  0.00     0.088 A 
HETATM   29  N5  UNL     1       3.218  -2.952   0.769  1.00  0.00    -0.363 N 
ATOM     30  H5  UNL     1       2.243  -3.158   0.988  1.00  0.00     0.165 HD
ENDBRANCH   8  24
BRANCH   1  31
HETATM   31  N1  UNL     1      -0.282   4.758  -0.551  1.00  0.00    -0.375 N 
HETATM   32  C1  UNL     1       0.494   5.885  -0.964  1.00  0.00     0.148 C 
ATOM     33  H1  UNL     1      -1.288   4.831  -0.397  1.00  0.00     0.161 HD
ENDBRANCH   1  31
TORSDOF 6
