REMARK  2 active torsions:
REMARK  status: ('A' for Active; 'I' for Inactive)
REMARK    1  A    between atoms: C1_4  and  C2_5 
REMARK    2  A    between atoms: C4_7  and  C5_8 
ROOT
HETATM    1  C2  UNL     1      -0.496   0.229   0.538  1.00  0.00     0.032 A 
HETATM    2  C3  UNL     1      -0.106  -1.249   0.381  1.00  0.00     0.020 A 
HETATM    3  C4  UNL     1       0.402  -0.225  -0.548  1.00  0.00     0.050 A 
ENDROOT
BRANCH   1   4
HETATM    4  C1  UNL     1      -1.920   0.487   0.322  1.00  0.00     0.057 C 
HETATM    5  N1  UNL     1      -2.408   1.398  -0.427  1.00  0.00    -0.411 N 
ATOM      6  H12 UNL     1      -1.732   1.989  -0.910  1.00  0.00     0.155 HD
ATOM      7  H11 UNL     1      -3.401   1.578  -0.578  1.00  0.00     0.155 HD
ENDBRANCH   1   4
BRANCH   3   8
HETATM    8  C5  UNL     1       1.885   0.058  -0.468  1.00  0.00     0.192 C 
HETATM    9 CL1  UNL     1       2.668  -0.623  -1.934  1.00  0.00    -0.083 Cl
HETATM   10 CL2  UNL     1       2.217   1.807  -0.485  1.00  0.00    -0.083 Cl
HETATM   11 CL3  UNL     1       2.625  -0.738   0.928  1.00  0.00    -0.083 Cl
ENDBRANCH   3   8
TORSDOF 2
