REMARK  15 active torsions:
REMARK  status: ('A' for Active; 'I' for Inactive)
REMARK       I    between atoms: C1_2  and  N1_3 
REMARK    1  A    between atoms: C1_2  and  C5_14 
REMARK    2  A    between atoms: N1_3  and  C2_5 
REMARK    3  A    between atoms: C2_5  and  C3_6 
REMARK    4  A    between atoms: C3_6  and  O2_7 
REMARK    5  A    between atoms: C3_6  and  C4_9 
REMARK    6  A    between atoms: C4_9  and  O3_10 
REMARK    7  A    between atoms: C4_9  and  O4_12 
REMARK    8  A    between atoms: C8_17  and  O5_18 
REMARK    9  A    between atoms: C10_21  and  N2_22 
REMARK   10  A    between atoms: C12_24  and  C13_25 
REMARK   11  A    between atoms: C13_25  and  O6_26 
REMARK   12  A    between atoms: C15_30  and  O8_31 
REMARK   13  A    between atoms: C15_30  and  C16_33 
REMARK   14  A    between atoms: C16_33  and  O9_34 
REMARK   15  A    between atoms: C17_36  and  O10_37 
ROOT
HETATM    1  C5  UNL     1       2.084  -2.469  -0.412  1.00  0.00     0.061 A 
HETATM    2  C6  UNL     1       2.753  -3.686  -0.128  1.00  0.00     0.022 A 
HETATM    3  C7  UNL     1       2.075  -4.812   0.217  1.00  0.00     0.037 A 
HETATM    4  C8  UNL     1       0.682  -4.806   0.308  1.00  0.00     0.068 A 
HETATM    5  C9  UNL     1       0.051  -3.638   0.036  1.00  0.00     0.069 A 
HETATM    6  C10 UNL     1       0.731  -2.441  -0.329  1.00  0.00     0.075 A 
ENDROOT
BRANCH   6   7
HETATM    7  N2  UNL     1      -0.098  -1.324  -0.572  1.00  0.00    -0.250 N 
HETATM    8  C11 UNL     1      -1.371  -1.172  -0.113  1.00  0.00     0.148 A 
HETATM    9  C12 UNL     1      -1.908   0.000  -0.581  1.00  0.00     0.084 A 
HETATM   10  N3  UNL     1      -0.934   0.549  -1.324  1.00  0.00    -0.285 N 
HETATM   11  N4  UNL     1       0.120  -0.269  -1.293  1.00  0.00    -0.236 N 
ATOM     12  H3  UNL     1      -0.990   1.436  -1.825  1.00  0.00     0.188 HD
ATOM     13  H4  UNL     1       0.997  -0.085  -1.781  1.00  0.00     0.209 HD
BRANCH   9  14
HETATM   14  C13 UNL     1      -3.243   0.481  -0.365  1.00  0.00     0.155 C 
HETATM   15  C14 UNL     1      -3.630   0.823   1.065  1.00  0.00     0.219 C 
HETATM   16  O7  UNL     1      -4.957   1.269   0.809  1.00  0.00    -0.348 OA
HETATM   17  C15 UNL     1      -4.918   2.065  -0.326  1.00  0.00     0.213 C 
HETATM   18  C17 UNL     1      -3.560   1.830  -0.994  1.00  0.00     0.225 C 
BRANCH  14  19
HETATM   19  O6  UNL     1      -4.231  -0.443  -0.779  1.00  0.00    -0.378 OA
ATOM     20  H6  UNL     1      -5.115  -0.125  -0.636  1.00  0.00     0.211 HD
ENDBRANCH  14  19
BRANCH  17  21
HETATM   21  O8  UNL     1      -5.966   1.827  -1.210  1.00  0.00    -0.362 OA
ATOM     22  H8  UNL     1      -5.939   2.372  -1.987  1.00  0.00     0.213 HD
ENDBRANCH  17  21
BRANCH  17  23
HETATM   23  C16 UNL     1      -5.082   3.503   0.125  1.00  0.00     0.235 C 
BRANCH  23  24
HETATM   24  O9  UNL     1      -5.057   4.417  -0.933  1.00  0.00    -0.395 OA
ATOM     25  H9  UNL     1      -5.160   5.318  -0.650  1.00  0.00     0.209 HD
ENDBRANCH  23  24
ENDBRANCH  17  23
BRANCH  18  26
HETATM   26  O10 UNL     1      -3.628   1.738  -2.361  1.00  0.00    -0.386 OA
ATOM     27  H10 UNL     1      -3.826   2.580  -2.754  1.00  0.00     0.210 HD
ENDBRANCH  18  26
ENDBRANCH   9  14
ENDBRANCH   6   7
BRANCH   1  28
HETATM   28  C1  UNL     1       2.946  -1.360  -0.772  1.00  0.00     0.257 C 
HETATM   29  O1  UNL     1       2.742  -0.630  -1.730  1.00  0.00    -0.267 OA
HETATM   30  N1  UNL     1       4.098  -1.128   0.052  1.00  0.00    -0.330 N 
ATOM     31  H1  UNL     1       4.203  -1.787   0.823  1.00  0.00     0.168 HD
BRANCH  30  32
HETATM   32  C2  UNL     1       5.101  -0.158  -0.016  1.00  0.00     0.128 C 
BRANCH  32  33
HETATM   33  C3  UNL     1       4.861   1.282   0.208  1.00  0.00     0.113 C 
BRANCH  33  34
HETATM   34  O2  UNL     1       4.374   1.624   1.478  1.00  0.00    -0.359 OA
ATOM     35  H2  UNL     1       4.220   2.550   1.622  1.00  0.00     0.217 HD
ENDBRANCH  33  34
BRANCH  33  36
HETATM   36  C4  UNL     1       4.305   2.128  -0.873  1.00  0.00     0.313 C 
BRANCH  36  37
HETATM   37  O3  UNL     1       4.791   3.471  -0.700  1.00  0.00    -0.365 OA
ATOM     38  H3  UNL     1       4.434   4.014  -1.393  1.00  0.00     0.213 HD
ENDBRANCH  36  37
BRANCH  36  39
HETATM   39  O4  UNL     1       2.897   2.347  -0.710  1.00  0.00    -0.365 OA
ATOM     40  H4  UNL     1       2.540   2.890  -1.403  1.00  0.00     0.213 HD
ENDBRANCH  36  39
ENDBRANCH  33  36
ENDBRANCH  32  33
ENDBRANCH  30  32
ENDBRANCH   1  28
BRANCH   4  41
HETATM   41  O5  UNL     1       0.074  -5.984   0.667  1.00  0.00    -0.361 OA
ATOM     42  H5  UNL     1      -0.874  -5.980   0.729  1.00  0.00     0.217 HD
ENDBRANCH   4  41
TORSDOF 15
