REMARK  12 active torsions:
REMARK  status: ('A' for Active; 'I' for Inactive)
REMARK    1  A    between atoms: N4_8  and  C3_9 
REMARK    2  A    between atoms: C4_14  and  N7_15 
REMARK       I    between atoms: N7_15  and  C5_17 
REMARK       I    between atoms: C5_17  and  N8_19 
REMARK    3  A    between atoms: N8_19  and  N9_21 
REMARK    4  A    between atoms: C6_23  and  C7_24 
REMARK    5  A    between atoms: C9_26  and  O2_27 
REMARK    6  A    between atoms: C10_29  and  O3_30 
REMARK    7  A    between atoms: C11_32  and  O4_33 
REMARK    8  A    between atoms: N10_36  and  C13_37 
REMARK    9  A    between atoms: C13_37  and  C14_38 
REMARK   10  A    between atoms: C14_38  and  C15_40 
REMARK   11  A    between atoms: C15_40  and  O6_41 
REMARK   12  A    between atoms: C15_40  and  O7_43 
ROOT
HETATM    1  C3  UNL     1      -3.386   0.562   1.274  1.00  0.00     0.738 A 
HETATM    2  N5  UNL     1      -2.349   0.825   2.122  1.00  0.00    -0.115 N 
ATOM      3  H5  UNL     1      -2.430   1.257   3.043  1.00  0.00     0.206 HD
HETATM    4  N6  UNL     1      -1.225   0.429   1.555  1.00  0.00    -0.117 N 
ATOM      5  H6  UNL     1      -0.289   0.499   1.954  1.00  0.00     0.206 HD
HETATM    6  C4  UNL     1      -1.541  -0.079   0.364  1.00  0.00     0.718 A 
HETATM    7  N10 UNL     1      -2.881  -0.004   0.173  1.00  0.00    -0.002 N 
ENDROOT
BRANCH   6   8
HETATM    8  N7  UNL     1      -0.726  -0.570  -0.492  1.00  0.00    -0.138 N 
HETATM    9  C5  UNL     1       0.667  -0.609  -0.212  1.00  0.00     0.353 C 
HETATM   10  O1  UNL     1       1.285  -1.694  -0.115  1.00  0.00    -0.245 OA
HETATM   11  N8  UNL     1       1.351   0.620  -0.043  1.00  0.00    -0.251 N 
ATOM     12  H8  UNL     1       0.854   1.507  -0.121  1.00  0.00     0.191 HD
ATOM     13  H7  UNL     1      -1.077  -0.934  -1.378  1.00  0.00     0.189 HD
BRANCH  11  14
HETATM   14  N9  UNL     1       2.717   0.593   0.232  1.00  0.00    -0.307 N 
HETATM   15  C6  UNL     1       3.597   0.230  -0.653  1.00  0.00     0.118 C 
ATOM     16  H9  UNL     1       3.037   0.868   1.161  1.00  0.00     0.186 HD
BRANCH  15  17
HETATM   17  C7  UNL     1       4.993   0.233  -0.277  1.00  0.00    -0.014 A 
HETATM   18  C8  UNL     1       5.934  -0.148  -1.203  1.00  0.00     0.052 A 
HETATM   19  C9  UNL     1       7.280  -0.160  -0.885  1.00  0.00     0.102 A 
HETATM   20  C10 UNL     1       7.647   0.223   0.387  1.00  0.00     0.132 A 
HETATM   21  C11 UNL     1       6.722   0.612   1.341  1.00  0.00     0.102 A 
HETATM   22  C12 UNL     1       5.395   0.605   0.971  1.00  0.00     0.052 A 
BRANCH  19  23
HETATM   23  O2  UNL     1       8.263  -0.545  -1.810  1.00  0.00    -0.358 OA
ATOM     24  H2  UNL     1       9.188  -0.553  -1.592  1.00  0.00     0.217 HD
ENDBRANCH  19  23
BRANCH  20  25
HETATM   25  O3  UNL     1       8.971   0.235   0.770  1.00  0.00    -0.356 OA
ATOM     26  H3  UNL     1       9.224   0.499   1.647  1.00  0.00     0.218 HD
ENDBRANCH  20  25
BRANCH  21  27
HETATM   27  O4  UNL     1       7.054   0.999   2.617  1.00  0.00    -0.358 OA
ATOM     28  H4  UNL     1       6.419   1.266   3.272  1.00  0.00     0.217 HD
ENDBRANCH  21  27
ENDBRANCH  15  17
ENDBRANCH  11  14
ENDBRANCH   6   8
BRANCH   7  29
HETATM   29  C13 UNL     1      -3.568  -0.466  -1.015  1.00  0.00     0.250 C 
BRANCH  29  30
HETATM   30  C14 UNL     1      -3.950  -1.888  -0.830  1.00  0.00     0.200 C 
HETATM   31  O5  UNL     1      -3.683  -2.472   0.187  1.00  0.00    -0.291 OA
BRANCH  30  32
HETATM   32  C15 UNL     1      -4.671  -2.599  -1.912  1.00  0.00     0.327 C 
BRANCH  32  33
HETATM   33  O6  UNL     1      -4.931  -3.911  -1.535  1.00  0.00    -0.365 OA
ATOM     34  H6  UNL     1      -5.393  -4.367  -2.229  1.00  0.00     0.213 HD
ENDBRANCH  32  33
BRANCH  32  35
HETATM   35  O7  UNL     1      -5.915  -1.956  -2.053  1.00  0.00    -0.365 OA
ATOM     36  H7  UNL     1      -6.377  -2.412  -2.747  1.00  0.00     0.213 HD
ENDBRANCH  32  35
ENDBRANCH  30  32
ENDBRANCH  29  30
ENDBRANCH   7  29
BRANCH   1  37
HETATM   37  N4  UNL     1      -4.779   0.843   1.521  1.00  0.00    -0.054 N 
HETATM   38  C1  UNL     1      -5.415   1.882   0.987  1.00  0.00     0.174 A 
HETATM   39  N1  UNL     1      -4.892   2.887   0.105  1.00  0.00    -0.079 NA
HETATM   40  C2  UNL     1      -6.718   1.849   1.429  1.00  0.00     0.156 A 
HETATM   41  N2  UNL     1      -6.796   0.771   2.220  1.00  0.00    -0.293 N 
HETATM   42  N3  UNL     1      -5.624   0.182   2.262  1.00  0.00    -0.220 N 
ATOM     43  H2  UNL     1      -7.633   0.458   2.712  1.00  0.00     0.187 HD
ATOM     44  H3  UNL     1      -5.408  -0.662   2.792  1.00  0.00     0.209 HD
ENDBRANCH   1  37
TORSDOF 12
