REMARK  11 active torsions:
REMARK  status: ('A' for Active; 'I' for Inactive)
REMARK    1  A    between atoms: N1_2  and  C3_4 
REMARK    2  A    between atoms: C4_7  and  N3_8 
REMARK    3  A    between atoms: N3_8  and  N4_10 
REMARK    4  A    between atoms: N4_10  and  C5_12 
REMARK    5  A    between atoms: C6_13  and  O1_14 
REMARK    6  A    between atoms: N5_17  and  O2_19 
REMARK    7  A    between atoms: O2_19  and  C8_20 
REMARK    8  A    between atoms: C11_28  and  O4_29 
REMARK    9  A    between atoms: C12_31  and  O5_33 
REMARK   10  A    between atoms: C14_35  and  N8_36 
REMARK   11  A    between atoms: C15_39  and  N9_40 
ROOT
HETATM    1  C5  UNL     1       0.021  -0.593  -0.502  1.00  0.00     0.170 C 
HETATM    2  C6  UNL     1       1.294  -0.994  -1.222  1.00  0.00     0.195 C 
HETATM    3  C7  UNL     1       2.409  -0.445  -0.371  1.00  0.00     0.072 C 
HETATM    4  N5  UNL     1       3.553  -0.957  -0.248  1.00  0.00    -0.267 N 
ATOM      5  H5  UNL     1       3.721  -1.815  -0.773  1.00  0.00     0.194 HD
HETATM    6  C11 UNL     1       1.846   0.764   0.245  1.00  0.00     0.204 C 
HETATM    7  C12 UNL     1       0.428   0.347   0.581  1.00  0.00     0.110 C 
HETATM    8  C13 UNL     1       0.373  -0.259   1.968  1.00  0.00     0.051 C 
ENDROOT
BRANCH   1   9
HETATM    9  N4  UNL     1      -0.642  -1.765  -0.084  1.00  0.00    -0.324 N 
ATOM     10  H4  UNL     1      -0.217  -2.674  -0.265  1.00  0.00     0.180 HD
BRANCH   9  11
HETATM   11  N3  UNL     1      -1.828  -1.701   0.550  1.00  0.00    -0.287 N 
ATOM     12  H3  UNL     1      -1.889  -2.076   1.497  1.00  0.00     0.188 HD
BRANCH  11  13
HETATM   13  C4  UNL     1      -3.002  -1.139  -0.028  1.00  0.00     0.161 A 
HETATM   14  N2  UNL     1      -3.618  -0.060   0.459  1.00  0.00    -0.305 N 
HETATM   15  C3  UNL     1      -4.716   0.414  -0.153  1.00  0.00     0.229 A 
ATOM     16  H2  UNL     1      -3.257   0.403   1.293  1.00  0.00     0.171 HD
HETATM   17  O8  UNL     1      -5.207  -0.169  -1.236  1.00  0.00    -0.260 OA
HETATM   18  C15 UNL     1      -4.649  -1.231  -1.762  1.00  0.00     0.182 A 
HETATM   19  C14 UNL     1      -3.524  -1.734  -1.154  1.00  0.00     0.198 A 
BRANCH  15  20
HETATM   20  N1  UNL     1      -5.409   1.558   0.323  1.00  0.00    -0.356 N 
HETATM   21  C1  UNL     1      -5.074   2.859  -0.188  1.00  0.00     0.152 C 
HETATM   22  C2  UNL     1      -6.445   1.407   1.311  1.00  0.00     0.152 C 
ENDBRANCH  15  20
BRANCH  18  23
HETATM   23  N9  UNL     1      -5.151  -1.794  -2.837  1.00  0.00    -0.378 N 
ATOM     24  H92 UNL     1      -4.716  -2.621  -3.247  1.00  0.00     0.158 HD
ATOM     25  H91 UNL     1      -5.986  -1.421  -3.288  1.00  0.00     0.158 HD
ENDBRANCH  18  23
BRANCH  19  26
HETATM   26  N8  UNL     1      -2.933  -2.891  -1.749  1.00  0.00    -0.107 N 
HETATM   27  O6  UNL     1      -2.991  -4.032  -1.313  1.00  0.00    -0.531 OA
HETATM   28  O7  UNL     1      -2.237  -2.665  -2.935  1.00  0.00    -0.531 OA
ENDBRANCH  19  26
ENDBRANCH  11  13
ENDBRANCH   9  11
ENDBRANCH   1   9
BRANCH   2  29
HETATM   29  O1  UNL     1       1.403  -2.344  -1.442  1.00  0.00    -0.387 OA
ATOM     30  H1  UNL     1       2.200  -2.595  -1.893  1.00  0.00     0.210 HD
ENDBRANCH   2  29
BRANCH   7  31
HETATM   31  O5  UNL     1      -0.341   1.535   0.554  1.00  0.00    -0.385 OA
ATOM     32  H5  UNL     1      -0.082   2.134   1.244  1.00  0.00     0.210 HD
ENDBRANCH   7  31
BRANCH   6  33
HETATM   33  O4  UNL     1       2.532   1.196   1.381  1.00  0.00    -0.387 OA
ATOM     34  H4  UNL     1       2.168   1.978   1.779  1.00  0.00     0.210 HD
ENDBRANCH   6  33
BRANCH   4  35
HETATM   35  O2  UNL     1       4.576  -0.506   0.493  1.00  0.00    -0.253 OA
BRANCH  35  36
HETATM   36  C8  UNL     1       5.678   0.127  -0.154  1.00  0.00     0.272 C 
HETATM   37  C9  UNL     1       6.037   1.451   0.424  1.00  0.00     0.180 C 
HETATM   38  N6  UNL     1       7.376   1.255   0.982  1.00  0.00    -0.339 N 
HETATM   39  C10 UNL     1       7.928   0.087   0.367  1.00  0.00     0.318 C 
ATOM     40  H6  UNL     1       7.831   1.843   1.680  1.00  0.00     0.164 HD
HETATM   41  O3  UNL     1       9.136  -0.167   0.226  1.00  0.00    -0.247 OA
HETATM   42  N7  UNL     1       6.855  -0.727  -0.050  1.00  0.00    -0.313 N 
ATOM     43  H7  UNL     1       6.895  -1.728  -0.243  1.00  0.00     0.167 HD
ENDBRANCH  35  36
ENDBRANCH   4  35
TORSDOF 11
