REMARK  7 active torsions:
REMARK  status: ('A' for Active; 'I' for Inactive)
REMARK    1  A    between atoms: O1_1  and  C1_3 
REMARK    2  A    between atoms: C1_3  and  C2_4 
REMARK    3  A    between atoms: C4_8  and  C5_9 
REMARK    4  A    between atoms: C5_9  and  O4_10 
REMARK    5  A    between atoms: C6_12  and  O5_13 
REMARK    6  A    between atoms: C8_17  and  C9_18 
REMARK    7  A    between atoms: C9_18  and  O7_19 
ROOT
HETATM    1  C2  UNL     1      -1.878   0.739  -0.199  1.00  0.00     0.179 C 
HETATM    2  O2  UNL     1      -0.918   1.033   0.767  1.00  0.00    -0.348 OA
HETATM    3  C3  UNL     1       0.299   1.060   0.128  1.00  0.00     0.292 C 
HETATM    4  O3  UNL     1       1.361   0.787   1.003  1.00  0.00    -0.348 OA
HETATM    5  C4  UNL     1       2.438   0.545   0.146  1.00  0.00     0.179 C 
HETATM    6  C6  UNL     1       1.817  -0.457  -0.817  1.00  0.00     0.183 C 
HETATM    7  C7  UNL     1       0.456   0.211  -1.063  1.00  0.00     0.208 C 
HETATM    8  O6  UNL     1      -0.451  -0.750  -1.317  1.00  0.00    -0.368 OA
HETATM    9  C8  UNL     1      -1.641  -0.679  -0.613  1.00  0.00     0.176 C 
ENDROOT
BRANCH   1  10
HETATM   10  C1  UNL     1      -3.263   1.067   0.234  1.00  0.00     0.198 C 
BRANCH  10  11
HETATM   11  O1  UNL     1      -3.298   2.456   0.502  1.00  0.00    -0.398 OA
ATOM     12  H1  UNL     1      -4.182   2.665   0.778  1.00  0.00     0.209 HD
ENDBRANCH  10  11
ENDBRANCH   1  10
BRANCH   9  13
HETATM   13  C9  UNL     1      -1.473  -1.592   0.584  1.00  0.00     0.198 C 
BRANCH  13  14
HETATM   14  O7  UNL     1      -2.580  -1.646   1.404  1.00  0.00    -0.398 OA
ATOM     15  H7  UNL     1      -2.475  -2.219   2.155  1.00  0.00     0.209 HD
ENDBRANCH  13  14
ENDBRANCH   9  13
BRANCH   5  16
HETATM   16  C5  UNL     1       3.591  -0.074   0.900  1.00  0.00     0.198 C 
BRANCH  16  17
HETATM   17  O4  UNL     1       3.159  -1.273   1.450  1.00  0.00    -0.398 OA
ATOM     18  H4  UNL     1       3.884  -1.662   1.924  1.00  0.00     0.209 HD
ENDBRANCH  16  17
ENDBRANCH   5  16
BRANCH   6  19
HETATM   19  O5  UNL     1       2.528  -0.597  -1.978  1.00  0.00    -0.390 OA
ATOM     20  H5  UNL     1       2.140  -1.222  -2.579  1.00  0.00     0.210 HD
ENDBRANCH   6  19
TORSDOF 7
