REMARK  0 active torsions:
REMARK  status: ('A' for Active; 'I' for Inactive)
ROOT
HETATM    1  C1  UNL     1       2.427  -0.083  -1.420  1.00  0.00     0.065 C 
HETATM    2  C2  UNL     1       1.422   0.104  -0.349  1.00  0.00     0.004 C 
HETATM    3  N1  UNL     1       0.225  -0.147  -0.709  1.00  0.00    -0.386 N 
ATOM      4  H1  UNL     1       0.157  -0.439  -1.684  1.00  0.00     0.160 HD
HETATM    5  C3  UNL     1      -1.033  -0.111  -0.056  1.00  0.00     0.032 C 
HETATM    6  C4  UNL     1      -2.097  -0.335  -1.143  1.00  0.00     0.039 C 
HETATM    7  C5  UNL     1      -1.336   1.221   0.565  1.00  0.00     0.039 C 
HETATM    8  C6  UNL     1      -1.236  -1.267   0.903  1.00  0.00     0.116 C 
HETATM    9  S1  UNL     1      -0.408  -1.050   2.471  1.00  0.00    -0.094 SA
HETATM   10  S2  UNL     1       1.701  -0.888   2.107  1.00  0.00    -0.075 SA
HETATM   11  C7  UNL     1       1.873   0.540   0.965  1.00  0.00     0.174 C 
HETATM   12 BR1  UNL     1       3.695   1.181   0.966  1.00  0.00    -0.072 Br
ENDROOT
TORSDOF 0
