REMARK  6 active torsions:
REMARK  status: ('A' for Active; 'I' for Inactive)
REMARK    1  A    between atoms: O1_2  and  C2_3 
REMARK    2  A    between atoms: C6_7  and  O2_8 
REMARK    3  A    between atoms: C7_10  and  O3_11 
REMARK    4  A    between atoms: C14_18  and  O4_19 
REMARK    5  A    between atoms: C16_21  and  O5_22 
REMARK    6  A    between atoms: C18_24  and  O6_25 
ROOT
HETATM    1  C2  UNL     1       4.688   0.103  -0.066  1.00  0.00     0.106 A 
HETATM    2  C3  UNL     1       3.986   0.740  -1.076  1.00  0.00     0.069 A 
HETATM    3  C4  UNL     1       2.620   0.629  -1.216  1.00  0.00     0.040 A 
HETATM    4  C5  UNL     1       1.935  -0.150  -0.305  1.00  0.00     0.011 A 
HETATM    5  C6  UNL     1       2.641  -0.790   0.707  1.00  0.00     0.111 A 
HETATM    6  C7  UNL     1       4.011  -0.690   0.861  1.00  0.00     0.135 A 
HETATM    7  C9  UNL     1       0.499  -0.051  -0.689  1.00  0.00     0.051 C 
HETATM    8  C10 UNL     1      -0.358  -1.177  -0.260  1.00  0.00     0.053 C 
HETATM    9  C11 UNL     1      -1.790  -0.801  -0.441  1.00  0.00    -0.015 A 
HETATM   10  C12 UNL     1      -2.365  -0.448  -1.645  1.00  0.00    -0.046 A 
HETATM   11  C13 UNL     1      -3.700  -0.130  -1.694  1.00  0.00     0.047 A 
HETATM   12  C14 UNL     1      -4.442  -0.171  -0.518  1.00  0.00     0.104 A 
HETATM   13  C16 UNL     1      -3.893  -0.518   0.692  1.00  0.00     0.135 A 
HETATM   14  C18 UNL     1      -2.545  -0.837   0.722  1.00  0.00     0.111 A 
HETATM   15  C20 UNL     1      -1.674  -0.338  -2.977  1.00  0.00     0.041 C 
HETATM   16  C21 UNL     1      -0.572   0.725  -2.860  1.00  0.00     0.030 C 
HETATM   17  C22 UNL     1       0.609   0.153  -2.183  1.00  0.00     0.091 C 
HETATM   18  N1  UNL     1       1.691   1.165  -2.173  1.00  0.00    -0.384 N 
ATOM     19  H1  UNL     1       1.760   2.028  -2.712  1.00  0.00     0.160 HD
ENDROOT
BRANCH   1  20
HETATM   20  O1  UNL     1       6.060   0.226   0.057  1.00  0.00    -0.353 OA
HETATM   21  C1  UNL     1       6.728   1.034  -0.891  1.00  0.00     0.210 C 
ENDBRANCH   1  20
BRANCH   6  22
HETATM   22  O3  UNL     1       4.751  -1.298   1.838  1.00  0.00    -0.351 OA
HETATM   23  C8  UNL     1       5.006  -0.825   3.121  1.00  0.00     0.210 C 
ENDBRANCH   6  22
BRANCH   5  24
HETATM   24  O2  UNL     1       1.984  -1.589   1.646  1.00  0.00    -0.357 OA
ATOM     25  H2  UNL     1       2.467  -2.026   2.338  1.00  0.00     0.217 HD
ENDBRANCH   5  24
BRANCH  14  26
HETATM   26  O6  UNL     1      -1.960  -1.188   1.914  1.00  0.00    -0.352 OA
HETATM   27  C19 UNL     1      -1.375  -0.249   2.806  1.00  0.00     0.210 C 
ENDBRANCH  14  26
BRANCH  13  28
HETATM   28  O5  UNL     1      -4.647  -0.557   1.867  1.00  0.00    -0.351 OA
HETATM   29  C17 UNL     1      -4.726   0.632   2.642  1.00  0.00     0.210 C 
ENDBRANCH  13  28
BRANCH  12  30
HETATM   30  O4  UNL     1      -5.781   0.159  -0.622  1.00  0.00    -0.353 OA
HETATM   31  C15 UNL     1      -6.405   0.512  -1.817  1.00  0.00     0.210 C 
ENDBRANCH  12  30
TORSDOF 6
