REMARK  6 active torsions:
REMARK  status: ('A' for Active; 'I' for Inactive)
REMARK    1  A    between atoms: O1_2  and  C2_3 
REMARK    2  A    between atoms: C7_8  and  O2_9 
REMARK    3  A    between atoms: C10_13  and  C11_14 
REMARK    4  A    between atoms: C16_21  and  O3_22 
REMARK    5  A    between atoms: C18_24  and  O4_25 
REMARK    6  A    between atoms: C20_27  and  O5_28 
ROOT
HETATM    1  C11 UNL     1      -0.399  -1.654  -0.175  1.00  0.00     0.143 C 
HETATM    2  N1  UNL     1       0.202  -2.374   0.909  1.00  0.00    -0.410 N 
ATOM      3  H1  UNL     1       1.197  -2.599   0.905  1.00  0.00     0.154 HD
HETATM    4  C12 UNL     1      -0.635  -2.765   1.991  1.00  0.00     0.119 C 
HETATM    5  C13 UNL     1      -1.089  -1.454   2.649  1.00  0.00     0.058 C 
HETATM    6  C14 UNL     1      -1.792  -0.644   1.590  1.00  0.00    -0.043 A 
HETATM    7  C15 UNL     1      -2.788   0.190   2.013  1.00  0.00     0.047 A 
HETATM    8  C16 UNL     1      -3.525   0.943   1.122  1.00  0.00     0.104 A 
HETATM    9  C18 UNL     1      -3.239   0.840  -0.219  1.00  0.00     0.135 A 
HETATM   10  C20 UNL     1      -2.230  -0.006  -0.639  1.00  0.00     0.113 A 
HETATM   11  C22 UNL     1      -1.468  -0.779   0.258  1.00  0.00     0.009 A 
ENDROOT
BRANCH   1  12
HETATM   12  C10 UNL     1       0.769  -0.942  -0.867  1.00  0.00     0.156 C 
HETATM   13  C9  UNL     1       1.698  -1.897  -1.520  1.00  0.00     0.039 C 
HETATM   14  C8  UNL     1       2.940  -2.130  -0.737  1.00  0.00     0.044 C 
HETATM   15  C5  UNL     1       3.588  -0.822  -0.462  1.00  0.00    -0.022 A 
HETATM   16  C4  UNL     1       2.781   0.247  -0.054  1.00  0.00     0.078 A 
HETATM   17  C6  UNL     1       4.931  -0.560  -0.572  1.00  0.00     0.049 A 
HETATM   18  C3  UNL     1       3.295   1.493   0.223  1.00  0.00     0.077 A 
HETATM   19  O6  UNL     1       1.431  -0.087   0.039  1.00  0.00    -0.343 OA
HETATM   20  C2  UNL     1       4.644   1.745   0.108  1.00  0.00     0.103 A 
HETATM   21  C7  UNL     1       5.452   0.705  -0.292  1.00  0.00     0.099 A 
BRANCH  20  22
HETATM   22  O1  UNL     1       5.190   3.006   0.384  1.00  0.00    -0.353 OA
HETATM   23  C1  UNL     1       4.417   4.094   0.793  1.00  0.00     0.210 C 
ENDBRANCH  20  22
BRANCH  21  24
HETATM   24  O2  UNL     1       6.822   0.924  -0.418  1.00  0.00    -0.358 OA
ATOM     25  H2  UNL     1       7.380   0.206  -0.694  1.00  0.00     0.217 HD
ENDBRANCH  21  24
ENDBRANCH   1  12
BRANCH  10  26
HETATM   26  O5  UNL     1      -1.987  -0.076  -1.989  1.00  0.00    -0.352 OA
HETATM   27  C21 UNL     1      -2.594  -0.968  -2.882  1.00  0.00     0.210 C 
ENDBRANCH  10  26
BRANCH   9  28
HETATM   28  O4  UNL     1      -3.951   1.575  -1.161  1.00  0.00    -0.351 OA
HETATM   29  C19 UNL     1      -5.126   1.102  -1.783  1.00  0.00     0.210 C 
ENDBRANCH   9  28
BRANCH   8  30
HETATM   30  O3  UNL     1      -4.543   1.802   1.508  1.00  0.00    -0.353 OA
HETATM   31  C17 UNL     1      -4.926   1.991   2.853  1.00  0.00     0.210 C 
ENDBRANCH   8  30
TORSDOF 6
