REMARK  7 active torsions:
REMARK  status: ('A' for Active; 'I' for Inactive)
REMARK    1  A    between atoms: C4_8  and  C5_9 
REMARK    2  A    between atoms: C5_9  and  N3_10 
REMARK    3  A    between atoms: N3_10  and  C6_12 
REMARK    4  A    between atoms: C6_12  and  C7_13 
REMARK    5  A    between atoms: C7_13  and  C8_14 
REMARK    6  A    between atoms: C8_14  and  C9_15 
REMARK    7  A    between atoms: C9_15  and  N4_16 
ROOT
HETATM    1  N3  UNL     1      -0.192  -0.054   0.008  1.00  0.00    -0.417 N 
ATOM      2  H3  UNL     1       0.299   0.534   0.681  1.00  0.00     0.153 HD
ENDROOT
BRANCH   1   3
HETATM    3  C5  UNL     1      -1.222   0.454  -0.839  1.00  0.00     0.179 C 
BRANCH   3   4
HETATM    4  C4  UNL     1      -2.536  -0.102  -0.478  1.00  0.00     0.435 C 
HETATM    5  N1  UNL     1      -3.028   0.145   0.835  1.00  0.00     0.118 N 
HETATM    6  C1  UNL     1      -3.376   1.530   1.078  1.00  0.00     0.312 C 
HETATM    7  C2  UNL     1      -4.326  -0.557   0.774  1.00  0.00     0.302 C 
HETATM    8  C3  UNL     1      -4.781  -0.199  -0.619  1.00  0.00     0.265 C 
HETATM    9  N2  UNL     1      -3.627   0.326  -1.324  1.00  0.00    -0.040 N 
ATOM     10  H22 UNL     1      -3.552   0.043  -2.301  1.00  0.00     0.279 HD
ATOM     11  H21 UNL     1      -3.657   1.327  -1.516  1.00  0.00     0.279 HD
ENDBRANCH   3   4
ENDBRANCH   1   3
BRANCH   1  12
HETATM   12  C6  UNL     1       0.103  -1.429  -0.149  1.00  0.00     0.114 C 
BRANCH  12  13
HETATM   13  C7  UNL     1       1.217  -1.909   0.701  1.00  0.00     0.021 C 
BRANCH  13  14
HETATM   14  C8  UNL     1       2.565  -1.331   0.480  1.00  0.00     0.025 C 
BRANCH  14  15
HETATM   15  C9  UNL     1       2.661   0.133   0.695  1.00  0.00     0.169 C 
BRANCH  15  16
HETATM   16  N4  UNL     1       4.043   0.582   0.493  1.00  0.00    -0.235 N 
HETATM   17  N5  UNL     1       4.981   0.664   1.408  1.00  0.00    -0.294 N 
HETATM   18  C10 UNL     1       6.128   1.109   0.883  1.00  0.00     0.127 A 
ATOM     19  H5  UNL     1       4.852   0.420   2.390  1.00  0.00     0.187 HD
HETATM   20  C11 UNL     1       5.865   1.313  -0.450  1.00  0.00     0.127 A 
HETATM   21  N6  UNL     1       4.582   0.975  -0.626  1.00  0.00    -0.294 N 
ATOM     22  H6  UNL     1       4.091   1.019  -1.519  1.00  0.00     0.187 HD
ENDBRANCH  15  16
ENDBRANCH  14  15
ENDBRANCH  13  14
ENDBRANCH  12  13
ENDBRANCH   1  12
TORSDOF 7
