REMARK  6 active torsions:
REMARK  status: ('A' for Active; 'I' for Inactive)
REMARK    1  A    between atoms: C2_2  and  C5_5 
REMARK    2  A    between atoms: C5_5  and  O2_7 
REMARK    3  A    between atoms: O2_7  and  C6_8 
REMARK    4  A    between atoms: C6_8  and  C7_9 
REMARK    5  A    between atoms: C7_9  and  C8_10 
REMARK    6  A    between atoms: C8_10  and  C9_11 
ROOT
HETATM    1  C6  UNL     1       0.553   1.000   0.013  1.00  0.00     0.075 C 
HETATM    2  C10 UNL     1       0.718   2.121   1.104  1.00  0.00     0.039 C 
HETATM    3  C11 UNL     1      -0.554   2.849   1.299  1.00  0.00     0.004 C 
HETATM    4  C12 UNL     1      -1.597   2.020   2.015  1.00  0.00     0.010 C 
HETATM    5  C13 UNL     1      -1.438   0.562   1.569  1.00  0.00    -0.037 C 
HETATM    6  C14 UNL     1      -0.735  -0.143   2.653  1.00  0.00     0.015 C 
HETATM    7  C15 UNL     1      -2.850   0.028   1.523  1.00  0.00     0.010 C 
HETATM    8  C16 UNL     1      -3.580   0.106   0.260  1.00  0.00     0.006 C 
HETATM    9  C17 UNL     1      -2.827  -0.197  -0.990  1.00  0.00    -0.010 C 
HETATM   10  C18 UNL     1      -3.470  -1.136  -1.936  1.00  0.00     0.005 C 
HETATM   11  C19 UNL     1      -2.907  -2.529  -1.918  1.00  0.00     0.000 C 
HETATM   12  C20 UNL     1      -2.430  -2.848  -0.531  1.00  0.00     0.000 C 
HETATM   13  C21 UNL     1      -1.242  -1.948  -0.166  1.00  0.00     0.005 C 
HETATM   14  C22 UNL     1      -1.357  -0.560  -0.669  1.00  0.00    -0.003 C 
HETATM   15  C23 UNL     1      -0.857   0.551   0.199  1.00  0.00     0.033 C 
ENDROOT
BRANCH   1  16
HETATM   16  O2  UNL     1       1.601   0.192   0.319  1.00  0.00    -0.309 OA
BRANCH  16  17
HETATM   17  C5  UNL     1       2.283  -0.776  -0.307  1.00  0.00     0.267 C 
HETATM   18  O1  UNL     1       1.915  -1.016  -1.475  1.00  0.00    -0.264 OA
BRANCH  17  19
HETATM   19  C2  UNL     1       3.416  -1.543   0.315  1.00  0.00     0.037 C 
HETATM   20  C1  UNL     1       4.540  -0.624   0.714  1.00  0.00     0.025 C 
HETATM   21  C3  UNL     1       3.968  -2.501  -0.728  1.00  0.00     0.025 C 
HETATM   22  C4  UNL     1       2.950  -2.359   1.494  1.00  0.00     0.025 C 
ENDBRANCH  17  19
ENDBRANCH  16  17
ENDBRANCH   1  16
BRANCH   1  23
HETATM   23  C7  UNL     1       0.684   1.795  -1.264  1.00  0.00     0.040 C 
BRANCH  23  24
HETATM   24  C8  UNL     1       1.802   2.745  -1.403  1.00  0.00     0.018 C 
BRANCH  24  25
HETATM   25  C9  UNL     1       1.685   3.349  -2.836  1.00  0.00     0.115 C 
HETATM   26 CL1  UNL     1       0.125   4.159  -2.966  1.00  0.00    -0.130 Cl
ENDBRANCH  24  25
ENDBRANCH  23  24
ENDBRANCH   1  23
TORSDOF 6
