REMARK  3 active torsions:
REMARK  status: ('A' for Active; 'I' for Inactive)
REMARK       I    between atoms: C1_2  and  N1_3 
REMARK       I    between atoms: C1_2  and  N3_20 
REMARK    1  A    between atoms: N1_3  and  C2_5 
REMARK       I    between atoms: N2_12  and  C9_13 
REMARK    2  A    between atoms: C9_13  and  C10_15 
REMARK    3  A    between atoms: C18_24  and  O3_25 
ROOT
HETATM    1  C2  UNL     1      -0.497   1.404   0.695  1.00  0.00     0.092 C 
HETATM    2  C3  UNL     1       0.467   1.509   1.849  1.00  0.00     0.028 C 
HETATM    3  C4  UNL     1       1.373   0.302   1.757  1.00  0.00     0.028 C 
HETATM    4  C5  UNL     1       1.128  -0.358   0.445  1.00  0.00     0.093 C 
HETATM    5  C6  UNL     1       0.159   0.490  -0.311  1.00  0.00     0.033 C 
HETATM    6  C7  UNL     1       1.105   1.264  -1.239  1.00  0.00     0.028 C 
HETATM    7  C8  UNL     1       1.999   0.084  -1.662  1.00  0.00     0.127 C 
HETATM    8  N2  UNL     1       2.334  -0.467  -0.384  1.00  0.00    -0.347 N 
HETATM    9  C9  UNL     1       3.540  -1.021   0.032  1.00  0.00     0.224 C 
HETATM   10  O2  UNL     1       3.590  -1.489   1.231  1.00  0.00    -0.273 OA
ENDROOT
BRANCH   1  11
HETATM   11  N1  UNL     1      -1.754   0.800   1.086  1.00  0.00    -0.338 N 
HETATM   12  C1  UNL     1      -3.010   1.407   0.907  1.00  0.00     0.318 C 
HETATM   13  O1  UNL     1      -3.058   2.541   0.379  1.00  0.00    -0.247 OA
HETATM   14  N3  UNL     1      -4.209   0.784   1.301  1.00  0.00    -0.332 N 
HETATM   15  C15 UNL     1      -5.495   1.452   1.105  1.00  0.00     0.127 C 
HETATM   16  C19 UNL     1      -4.267  -0.528   1.912  1.00  0.00     0.159 C 
HETATM   17  C16 UNL     1      -6.389   0.674   0.190  1.00  0.00     0.022 C 
HETATM   18  C17 UNL     1      -5.863  -0.742   0.101  1.00  0.00     0.035 C 
HETATM   19  C18 UNL     1      -5.564  -1.239   1.520  1.00  0.00     0.136 C 
ATOM     20  H1  UNL     1      -1.727  -0.123   1.518  1.00  0.00     0.164 HD
BRANCH  19  21
HETATM   21  O3  UNL     1      -5.338  -2.593   1.421  1.00  0.00    -0.394 OA
ATOM     22  H3  UNL     1      -5.153  -2.901   2.300  1.00  0.00     0.210 HD
ENDBRANCH  19  21
ENDBRANCH   1  11
BRANCH   9  23
HETATM   23  C10 UNL     1       4.777  -1.135  -0.739  1.00  0.00     0.078 C 
HETATM   24  C11 UNL     1       4.652  -1.749  -2.091  1.00  0.00     0.014 C 
HETATM   25  C12 UNL     1       5.562  -0.936  -3.023  1.00  0.00     0.001 C 
HETATM   26  C13 UNL     1       6.497  -0.204  -2.054  1.00  0.00     0.001 C 
HETATM   27  C14 UNL     1       5.476   0.177  -0.976  1.00  0.00     0.014 C 
ENDBRANCH   9  23
TORSDOF 3
