REMARK  4 active torsions:
REMARK  status: ('A' for Active; 'I' for Inactive)
REMARK    1  A    between atoms: C6_6  and  C7_7 
REMARK    2  A    between atoms: N1_10  and  C8_11 
REMARK    3  A    between atoms: C8_11  and  O3_12 
REMARK    4  A    between atoms: C8_11  and  C9_14 
REMARK       I    between atoms: N2_19  and  C14_20 
REMARK       I    between atoms: C14_20  and  N3_22 
ROOT
HETATM    1  C9  UNL     1       0.188  -1.770  -0.217  1.00  0.00     0.163 C 
HETATM    2  C10 UNL     1       0.652  -2.905   0.734  1.00  0.00     0.034 C 
HETATM    3  C11 UNL     1       0.630  -2.416   2.138  1.00  0.00     0.004 C 
HETATM    4  C12 UNL     1       1.114  -1.016   2.271  1.00  0.00     0.020 C 
HETATM    5  C13 UNL     1       1.872  -0.497   1.061  1.00  0.00     0.128 C 
HETATM    6  N2  UNL     1       1.210  -0.803  -0.186  1.00  0.00    -0.322 N 
HETATM    7  C14 UNL     1       1.633  -0.150  -1.354  1.00  0.00     0.321 C 
HETATM    8  O4  UNL     1       0.989  -0.509  -2.421  1.00  0.00    -0.247 OA
HETATM    9  N3  UNL     1       2.618   0.809  -1.567  1.00  0.00    -0.334 N 
HETATM   10  C15 UNL     1       3.516   1.428  -0.629  1.00  0.00     0.127 C 
HETATM   11  C16 UNL     1       4.577   2.174  -1.451  1.00  0.00     0.022 C 
HETATM   12  C17 UNL     1       4.461   1.496  -2.791  1.00  0.00     0.022 C 
HETATM   13  C18 UNL     1       2.933   1.386  -2.892  1.00  0.00     0.127 C 
ENDROOT
BRANCH   1  14
HETATM   14  C8  UNL     1      -1.199  -1.507   0.032  1.00  0.00     0.138 C 
BRANCH  14  15
HETATM   15  N1  UNL     1      -2.025  -0.417   0.175  1.00  0.00    -0.345 N 
HETATM   16  C2  UNL     1      -1.550   0.961   0.154  1.00  0.00     0.083 C 
HETATM   17  C1  UNL     1      -1.825   1.585  -1.200  1.00  0.00     0.032 C 
HETATM   18  C3  UNL     1      -2.418   1.776   1.146  1.00  0.00     0.025 C 
HETATM   19  C4  UNL     1      -2.919   0.946   2.288  1.00  0.00     0.004 C 
HETATM   20  C5  UNL     1      -3.774  -0.239   1.857  1.00  0.00     0.036 C 
HETATM   21  C6  UNL     1      -3.449  -0.483   0.389  1.00  0.00     0.187 C 
BRANCH  21  22
HETATM   22  C7  UNL     1      -4.252  -1.520  -0.162  1.00  0.00     0.196 C 
HETATM   23  O1  UNL     1      -5.363  -1.817   0.438  1.00  0.00    -0.646 OA
HETATM   24  O2  UNL     1      -4.046  -2.308  -1.296  1.00  0.00    -0.646 OA
ENDBRANCH  21  22
ENDBRANCH  14  15
BRANCH  14  25
HETATM   25  O3  UNL     1      -1.860  -2.656   0.151  1.00  0.00    -0.348 OA
ATOM     26  H3  UNL     1      -1.289  -3.409   0.052  1.00  0.00     0.219 HD
ENDBRANCH  14  25
ENDBRANCH   1  14
TORSDOF 4
