REMARK  10 active torsions:
REMARK  status: ('A' for Active; 'I' for Inactive)
REMARK    1  A    between atoms: C2_2  and  C3_3 
REMARK    2  A    between atoms: C3_3  and  C4_4 
REMARK    3  A    between atoms: C8_8  and  C9_9 
REMARK    4  A    between atoms: C12_17  and  O1_18 
REMARK       I    between atoms: N3_24  and  C16_25 
REMARK    5  A    between atoms: C16_25  and  C17_27 
REMARK    6  A    between atoms: C17_27  and  C18_28 
REMARK    7  A    between atoms: C17_27  and  N4_35 
REMARK    8  A    between atoms: C18_28  and  C19_29 
REMARK    9  A    between atoms: N4_35  and  S2_37 
REMARK   10  A    between atoms: S2_37  and  C25_40 
ROOT
HETATM    1  C4  UNL     1       1.821   0.512   1.426  1.00  0.00     0.011 C 
HETATM    2  C5  UNL     1       0.864   1.664   1.146  1.00  0.00     0.032 C 
HETATM    3  C6  UNL     1       0.051   1.044  -0.017  1.00  0.00     0.092 C 
HETATM    4  C7  UNL     1       0.952   1.130  -1.214  1.00  0.00     0.060 C 
HETATM    5  C8  UNL     1       1.776  -0.028  -1.448  1.00  0.00    -0.060 C 
HETATM    6  C14 UNL     1       1.790  -1.120  -0.396  1.00  0.00     0.061 C 
HETATM    7  C15 UNL     1       1.127  -0.702   0.870  1.00  0.00     0.096 C 
HETATM    8  N3  UNL     1      -0.228  -0.217   0.545  1.00  0.00    -0.340 N 
HETATM    9  C16 UNL     1      -1.399  -0.962   0.841  1.00  0.00     0.244 C 
HETATM   10  O2  UNL     1      -1.238  -2.120   1.378  1.00  0.00    -0.271 OA
ENDROOT
BRANCH   9  11
HETATM   11  C17 UNL     1      -2.793  -0.570   0.619  1.00  0.00     0.185 C 
BRANCH  11  12
HETATM   12  C18 UNL     1      -3.521  -1.187  -0.520  1.00  0.00     0.040 C 
BRANCH  12  13
HETATM   13  C19 UNL     1      -3.061  -1.059  -1.905  1.00  0.00    -0.012 C 
HETATM   14  C20 UNL     1      -4.115  -1.757  -2.829  1.00  0.00     0.005 C 
HETATM   15  C21 UNL     1      -3.990  -1.235  -4.228  1.00  0.00     0.000 C 
HETATM   16  C22 UNL     1      -2.511  -1.123  -4.544  1.00  0.00     0.000 C 
HETATM   17  C23 UNL     1      -1.836  -2.191  -3.715  1.00  0.00     0.000 C 
HETATM   18  C24 UNL     1      -1.833  -1.891  -2.238  1.00  0.00     0.005 C 
ENDBRANCH  12  13
ENDBRANCH  11  12
BRANCH  11  19
HETATM   19  N4  UNL     1      -3.469  -0.897   1.866  1.00  0.00    -0.302 N 
ATOM     20  H4  UNL     1      -3.446  -1.855   2.216  1.00  0.00     0.173 HD
BRANCH  19  21
HETATM   21  S2  UNL     1      -4.271   0.262   2.717  1.00  0.00     0.259 S 
HETATM   22  O3  UNL     1      -5.349   0.991   1.916  1.00  0.00    -0.201 OA
HETATM   23  O4  UNL     1      -4.895  -0.255   4.014  1.00  0.00    -0.201 OA
BRANCH  21  24
HETATM   24  C25 UNL     1      -3.171   1.524   3.221  1.00  0.00     0.082 A 
HETATM   25  C26 UNL     1      -2.446   1.503   4.386  1.00  0.00     0.028 A 
HETATM   26  C27 UNL     1      -1.604   2.523   4.780  1.00  0.00     0.047 A 
HETATM   27  C28 UNL     1      -1.450   3.650   3.987  1.00  0.00     0.154 A 
HETATM   28  F2  UNL     1      -0.621   4.658   4.368  1.00  0.00    -0.203 F 
HETATM   29  C29 UNL     1      -2.166   3.692   2.815  1.00  0.00     0.156 A 
HETATM   30  F3  UNL     1      -2.037   4.775   2.023  1.00  0.00    -0.203 F 
HETATM   31  C30 UNL     1      -3.001   2.674   2.431  1.00  0.00     0.070 A 
ENDBRANCH  21  24
ENDBRANCH  19  21
ENDBRANCH  11  19
ENDBRANCH   9  11
BRANCH   1  32
HETATM   32  C3  UNL     1       2.051   0.396   2.918  1.00  0.00     0.006 C 
BRANCH  32  33
HETATM   33  C2  UNL     1       3.000  -0.739   3.193  1.00  0.00    -0.004 C 
HETATM   34  C1  UNL     1       3.198  -0.821   4.713  1.00  0.00     0.005 C 
ENDBRANCH  32  33
ENDBRANCH   1  32
BRANCH   5  35
HETATM   35  C9  UNL     1       3.184   0.120  -1.976  1.00  0.00     0.039 A 
HETATM   36  C10 UNL     1       3.699  -1.068  -2.558  1.00  0.00     0.102 A 
HETATM   37  N1  UNL     1       2.863  -2.243  -2.656  1.00  0.00    -0.093 NA
HETATM   38  S1  UNL     1       5.284  -1.026  -3.132  1.00  0.00    -0.054 SA
HETATM   39  C11 UNL     1       6.039   0.479  -2.919  1.00  0.00     0.106 A 
HETATM   40  N2  UNL     1       7.273   0.740  -3.290  1.00  0.00    -0.391 N 
HETATM   41  C12 UNL     1       5.248   1.417  -2.316  1.00  0.00     0.139 A 
ATOM     42  H22 UNL     1       7.863   0.040  -3.740  1.00  0.00     0.157 HD
ATOM     43  H21 UNL     1       7.727   1.645  -3.162  1.00  0.00     0.157 HD
HETATM   44  C13 UNL     1       3.940   1.241  -1.888  1.00  0.00     0.165 A 
HETATM   45  F1  UNL     1       3.450   2.397  -1.298  1.00  0.00    -0.202 F 
BRANCH  41  46
HETATM   46  O1  UNL     1       5.888   2.671  -2.143  1.00  0.00    -0.355 OA
ATOM     47  H1  UNL     1       5.338   3.323  -1.724  1.00  0.00     0.218 HD
ENDBRANCH  41  46
ENDBRANCH   5  35
TORSDOF 10
