REMARK  13 active torsions:
REMARK  status: ('A' for Active; 'I' for Inactive)
REMARK    1  A    between atoms: C2_2  and  C3_3 
REMARK    2  A    between atoms: C3_3  and  N1_4 
REMARK    3  A    between atoms: C4_5  and  O1_6 
REMARK    4  A    between atoms: C5_8  and  C6_9 
REMARK    5  A    between atoms: C12_18  and  N2_19 
REMARK       I    between atoms: N2_19  and  C13_21 
REMARK    6  A    between atoms: C13_21  and  C14_23 
REMARK    7  A    between atoms: C18_27  and  C19_28 
REMARK    8  A    between atoms: C19_28  and  N3_30 
REMARK    9  A    between atoms: C23_33  and  C24_34 
REMARK   10  A    between atoms: C24_34  and  C25_35 
REMARK   11  A    between atoms: C25_35  and  C26_36 
REMARK       I    between atoms: C26_36  and  N4_38 
REMARK   12  A    between atoms: N4_38  and  C27_40 
REMARK   13  A    between atoms: C30_43  and  O4_44 
ROOT
HETATM    1  N1  UNL     1      -2.918   2.790   0.360  1.00  0.00    -0.324 N 
HETATM    2  C4  UNL     1      -4.078   2.733  -0.319  1.00  0.00     0.156 A 
HETATM    3  C5  UNL     1      -4.528   1.395  -0.342  1.00  0.00     0.057 A 
HETATM    4  C12 UNL     1      -3.593   0.684   0.342  1.00  0.00     0.079 A 
HETATM    5  C18 UNL     1      -2.553   1.572   0.789  1.00  0.00     0.087 A 
ENDROOT
BRANCH   5   6
HETATM    6  C19 UNL     1      -1.245   1.152   1.369  1.00  0.00     0.036 C 
HETATM    7  C20 UNL     1      -1.168   1.122   2.864  1.00  0.00     0.071 C 
BRANCH   6   8
HETATM    8  N3  UNL     1      -0.308   0.503   0.575  1.00  0.00    -0.362 N 
HETATM    9  C21 UNL     1      -0.068  -0.848   0.485  1.00  0.00     0.064 C 
HETATM   10  C22 UNL     1       1.179  -1.361  -0.184  1.00  0.00     0.049 C 
HETATM   11  C23 UNL     1       2.068  -0.361  -0.780  1.00  0.00    -0.008 C 
HETATM   12  C33 UNL     1       1.354   0.985  -1.024  1.00  0.00     0.025 C 
HETATM   13  C34 UNL     1       0.884   1.333   0.397  1.00  0.00     0.128 C 
BRANCH  11  14
HETATM   14  C24 UNL     1       2.774  -0.669  -2.040  1.00  0.00     0.014 C 
BRANCH  14  15
HETATM   15  C25 UNL     1       3.738  -1.807  -2.092  1.00  0.00     0.103 C 
BRANCH  15  16
HETATM   16  C26 UNL     1       4.830  -1.702  -1.112  1.00  0.00     0.217 C 
HETATM   17  O3  UNL     1       4.665  -1.521   0.114  1.00  0.00    -0.274 OA
HETATM   18  N4  UNL     1       6.209  -1.786  -1.524  1.00  0.00    -0.356 N 
ATOM     19  H4  UNL     1       6.415  -1.929  -2.513  1.00  0.00     0.162 HD
BRANCH  18  20
HETATM   20  C27 UNL     1       7.320  -1.675  -0.590  1.00  0.00     0.084 C 
HETATM   21  C28 UNL     1       8.583  -1.653  -1.366  1.00  0.00     0.028 C 
HETATM   22  C29 UNL     1       9.809  -1.548  -0.522  1.00  0.00     0.034 C 
HETATM   23  C30 UNL     1       9.685  -0.456   0.476  1.00  0.00     0.118 C 
HETATM   24  C31 UNL     1       8.454   0.383   0.385  1.00  0.00     0.034 C 
HETATM   25  C32 UNL     1       7.179  -0.307   0.128  1.00  0.00     0.028 C 
BRANCH  23  26
HETATM   26  O4  UNL     1       9.856  -0.995   1.762  1.00  0.00    -0.396 OA
ATOM     27  H4  UNL     1       9.777  -0.296   2.401  1.00  0.00     0.210 HD
ENDBRANCH  23  26
ENDBRANCH  18  20
ENDBRANCH  15  16
ENDBRANCH  14  15
ENDBRANCH  11  14
ENDBRANCH   6   8
ENDBRANCH   5   6
BRANCH   1  28
HETATM   28  C3  UNL     1      -2.221   4.056   0.547  1.00  0.00     0.131 C 
BRANCH  28  29
HETATM   29  C2  UNL     1      -2.668   4.756   1.800  1.00  0.00     0.016 C 
HETATM   30  C1  UNL     1      -4.127   5.107   1.826  1.00  0.00     0.006 C 
ENDBRANCH  28  29
ENDBRANCH   1  28
BRANCH   4  31
HETATM   31  N2  UNL     1      -3.597  -0.653   0.731  1.00  0.00    -0.324 N 
HETATM   32  C13 UNL     1      -4.298  -1.785   0.387  1.00  0.00     0.230 C 
HETATM   33  O2  UNL     1      -5.173  -1.879  -0.477  1.00  0.00    -0.272 OA
ATOM     34  H2  UNL     1      -2.904  -0.840   1.455  1.00  0.00     0.169 HD
BRANCH  32  35
HETATM   35  C14 UNL     1      -4.049  -3.123   1.097  1.00  0.00     0.030 C 
HETATM   36  C15 UNL     1      -5.115  -4.116   0.722  1.00  0.00     0.025 C 
HETATM   37  C16 UNL     1      -4.019  -2.906   2.576  1.00  0.00     0.025 C 
HETATM   38  C17 UNL     1      -2.733  -3.632   0.569  1.00  0.00     0.025 C 
ENDBRANCH  32  35
ENDBRANCH   4  31
BRANCH   2  39
HETATM   39  O1  UNL     1      -4.775   3.775  -0.922  1.00  0.00    -0.345 OA
ATOM     40  H1  UNL     1      -5.594   3.735  -1.401  1.00  0.00     0.219 HD
ENDBRANCH   2  39
BRANCH   3  41
HETATM   41  C6  UNL     1      -5.778   1.048  -1.006  1.00  0.00     0.023 A 
HETATM   42  C7  UNL     1      -5.831   0.784  -2.359  1.00  0.00     0.019 A 
HETATM   43  C8  UNL     1      -7.061   0.543  -2.983  1.00  0.00     0.046 A 
HETATM   44  C9  UNL     1      -8.254   0.560  -2.278  1.00  0.00     0.158 A 
HETATM   45  F1  UNL     1      -9.442   0.330  -2.893  1.00  0.00    -0.203 F 
HETATM   46  C10 UNL     1      -8.202   0.825  -0.917  1.00  0.00     0.194 A 
HETATM   47  F2  UNL     1      -9.377   0.848  -0.200  1.00  0.00    -0.200 F 
HETATM   48  C11 UNL     1      -6.992   1.058  -0.319  1.00  0.00     0.169 A 
HETATM   49  F3  UNL     1      -6.929   1.315   1.007  1.00  0.00    -0.202 F 
ENDBRANCH   3  41
TORSDOF 13
