REMARK  6 active torsions:
REMARK  status: ('A' for Active; 'I' for Inactive)
REMARK    1  A    between atoms: C2_2  and  O2_4 
REMARK    2  A    between atoms: O2_4  and  C3_5 
REMARK    3  A    between atoms: C6_8  and  C7_9 
REMARK    4  A    between atoms: C7_9  and  O3_10 
REMARK    5  A    between atoms: C10_16  and  C11_17 
REMARK    6  A    between atoms: C11_17  and  C13_19 
ROOT
HETATM    1  C13 UNL     1       2.612  -2.681   0.261  1.00  0.00     0.096 C 
HETATM    2  C14 UNL     1       3.780  -3.387  -0.487  1.00  0.00     0.026 C 
HETATM    3  C15 UNL     1       1.790  -3.816   0.672  1.00  0.00     0.064 C 
HETATM    4  N1  UNL     1       1.166  -4.753   1.005  1.00  0.00    -0.197 NA
ENDROOT
BRANCH   1   5
HETATM    5  C11 UNL     1       2.008  -1.662  -0.612  1.00  0.00     0.031 C 
HETATM    6  C12 UNL     1       1.278  -2.637  -1.648  1.00  0.00     0.016 C 
BRANCH   5   7
HETATM    7  C10 UNL     1       0.922  -0.799  -0.164  1.00  0.00    -0.031 C 
HETATM    8  C9  UNL     1       1.249   0.509  -0.056  1.00  0.00     0.029 C 
HETATM    9  C4  UNL     1       0.318   1.595   0.377  1.00  0.00     0.060 C 
HETATM   10  C8  UNL     1       2.625   0.982  -0.357  1.00  0.00     0.290 C 
HETATM   11  C3  UNL     1      -1.089   1.149   0.626  1.00  0.00     0.172 C 
HETATM   12  C5  UNL     1       0.404   2.792  -0.509  1.00  0.00     0.047 C 
HETATM   13  C20 UNL     1      -0.980  -0.227   1.251  1.00  0.00     0.188 C 
HETATM   14  C16 UNL     1      -0.481  -1.092   0.112  1.00  0.00     0.187 C 
HETATM   15  O7  UNL     1      -2.199  -0.787   1.531  1.00  0.00    -0.345 OA
HETATM   16  O6  UNL     1      -0.942  -2.280   0.454  1.00  0.00    -0.344 OA
HETATM   17  C17 UNL     1      -2.245  -2.029   0.887  1.00  0.00     0.158 C 
HETATM   18  C18 UNL     1      -2.789  -3.106   1.773  1.00  0.00     0.078 C 
HETATM   19  C19 UNL     1      -3.165  -1.931  -0.337  1.00  0.00     0.078 C 
HETATM   20  C6  UNL     1       1.540   2.780  -1.483  1.00  0.00     0.156 C 
HETATM   21  O4  UNL     1       2.751   2.246  -0.979  1.00  0.00    -0.310 OA
HETATM   22  O5  UNL     1       3.576   0.249  -0.046  1.00  0.00    -0.260 OA
BRANCH  11  23
HETATM   23  O2  UNL     1      -1.780   2.062   1.399  1.00  0.00    -0.313 OA
BRANCH  23  24
HETATM   24  C2  UNL     1      -2.929   2.736   1.058  1.00  0.00     0.255 C 
HETATM   25  C1  UNL     1      -3.593   3.711   1.989  1.00  0.00     0.126 C 
HETATM   26  O1  UNL     1      -3.417   2.505  -0.081  1.00  0.00    -0.266 OA
ENDBRANCH  23  24
ENDBRANCH  11  23
BRANCH  20  27
HETATM   27  C7  UNL     1       1.847   4.215  -1.892  1.00  0.00     0.196 C 
BRANCH  27  28
HETATM   28  O3  UNL     1       2.285   4.916  -0.765  1.00  0.00    -0.398 OA
ATOM     29  H3  UNL     1       2.476   5.811  -1.020  1.00  0.00     0.209 HD
ENDBRANCH  27  28
ENDBRANCH  20  27
ENDBRANCH   5   7
ENDBRANCH   1   5
TORSDOF 6
