REMARK  6 active torsions:
REMARK  status: ('A' for Active; 'I' for Inactive)
REMARK    1  A    between atoms: C2_2  and  O2_4 
REMARK    2  A    between atoms: O2_4  and  C3_5 
REMARK    3  A    between atoms: C9_15  and  C10_16 
REMARK    4  A    between atoms: C10_16  and  C11_17 
REMARK    5  A    between atoms: C12_18  and  C14_20 
REMARK    6  A    between atoms: C14_20  and  O7_21 
ROOT
HETATM    1  C3  UNL     1      -3.123  -0.114  -0.470  1.00  0.00     0.186 C 
HETATM    2  C4  UNL     1      -3.702  -1.417   0.109  1.00  0.00     0.125 C 
HETATM    3  C5  UNL     1      -3.745  -1.008   1.553  1.00  0.00     0.267 C 
HETATM    4  O3  UNL     1      -4.570  -1.422   2.391  1.00  0.00    -0.265 OA
HETATM    5  O4  UNL     1      -2.686  -0.088   1.746  1.00  0.00    -0.301 OA
HETATM    6  C6  UNL     1      -1.988  -0.074   0.565  1.00  0.00     0.158 C 
HETATM    7  C7  UNL     1      -0.939   0.903   0.311  1.00  0.00     0.205 C 
HETATM    8  O5  UNL     1      -0.411   1.368   1.508  1.00  0.00    -0.306 OA
HETATM    9  C8  UNL     1       0.924   1.353   1.849  1.00  0.00     0.290 C 
HETATM   10  O6  UNL     1       1.328   1.891   2.923  1.00  0.00    -0.260 OA
HETATM   11  C9  UNL     1       1.849   0.699   0.938  1.00  0.00     0.019 C 
HETATM   12  C15 UNL     1       1.408   0.153  -0.159  1.00  0.00     0.021 C 
HETATM   13  C16 UNL     1       0.010   0.140  -0.568  1.00  0.00     0.179 C 
HETATM   14  O8  UNL     1      -0.498  -1.170  -0.705  1.00  0.00    -0.365 OA
HETATM   15  C17 UNL     1      -1.352  -1.415   0.330  1.00  0.00     0.099 C 
HETATM   16  C18 UNL     1      -0.692  -1.901   1.592  1.00  0.00     0.050 C 
HETATM   17  C19 UNL     1      -2.524  -2.317  -0.060  1.00  0.00     0.035 C 
HETATM   18  C20 UNL     1      -2.368  -2.839  -1.461  1.00  0.00     0.014 C 
ENDROOT
BRANCH  11  19
HETATM   19  C10 UNL     1       3.299   0.674   1.294  1.00  0.00     0.072 C 
BRANCH  19  20
HETATM   20  C11 UNL     1       4.087  -0.031   0.253  1.00  0.00    -0.018 C 
HETATM   21  C12 UNL     1       5.054   0.580  -0.406  1.00  0.00    -0.064 C 
HETATM   22  C13 UNL     1       5.389   1.989  -0.133  1.00  0.00     0.045 C 
BRANCH  21  23
HETATM   23  C14 UNL     1       5.813  -0.162  -1.436  1.00  0.00     0.197 C 
BRANCH  23  24
HETATM   24  O7  UNL     1       5.345  -1.484  -1.546  1.00  0.00    -0.397 OA
ATOM     25  H7  UNL     1       5.833  -1.961  -2.208  1.00  0.00     0.209 HD
ENDBRANCH  23  24
ENDBRANCH  21  23
ENDBRANCH  19  20
ENDBRANCH  11  19
BRANCH   1  26
HETATM   26  O2  UNL     1      -3.937   0.978  -0.223  1.00  0.00    -0.312 OA
BRANCH  26  27
HETATM   27  C2  UNL     1      -4.341   1.927  -1.129  1.00  0.00     0.255 C 
HETATM   28  C1  UNL     1      -5.218   3.033  -0.683  1.00  0.00     0.126 C 
HETATM   29  O1  UNL     1      -3.934   1.800  -2.312  1.00  0.00    -0.266 OA
ENDBRANCH  26  27
ENDBRANCH   1  26
TORSDOF 6
