REMARK  8 active torsions:
REMARK  status: ('A' for Active; 'I' for Inactive)
REMARK    1  A    between atoms: C1_2  and  C2_3 
REMARK       I    between atoms: C1_2  and  N3_13 
REMARK    2  A    between atoms: C2_3  and  N1_4 
REMARK       I    between atoms: N1_4  and  C3_6 
REMARK       I    between atoms: C3_6  and  N2_8 
REMARK    3  A    between atoms: N3_13  and  C8_15 
REMARK    4  A    between atoms: C11_21  and  N5_22 
REMARK       I    between atoms: N5_22  and  C12_24 
REMARK       I    between atoms: C12_24  and  N6_26 
REMARK    5  A    between atoms: N6_26  and  C13_28 
REMARK    6  A    between atoms: C13_28  and  C14_29 
REMARK    7  A    between atoms: C14_29  and  C15_30 
REMARK    8  A    between atoms: C15_30  and  N7_31 
ROOT
HETATM    1  C8  UNL     1       2.929  -1.471   3.135  1.00  0.00     0.134 C 
HETATM    2  C9  UNL     1       3.405  -2.937   3.237  1.00  0.00     0.150 C 
HETATM    3  N4  UNL     1       2.766  -3.329   4.459  1.00  0.00    -0.357 N 
ATOM      4  H4  UNL     1       3.125  -4.038   5.099  1.00  0.00     0.162 HD
HETATM    5  C10 UNL     1       1.567  -2.597   4.658  1.00  0.00     0.242 C 
HETATM    6  O3  UNL     1       0.712  -2.735   5.575  1.00  0.00    -0.271 OA
HETATM    7  C11 UNL     1       1.493  -1.603   3.557  1.00  0.00     0.202 C 
ENDROOT
BRANCH   7   8
HETATM    8  N5  UNL     1       0.677  -2.201   2.501  1.00  0.00    -0.328 N 
HETATM    9  C12 UNL     1      -0.600  -1.660   2.207  1.00  0.00     0.316 C 
HETATM   10  O4  UNL     1      -1.018  -0.676   2.893  1.00  0.00    -0.247 OA
HETATM   11  N6  UNL     1      -1.443  -2.141   1.199  1.00  0.00    -0.343 N 
ATOM     12  H6  UNL     1      -1.129  -2.924   0.625  1.00  0.00     0.164 HD
ATOM     13  H5  UNL     1       1.025  -3.004   1.978  1.00  0.00     0.165 HD
BRANCH  11  14
HETATM   14  C13 UNL     1      -2.781  -1.550   0.936  1.00  0.00     0.126 C 
BRANCH  14  15
HETATM   15  C14 UNL     1      -3.346  -2.291  -0.218  1.00  0.00     0.048 C 
BRANCH  15  16
HETATM   16  C15 UNL     1      -4.677  -1.998  -0.722  1.00  0.00     0.239 C 
BRANCH  16  17
HETATM   17  N7  UNL     1      -5.067  -0.772  -1.328  1.00  0.00    -0.066 N 
HETATM   18  C16 UNL     1      -6.309  -0.338  -0.671  1.00  0.00     0.238 C 
HETATM   19  C17 UNL     1      -7.322   0.254  -1.573  1.00  0.00     0.032 C 
HETATM   20  C18 UNL     1      -6.849   1.377  -2.442  1.00  0.00    -0.012 C 
HETATM   21  C19 UNL     1      -5.694   2.135  -1.847  1.00  0.00     0.011 C 
HETATM   22  C23 UNL     1      -6.537   0.798  -3.807  1.00  0.00     0.011 C 
HETATM   23  C20 UNL     1      -4.371   1.493  -2.060  1.00  0.00     0.012 C 
HETATM   24  C21 UNL     1      -4.153   0.988  -3.470  1.00  0.00     0.012 C 
HETATM   25  C25 UNL     1      -4.140   0.275  -1.144  1.00  0.00     0.242 C 
HETATM   26  C22 UNL     1      -5.276  -0.003  -3.698  1.00  0.00     0.012 C 
HETATM   27  C24 UNL     1      -5.333  -1.094  -2.725  1.00  0.00     0.242 C 
ENDBRANCH  16  17
ENDBRANCH  15  16
ENDBRANCH  14  15
ENDBRANCH  11  14
ENDBRANCH   7   8
BRANCH   1  28
HETATM   28  N3  UNL     1       3.072  -1.006   1.777  1.00  0.00    -0.351 N 
HETATM   29  C1  UNL     1       4.056  -0.005   1.499  1.00  0.00     0.235 C 
HETATM   30  O1  UNL     1       4.781   0.465   2.406  1.00  0.00    -0.272 OA
ATOM     31  H3  UNL     1       2.485  -1.382   1.032  1.00  0.00     0.163 HD
BRANCH  29  32
HETATM   32  C2  UNL     1       4.247   0.508   0.115  1.00  0.00     0.227 C 
BRANCH  32  33
HETATM   33  N1  UNL     1       5.302   1.475  -0.005  1.00  0.00    -0.334 N 
HETATM   34  C3  UNL     1       6.640   1.108   0.284  1.00  0.00     0.318 C 
HETATM   35  O2  UNL     1       6.906  -0.070   0.642  1.00  0.00    -0.247 OA
HETATM   36  N2  UNL     1       7.690   2.060   0.171  1.00  0.00    -0.334 N 
HETATM   37  C4  UNL     1       7.562   3.454  -0.222  1.00  0.00     0.127 C 
HETATM   38  C7  UNL     1       9.082   1.775   0.431  1.00  0.00     0.127 C 
HETATM   39  C5  UNL     1       8.918   3.715  -0.874  1.00  0.00     0.022 C 
HETATM   40  C6  UNL     1       9.843   3.033   0.105  1.00  0.00     0.022 C 
ATOM     41  H1  UNL     1       5.088   2.428  -0.299  1.00  0.00     0.164 HD
ENDBRANCH  32  33
ENDBRANCH  29  32
ENDBRANCH   1  28
TORSDOF 8
