REMARK  4 active torsions:
REMARK  status: ('A' for Active; 'I' for Inactive)
REMARK    1  A    between atoms: N1_1  and  C1_5 
REMARK    2  A    between atoms: C1_5  and  C2_6 
REMARK    3  A    between atoms: C2_6  and  C3_7 
REMARK    4  A    between atoms: C3_7  and  N2_8 
ROOT
HETATM    1  N2  UNL     1       0.907  -0.302   0.176  1.00  0.00    -0.310 N 
HETATM    2  C4  UNL     1       1.381   0.500   1.161  1.00  0.00     0.097 A 
HETATM    3  C5  UNL     1       2.603   1.123   1.062  1.00  0.00     0.034 A 
HETATM    4  C6  UNL     1       3.343   0.921  -0.059  1.00  0.00     0.094 A 
HETATM    5  N3  UNL     1       2.890   0.128  -1.049  1.00  0.00    -0.319 N 
ATOM      6  H3  UNL     1       3.444  -0.026  -1.892  1.00  0.00     0.170 HD
HETATM    7  C7  UNL     1       1.694  -0.452  -0.897  1.00  0.00     0.326 A 
HETATM    8  O1  UNL     1       1.278  -1.197  -1.839  1.00  0.00    -0.246 OA
ENDROOT
BRANCH   1   9
HETATM    9  C3  UNL     1      -0.366  -0.983   0.222  1.00  0.00     0.135 C 
BRANCH   9  10
HETATM   10  C2  UNL     1      -1.393  -0.058  -0.387  1.00  0.00     0.047 C 
BRANCH  10  11
HETATM   11  C1  UNL     1      -2.774  -0.643  -0.405  1.00  0.00     0.231 C 
BRANCH  11  12
HETATM   12  N1  UNL     1      -3.650   0.346  -1.012  1.00  0.00    -0.079 N 
ATOM     13  H13 UNL     1      -3.607   1.255  -0.551  1.00  0.00     0.274 HD
ATOM     14  H12 UNL     1      -3.333   0.650  -1.932  1.00  0.00     0.274 HD
ATOM     15  H11 UNL     1      -4.589  -0.052  -1.024  1.00  0.00     0.274 HD
ENDBRANCH  11  12
ENDBRANCH  10  11
ENDBRANCH   9  10
ENDBRANCH   1   9
TORSDOF 4
