REMARK  14 active torsions:
REMARK  status: ('A' for Active; 'I' for Inactive)
REMARK    1  A    between atoms: C2_2  and  C4_4 
REMARK    2  A    between atoms: C4_4  and  C5_5 
REMARK    3  A    between atoms: C5_5  and  N1_6 
REMARK    4  A    between atoms: C5_5  and  C21_33 
REMARK       I    between atoms: N1_6  and  C6_8 
REMARK    5  A    between atoms: C6_8  and  C7_10 
REMARK    6  A    between atoms: C7_10  and  N2_11 
REMARK    7  A    between atoms: C7_10  and  C10_16 
REMARK       I    between atoms: N2_11  and  C8_12 
REMARK    8  A    between atoms: C8_12  and  C9_14 
REMARK       I    between atoms: C10_16  and  N3_18 
REMARK    9  A    between atoms: N3_18  and  C11_20 
REMARK   10  A    between atoms: C11_20  and  C12_21 
REMARK   11  A    between atoms: C11_20  and  C16_25 
REMARK   12  A    between atoms: C12_21  and  C13_22 
REMARK       I    between atoms: C16_25  and  N4_27 
REMARK   13  A    between atoms: N4_27  and  C17_29 
REMARK       I    between atoms: C21_33  and  N5_35 
REMARK   14  A    between atoms: N5_35  and  C22_37 
ROOT
HETATM    1  C7  UNL     1      -0.644  -3.149  -0.098  1.00  0.00     0.245 C 
ENDROOT
BRANCH   1   2
HETATM    2  C6  UNL     1       0.575  -2.395   0.307  1.00  0.00     0.292 C 
HETATM    3  N1  UNL     1       1.253  -1.564  -0.641  1.00  0.00    -0.319 N 
ATOM      4  H1  UNL     1       0.789  -1.507  -1.548  1.00  0.00     0.169 HD
HETATM    5  O1  UNL     1       1.011  -2.502   1.459  1.00  0.00    -0.264 OA
BRANCH   3   6
HETATM    6  C5  UNL     1       2.424  -0.821  -0.558  1.00  0.00     0.080 C 
BRANCH   6   7
HETATM    7  C4  UNL     1       3.668  -1.556  -0.078  1.00  0.00     0.067 C 
BRANCH   7   8
HETATM    8  C2  UNL     1       4.130  -2.667  -0.923  1.00  0.00    -0.017 C 
HETATM    9  C1  UNL     1       4.456  -2.248  -2.345  1.00  0.00     0.010 C 
HETATM   10  C3  UNL     1       3.305  -3.917  -0.979  1.00  0.00     0.010 C 
ENDBRANCH   7   8
ENDBRANCH   6   7
BRANCH   6  11
HETATM   11  C21 UNL     1       2.398   0.539   0.024  1.00  0.00     0.264 C 
HETATM   12  O5  UNL     1       1.413   0.897   0.695  1.00  0.00    -0.266 OA
HETATM   13  N5  UNL     1       3.486   1.387  -0.203  1.00  0.00    -0.351 N 
ATOM     14  H5  UNL     1       4.219   0.961  -0.770  1.00  0.00     0.163 HD
BRANCH  13  15
HETATM   15  C22 UNL     1       3.780   2.712   0.190  1.00  0.00     0.084 C 
HETATM   16  C23 UNL     1       4.849   2.717   1.277  1.00  0.00     0.025 C 
HETATM   17  C24 UNL     1       6.144   2.086   0.816  1.00  0.00     0.002 C 
HETATM   18  C25 UNL     1       6.546   2.631  -0.549  1.00  0.00     0.000 C 
HETATM   19  C26 UNL     1       5.722   3.878  -0.760  1.00  0.00     0.002 C 
HETATM   20  C27 UNL     1       4.296   3.496  -0.999  1.00  0.00     0.025 C 
ENDBRANCH  13  15
ENDBRANCH   6  11
ENDBRANCH   3   6
ENDBRANCH   1   2
BRANCH   1  21
HETATM   21  N2  UNL     1      -0.852  -4.433   0.399  1.00  0.00    -0.358 NA
HETATM   22  C8  UNL     1      -1.043  -5.669   0.878  1.00  0.00     0.306 C 
HETATM   23  O2  UNL     1      -0.238  -6.557   1.252  1.00  0.00    -0.256 OA
BRANCH  22  24
HETATM   24  C9  UNL     1      -2.511  -6.169   1.010  1.00  0.00     0.233 C 
HETATM   25 CL1  UNL     1      -2.541  -7.614   1.991  1.00  0.00    -0.119 Cl
ENDBRANCH  22  24
ENDBRANCH   1  21
BRANCH   1  26
HETATM   26  C10 UNL     1      -1.889  -2.402  -0.201  1.00  0.00     0.288 C 
HETATM   27  O3  UNL     1      -2.882  -2.943  -0.806  1.00  0.00    -0.265 OA
HETATM   28  N3  UNL     1      -2.085  -1.120   0.332  1.00  0.00    -0.341 N 
ATOM     29  H3  UNL     1      -1.327  -0.658   0.834  1.00  0.00     0.163 HD
BRANCH  28  30
HETATM   30  C11 UNL     1      -3.403  -0.425   0.167  1.00  0.00     0.177 C 
BRANCH  30  31
HETATM   31  C12 UNL     1      -4.265  -1.068   1.227  1.00  0.00     0.038 C 
BRANCH  31  32
HETATM   32  C13 UNL     1      -5.677  -0.645   1.315  1.00  0.00    -0.020 C 
HETATM   33  C14 UNL     1      -6.455  -0.868   0.029  1.00  0.00     0.009 C 
HETATM   34  C15 UNL     1      -5.983   0.685   1.889  1.00  0.00     0.009 C 
ENDBRANCH  31  32
ENDBRANCH  30  31
BRANCH  30  35
HETATM   35  C16 UNL     1      -3.101   0.990   0.355  1.00  0.00     0.241 C 
HETATM   36  O4  UNL     1      -2.238   1.350   1.191  1.00  0.00    -0.271 OA
HETATM   37  N4  UNL     1      -3.756   1.990  -0.391  1.00  0.00    -0.351 N 
ATOM     38  H4  UNL     1      -4.457   1.696  -1.071  1.00  0.00     0.163 HD
BRANCH  37  39
HETATM   39  C17 UNL     1      -3.500   3.397  -0.255  1.00  0.00     0.022 C 
HETATM   40  C18 UNL     1      -3.860   3.823   1.153  1.00  0.00     0.037 C 
HETATM   41  C19 UNL     1      -4.439   4.146  -1.213  1.00  0.00     0.037 C 
HETATM   42  C20 UNL     1      -2.073   3.793  -0.537  1.00  0.00     0.037 C 
ENDBRANCH  37  39
ENDBRANCH  30  35
ENDBRANCH  28  30
ENDBRANCH   1  26
TORSDOF 14
