REMARK  4 active torsions:
REMARK  status: ('A' for Active; 'I' for Inactive)
REMARK    1  A    between atoms: N1_1  and  C1_4 
REMARK    2  A    between atoms: C2_9  and  C3_10 
REMARK    3  A    between atoms: N4_11  and  O1_13 
REMARK    4  A    between atoms: O1_13  and  C4_14 
ROOT
HETATM    1  C3  UNL     1       0.889   1.124  -0.353  1.00  0.00     0.164 C 
HETATM    2  N4  UNL     1       0.016   0.479   0.295  1.00  0.00    -0.271 N 
ATOM      3  H4  UNL     1       0.325  -0.344   0.813  1.00  0.00     0.193 HD
ENDROOT
BRANCH   1   4
HETATM    4  C2  UNL     1       2.280   0.698  -0.352  1.00  0.00     0.153 A 
HETATM    5  N3  UNL     1       3.328   1.279  -0.991  1.00  0.00    -0.270 N 
HETATM    6  N2  UNL     1       4.420   0.600  -0.746  1.00  0.00    -0.131 N 
ATOM      7  H3  UNL     1       3.273   2.115  -1.572  1.00  0.00     0.189 HD
HETATM    8  C1  UNL     1       4.084  -0.415   0.047  1.00  0.00     0.692 A 
ATOM      9  H2  UNL     1       5.354   0.810  -1.097  1.00  0.00     0.205 HD
HETATM   10  N7  UNL     1       2.764  -0.367   0.299  1.00  0.00    -0.173 N 
ATOM     11  H7  UNL     1       2.232  -1.018   0.877  1.00  0.00     0.186 HD
BRANCH   8  12
HETATM   12  N1  UNL     1       4.893  -1.302   0.501  1.00  0.00    -0.233 N 
ATOM     13  H12 UNL     1       5.894  -1.338   0.310  1.00  0.00     0.174 HD
ATOM     14  H11 UNL     1       4.636  -2.080   1.109  1.00  0.00     0.174 HD
ENDBRANCH   8  12
ENDBRANCH   1   4
BRANCH   2  15
HETATM   15  O1  UNL     1      -1.315   0.802   0.354  1.00  0.00    -0.245 OA
BRANCH  15  16
HETATM   16  C4  UNL     1      -2.258  -0.234   0.159  1.00  0.00     0.348 C 
HETATM   17  N5  UNL     1      -3.205  -0.322   1.232  1.00  0.00    -0.306 N 
HETATM   18  C5  UNL     1      -4.459  -0.611   0.638  1.00  0.00     0.325 C 
ATOM     19  H5  UNL     1      -3.014  -0.201   2.227  1.00  0.00     0.167 HD
HETATM   20  O2  UNL     1      -5.504  -1.060   1.201  1.00  0.00    -0.247 OA
HETATM   21  N6  UNL     1      -4.396  -0.315  -0.768  1.00  0.00    -0.275 N 
HETATM   22  C6  UNL     1      -3.082   0.158  -1.012  1.00  0.00     0.277 C 
ATOM     23  H6  UNL     1      -5.145  -0.423  -1.452  1.00  0.00     0.173 HD
HETATM   24  O3  UNL     1      -2.640   0.789  -2.001  1.00  0.00    -0.268 OA
ENDBRANCH  15  16
ENDBRANCH   2  15
TORSDOF 4
