REMARK  9 active torsions:
REMARK  status: ('A' for Active; 'I' for Inactive)
REMARK    1  A    between atoms: C2_2  and  C4_4 
REMARK    2  A    between atoms: C4_4  and  C5_5 
REMARK    3  A    between atoms: C5_5  and  N1_6 
REMARK    4  A    between atoms: C5_5  and  C18_27 
REMARK       I    between atoms: N1_6  and  C6_8 
REMARK    5  A    between atoms: C6_8  and  C7_10 
REMARK       I    between atoms: N2_13  and  C10_14 
REMARK    6  A    between atoms: C10_14  and  C11_16 
REMARK    7  A    between atoms: C11_16  and  C12_17 
REMARK    8  A    between atoms: C12_17  and  N3_18 
REMARK    9  A    between atoms: C12_17  and  C13_22 
ROOT
HETATM    1  N1  UNL     1      -1.793  -0.618   0.123  1.00  0.00    -0.333 N 
ATOM      2  H1  UNL     1      -1.430  -0.555   1.074  1.00  0.00     0.168 HD
HETATM    3  C6  UNL     1      -0.824  -0.677  -0.875  1.00  0.00     0.226 C 
HETATM    4  O1  UNL     1      -1.107  -0.738  -2.084  1.00  0.00    -0.273 OA
ENDROOT
BRANCH   3   5
HETATM    5  C7  UNL     1       0.622  -0.670  -0.514  1.00  0.00     0.081 C 
HETATM    6  C8  UNL     1       1.444  -0.742  -1.753  1.00  0.00     0.034 C 
HETATM    7  C9  UNL     1       2.916  -0.787  -1.504  1.00  0.00     0.126 C 
HETATM    8  N2  UNL     1       3.184  -1.185  -0.150  1.00  0.00    -0.352 N 
HETATM    9  C10 UNL     1       4.228  -0.597   0.575  1.00  0.00     0.221 C 
HETATM   10  C16 UNL     1       2.334  -2.213   0.425  1.00  0.00     0.126 C 
HETATM   11  O2  UNL     1       4.434  -0.966   1.750  1.00  0.00    -0.273 OA
HETATM   12  C17 UNL     1       0.893  -1.809   0.443  1.00  0.00     0.034 C 
BRANCH   9  13
HETATM   13  C11 UNL     1       5.066   0.445  -0.051  1.00  0.00     0.136 C 
BRANCH  13  14
HETATM   14  C12 UNL     1       6.101   0.895   0.943  1.00  0.00     0.195 C 
BRANCH  14  15
HETATM   15  N3  UNL     1       6.928  -0.221   1.334  1.00  0.00    -0.074 N 
ATOM     16  H33 UNL     1       6.374  -1.002   1.686  1.00  0.00     0.274 HD
ATOM     17  H32 UNL     1       7.348  -0.686   0.529  1.00  0.00     0.274 HD
ATOM     18  H31 UNL     1       7.630   0.084   2.008  1.00  0.00     0.274 HD
ENDBRANCH  14  15
BRANCH  14  19
HETATM   19  C13 UNL     1       7.037   1.935   0.330  1.00  0.00     0.008 C 
HETATM   20  C14 UNL     1       7.754   1.349  -0.871  1.00  0.00     0.011 C 
HETATM   21  C15 UNL     1       8.082   2.246   1.388  1.00  0.00     0.011 C 
ENDBRANCH  14  19
ENDBRANCH  13  14
ENDBRANCH   9  13
ENDBRANCH   3   5
BRANCH   1  22
HETATM   22  C5  UNL     1      -3.226  -0.632   0.018  1.00  0.00    -0.001 C 
BRANCH  22  23
HETATM   23  C4  UNL     1      -3.794  -1.317  -1.197  1.00  0.00     0.057 C 
BRANCH  23  24
HETATM   24  C2  UNL     1      -3.436  -2.786  -1.198  1.00  0.00    -0.017 C 
HETATM   25  C1  UNL     1      -4.012  -3.474   0.041  1.00  0.00     0.010 C 
HETATM   26  C3  UNL     1      -3.945  -3.439  -2.460  1.00  0.00     0.010 C 
ENDBRANCH  23  24
ENDBRANCH  22  23
BRANCH  22  27
HETATM   27  C18 UNL     1      -3.920   0.600   0.447  1.00  0.00     0.003 C 
HETATM   28  C19 UNL     1      -5.367   0.442   0.834  1.00  0.00     0.020 C 
HETATM   29  C20 UNL     1      -5.890   1.862   0.569  1.00  0.00    -0.013 C 
HETATM   30  C21 UNL     1      -5.228   2.779   1.536  1.00  0.00     0.009 C 
HETATM   31  C25 UNL     1      -5.345   2.050  -0.852  1.00  0.00     0.010 C 
HETATM   32  C22 UNL     1      -3.743   2.668   1.521  1.00  0.00    -0.013 C 
HETATM   33  C23 UNL     1      -3.289   2.927   0.077  1.00  0.00     0.010 C 
HETATM   34  C26 UNL     1      -3.246   1.240   1.671  1.00  0.00     0.020 C 
HETATM   35  C24 UNL     1      -3.881   1.703  -0.594  1.00  0.00     0.000 C 
ENDBRANCH  22  27
ENDBRANCH   1  22
TORSDOF 9
