REMARK  8 active torsions:
REMARK  status: ('A' for Active; 'I' for Inactive)
REMARK    1  A    between atoms: C3_3  and  N1_4 
REMARK    2  A    between atoms: N1_4  and  C4_5 
REMARK    3  A    between atoms: N1_4  and  C7_8 
REMARK    4  A    between atoms: C4_5  and  C5_6 
REMARK    5  A    between atoms: C7_8  and  C8_9 
REMARK    6  A    between atoms: C7_8  and  C18_22 
REMARK    7  A    between atoms: C8_9  and  N2_10 
REMARK       I    between atoms: N2_10  and  C9_12 
REMARK    8  A    between atoms: C9_12  and  C10_14 
ROOT
HETATM    1  C1  UNL     1      -0.950   4.618  -2.314  1.00  0.00     0.013 C 
HETATM    2  C2  UNL     1      -0.607   4.348  -1.184  1.00  0.00    -0.103 C 
HETATM    3  C3  UNL     1      -0.180   3.989   0.202  1.00  0.00     0.189 C 
ENDROOT
BRANCH   3   4
HETATM    4  N1  UNL     1       0.505   2.714   0.042  1.00  0.00    -0.265 NA
BRANCH   4   5
HETATM    5  C4  UNL     1       1.728   2.883  -0.647  1.00  0.00     0.061 C 
BRANCH   5   6
HETATM    6  C5  UNL     1       2.820   3.622  -0.051  1.00  0.00     0.001 C 
HETATM    7  C6  UNL     1       2.967   4.239   1.063  1.00  0.00     0.012 C 
ENDBRANCH   5   6
ENDBRANCH   4   5
BRANCH   4   8
HETATM    8  C7  UNL     1       0.592   1.921   1.234  1.00  0.00     0.169 C 
BRANCH   8   9
HETATM    9  C8  UNL     1      -0.737   1.686   1.866  1.00  0.00     0.092 C 
BRANCH   9  10
HETATM   10  N2  UNL     1      -1.792   1.027   1.252  1.00  0.00    -0.335 N 
HETATM   11  C9  UNL     1      -2.031  -0.313   0.959  1.00  0.00     0.255 C 
HETATM   12  O1  UNL     1      -1.207  -1.199   1.329  1.00  0.00    -0.267 OA
ATOM     13  H2  UNL     1      -2.544   1.649   0.956  1.00  0.00     0.168 HD
BRANCH  11  14
HETATM   14  C10 UNL     1      -3.190  -0.849   0.232  1.00  0.00     0.038 A 
HETATM   15  C11 UNL     1      -3.691  -2.043   0.668  1.00  0.00     0.018 A 
HETATM   16  C12 UNL     1      -4.803  -2.612   0.095  1.00  0.00     0.008 A 
HETATM   17  C13 UNL     1      -5.405  -1.932  -0.945  1.00  0.00    -0.061 A 
HETATM   18  C14 UNL     1      -6.607  -2.533  -1.585  1.00  0.00     0.048 C 
HETATM   19  C15 UNL     1      -4.895  -0.747  -1.367  1.00  0.00     0.014 A 
HETATM   20  C16 UNL     1      -3.756  -0.142  -0.798  1.00  0.00    -0.046 A 
HETATM   21  C17 UNL     1      -3.282   1.113  -1.380  1.00  0.00     0.049 C 
ENDBRANCH  11  14
ENDBRANCH   9  10
ENDBRANCH   8   9
BRANCH   8  22
HETATM   22  C18 UNL     1       1.407   0.705   0.979  1.00  0.00     0.106 A 
HETATM   23  N3  UNL     1       1.354  -0.076  -0.120  1.00  0.00    -0.342 N 
HETATM   24  C19 UNL     1       2.217  -1.083  -0.017  1.00  0.00     0.061 A 
ATOM     25  H3  UNL     1       0.739   0.083  -0.918  1.00  0.00     0.167 HD
HETATM   26  C20 UNL     1       2.532  -2.133  -0.846  1.00  0.00     0.039 A 
HETATM   27  C26 UNL     1       2.863  -0.967   1.184  1.00  0.00     0.061 A 
HETATM   28  C21 UNL     1       3.476  -3.084  -0.528  1.00  0.00    -0.054 A 
HETATM   29  C22 UNL     1       3.764  -4.209  -1.480  1.00  0.00     0.049 C 
HETATM   30  C23 UNL     1       4.129  -2.968   0.681  1.00  0.00    -0.054 A 
HETATM   31  C24 UNL     1       5.151  -3.994   1.029  1.00  0.00     0.049 C 
HETATM   32  C25 UNL     1       3.809  -1.916   1.507  1.00  0.00     0.039 A 
HETATM   33  N4  UNL     1       2.359   0.128   1.779  1.00  0.00    -0.342 N 
ATOM     34  H4  UNL     1       2.644   0.479   2.693  1.00  0.00     0.167 HD
ENDBRANCH   8  22
ENDBRANCH   4   8
ENDBRANCH   3   4
TORSDOF 8
