REMARK  14 active torsions:
REMARK  status: ('A' for Active; 'I' for Inactive)
REMARK    1  A    between atoms: S1_2  and  C2_3 
REMARK    2  A    between atoms: C3_4  and  O1_5 
REMARK    3  A    between atoms: O1_5  and  C4_6 
REMARK    4  A    between atoms: C5_8  and  N1_9 
REMARK    5  A    between atoms: N1_9  and  O3_10 
REMARK    6  A    between atoms: C6_14  and  O4_15 
REMARK    7  A    between atoms: C7_17  and  N3_18 
REMARK    8  A    between atoms: C8_23  and  C9_24 
REMARK    9  A    between atoms: C9_24  and  N4_25 
REMARK   10  A    between atoms: C10_29  and  O6_30 
REMARK   11  A    between atoms: O6_30  and  C11_31 
REMARK   12  A    between atoms: C12_32  and  N5_33 
REMARK   13  A    between atoms: C14_38  and  N6_39 
REMARK   14  A    between atoms: C16_44  and  N7_45 
ROOT
HETATM    1  C2  UNL     1       0.362  -0.300   0.108  1.00  0.00     0.133 C 
HETATM    2  C3  UNL     1       1.359   0.789  -0.118  1.00  0.00     0.279 C 
HETATM    3  O5  UNL     1       0.637   1.858  -0.651  1.00  0.00    -0.350 OA
HETATM    4  C8  UNL     1      -0.623   1.817  -0.032  1.00  0.00     0.180 C 
HETATM    5  C10 UNL     1      -0.986   0.381   0.017  1.00  0.00     0.171 C 
ENDROOT
BRANCH   5   6
HETATM    6  O6  UNL     1      -1.853   0.003   0.994  1.00  0.00    -0.372 OA
BRANCH   6   7
HETATM    7  C11 UNL     1      -3.014  -0.621   0.583  1.00  0.00     0.182 C 
HETATM    8  C12 UNL     1      -3.037  -1.968   1.313  1.00  0.00     0.216 C 
HETATM    9  C13 UNL     1      -4.369  -2.618   1.322  1.00  0.00     0.068 C 
HETATM   10  C14 UNL     1      -5.445  -1.874   0.576  1.00  0.00     0.187 C 
HETATM   11  C15 UNL     1      -5.500  -0.414   0.966  1.00  0.00     0.068 C 
HETATM   12  C16 UNL     1      -4.168   0.250   1.034  1.00  0.00     0.216 C 
BRANCH   8  13
HETATM   13  N5  UNL     1      -2.547  -1.778   2.677  1.00  0.00    -0.072 N 
ATOM     14  H53 UNL     1      -1.627  -1.338   2.702  1.00  0.00     0.274 HD
ATOM     15  H52 UNL     1      -3.064  -1.056   3.178  1.00  0.00     0.274 HD
ATOM     16  H51 UNL     1      -2.562  -2.675   3.163  1.00  0.00     0.274 HD
ENDBRANCH   8  13
BRANCH  10  17
HETATM   17  N6  UNL     1      -5.352  -2.039  -0.854  1.00  0.00    -0.075 N 
ATOM     18  H63 UNL     1      -4.426  -1.777  -1.192  1.00  0.00     0.274 HD
ATOM     19  H62 UNL     1      -5.348  -3.027  -1.108  1.00  0.00     0.274 HD
ATOM     20  H61 UNL     1      -6.081  -1.535  -1.359  1.00  0.00     0.274 HD
ENDBRANCH  10  17
BRANCH  12  21
HETATM   21  N7  UNL     1      -3.908   0.860   2.323  1.00  0.00    -0.072 N 
ATOM     22  H73 UNL     1      -3.675   0.159   3.026  1.00  0.00     0.274 HD
ATOM     23  H72 UNL     1      -3.030   1.379   2.318  1.00  0.00     0.274 HD
ATOM     24  H71 UNL     1      -4.685   1.447   2.627  1.00  0.00     0.274 HD
ENDBRANCH  12  21
ENDBRANCH   6   7
ENDBRANCH   5   6
BRANCH   1  25
HETATM   25  S1  UNL     1       0.569  -1.602  -1.133  1.00  0.00    -0.161 SA
HETATM   26  C1  UNL     1       0.172  -1.044  -2.788  1.00  0.00     0.090 C 
ENDBRANCH   1  25
BRANCH   4  27
HETATM   27  C9  UNL     1      -1.554   2.653  -0.873  1.00  0.00     0.264 C 
BRANCH  27  28
HETATM   28  N4  UNL     1      -1.705   2.204  -2.220  1.00  0.00    -0.077 N 
ATOM     29  H43 UNL     1      -0.794   2.126  -2.672  1.00  0.00     0.274 HD
ATOM     30  H42 UNL     1      -1.994   1.226  -2.237  1.00  0.00     0.274 HD
ATOM     31  H41 UNL     1      -2.335   2.770  -2.789  1.00  0.00     0.274 HD
ENDBRANCH  27  28
ENDBRANCH   4  27
BRANCH   2  32
HETATM   32  O1  UNL     1       2.343   0.485  -1.045  1.00  0.00    -0.328 OA
BRANCH  32  33
HETATM   33  C4  UNL     1       3.620   0.583  -0.585  1.00  0.00     0.301 C 
HETATM   34  O2  UNL     1       4.430   1.486  -1.217  1.00  0.00    -0.318 OA
HETATM   35  C5  UNL     1       5.542   1.716  -0.411  1.00  0.00     0.347 C 
HETATM   36  N2  UNL     1       6.294   0.546  -0.105  1.00  0.00    -0.355 N 
HETATM   37  C6  UNL     1       5.525  -0.543   0.415  1.00  0.00     0.252 C 
ATOM     38  H2  UNL     1       7.303   0.489  -0.246  1.00  0.00     0.159 HD
HETATM   39  C7  UNL     1       4.353  -0.752  -0.555  1.00  0.00     0.286 C 
BRANCH  35  40
HETATM   40  N1  UNL     1       5.191   2.455   0.787  1.00  0.00    -0.050 NA
BRANCH  40  41
HETATM   41  O3  UNL     1       6.232   2.690   1.580  1.00  0.00    -0.292 OA
ATOM     42  H3  UNL     1       6.002   3.174   2.365  1.00  0.00     0.238 HD
ENDBRANCH  40  41
ENDBRANCH  35  40
BRANCH  37  43
HETATM   43  O4  UNL     1       6.284  -1.692   0.464  1.00  0.00    -0.375 OA
ATOM     44  H4  UNL     1       5.773  -2.415   0.809  1.00  0.00     0.212 HD
ENDBRANCH  37  43
BRANCH  39  45
HETATM   45  N3  UNL     1       4.959  -1.053  -1.840  1.00  0.00    -0.066 N 
ATOM     46  H33 UNL     1       4.273  -1.020  -2.594  1.00  0.00     0.275 HD
ATOM     47  H32 UNL     1       5.570  -0.298  -2.151  1.00  0.00     0.275 HD
ATOM     48  H31 UNL     1       5.450  -1.947  -1.820  1.00  0.00     0.275 HD
ENDBRANCH  39  45
ENDBRANCH  32  33
ENDBRANCH   2  32
TORSDOF 14
