REMARK  4 active torsions:
REMARK  status: ('A' for Active; 'I' for Inactive)
REMARK       I    between atoms: N1_2  and  C2_4 
REMARK       I    between atoms: C2_4  and  N2_5 
REMARK       I    between atoms: C2_4  and  N4_15 
REMARK    1  A    between atoms: N2_5  and  C3_7 
REMARK    2  A    between atoms: N4_15  and  C8_17 
REMARK    3  A    between atoms: C8_17  and  C9_18 
REMARK    4  A    between atoms: C8_17  and  C13_25 
ROOT
HETATM    1  C1  UNL     1       2.199   2.275  -1.768  1.00  0.00     0.165 C 
HETATM    2  N1  UNL     1       1.024   1.615  -1.312  1.00  0.00    -0.231 N 
ATOM      3  H1  UNL     1       0.137   1.982  -1.656  1.00  0.00     0.177 HD
HETATM    4  C2  UNL     1       0.954   0.608  -0.516  1.00  0.00     0.674 C 
HETATM    5  N2  UNL     1       2.162   0.077  -0.025  1.00  0.00    -0.189 N 
ATOM      6  H2  UNL     1       2.501   0.487   0.845  1.00  0.00     0.184 HD
HETATM    7  N4  UNL     1      -0.260   0.020  -0.111  1.00  0.00    -0.214 N 
ATOM      8  H4  UNL     1      -0.270  -1.000  -0.104  1.00  0.00     0.178 HD
ENDROOT
BRANCH   5   9
HETATM    9  C3  UNL     1       2.889  -0.843  -0.516  1.00  0.00     0.090 A 
HETATM   10  C4  UNL     1       4.039  -1.183   0.167  1.00  0.00     0.050 A 
HETATM   11  C5  UNL     1       4.881  -2.161  -0.286  1.00  0.00     0.090 A 
HETATM   12  N3  UNL     1       4.582  -2.815  -1.434  1.00  0.00    -0.372 N 
HETATM   13  C6  UNL     1       3.464  -2.495  -2.113  1.00  0.00     0.132 A 
ATOM     14  H3  UNL     1       5.201  -3.547  -1.783  1.00  0.00     0.164 HD
HETATM   15  C7  UNL     1       2.599  -1.515  -1.678  1.00  0.00     0.158 A 
HETATM   16  F1  UNL     1       1.472  -1.224  -2.404  1.00  0.00    -0.202 F 
ENDBRANCH   5   9
BRANCH   7  17
HETATM   17  C8  UNL     1      -1.470   0.641   0.288  1.00  0.00     0.170 C 
BRANCH  17  18
HETATM   18  C9  UNL     1      -2.584  -0.372   0.393  1.00  0.00     0.107 A 
HETATM   19  N5  UNL     1      -2.522  -1.587   0.950  1.00  0.00    -0.353 N 
HETATM   20  C10 UNL     1      -3.703  -2.220   0.868  1.00  0.00     0.106 A 
ATOM     21  H5  UNL     1      -1.686  -1.981   1.381  1.00  0.00     0.166 HD
HETATM   22  C11 UNL     1      -4.556  -1.348   0.220  1.00  0.00     0.108 A 
HETATM   23  N6  UNL     1      -3.848  -0.234  -0.056  1.00  0.00    -0.348 N 
HETATM   24  C12 UNL     1      -4.431   0.899  -0.735  1.00  0.00     0.157 C 
ENDBRANCH  17  18
BRANCH  17  25
HETATM   25  C13 UNL     1      -1.322   1.382   1.574  1.00  0.00     0.008 C 
HETATM   26  C14 UNL     1      -0.339   2.494   1.595  1.00  0.00     0.012 C 
HETATM   27  C15 UNL     1      -0.851   0.385   2.652  1.00  0.00     0.012 C 
ENDBRANCH  17  25
ENDBRANCH   7  17
TORSDOF 4
