REMARK  6 active torsions:
REMARK  status: ('A' for Active; 'I' for Inactive)
REMARK    1  A    between atoms: C3_7  and  N3_8 
REMARK    2  A    between atoms: N3_8  and  C4_10 
REMARK    3  A    between atoms: C4_10  and  C5_11 
REMARK    4  A    between atoms: C8_14  and  C9_15 
REMARK    5  A    between atoms: C14_20  and  S1_21 
REMARK    6  A    between atoms: S1_21  and  N4_24 
ROOT
HETATM    1  C5  UNL     1       0.269   0.725  -1.514  1.00  0.00    -0.040 A 
HETATM    2  C6  UNL     1       0.107   0.717  -0.144  1.00  0.00     0.009 A 
HETATM    3  C7  UNL     1      -0.902  -0.003   0.461  1.00  0.00     0.013 A 
HETATM    4  C8  UNL     1      -1.817  -0.764  -0.280  1.00  0.00    -0.024 A 
HETATM    5  C16 UNL     1      -1.651  -0.753  -1.641  1.00  0.00     0.013 A 
HETATM    6  C17 UNL     1      -0.623  -0.020  -2.254  1.00  0.00     0.009 A 
ENDROOT
BRANCH   1   7
HETATM    7  C4  UNL     1       1.362   1.502  -2.155  1.00  0.00     0.176 C 
BRANCH   7   8
HETATM    8  N3  UNL     1       2.290   2.069  -1.233  1.00  0.00    -0.222 N 
ATOM      9  H3  UNL     1       2.230   3.057  -0.986  1.00  0.00     0.178 HD
BRANCH   8  10
HETATM   10  C3  UNL     1       3.201   1.327  -0.716  1.00  0.00     0.679 A 
HETATM   11  N2  UNL     1       4.086   1.839   0.153  1.00  0.00    -0.174 N 
HETATM   12  C2  UNL     1       5.082   1.094   0.740  1.00  0.00     0.157 A 
ATOM     13  H2  UNL     1       4.017   2.829   0.390  1.00  0.00     0.186 HD
HETATM   14  N1  UNL     1       5.885   1.657   1.559  1.00  0.00    -0.378 N 
HETATM   15  C19 UNL     1       5.166  -0.228   0.418  1.00  0.00     0.176 A 
HETATM   16  C1  UNL     1       6.944   1.024   2.231  1.00  0.00     0.147 C 
ATOM     17  H1  UNL     1       5.745   2.651   1.740  1.00  0.00     0.160 HD
HETATM   18  C18 UNL     1       4.257  -0.756  -0.475  1.00  0.00     0.152 A 
HETATM   19  F1  UNL     1       6.134  -1.058   0.958  1.00  0.00    -0.201 F 
HETATM   20  N5  UNL     1       3.312   0.022  -1.012  1.00  0.00    -0.199 N 
ATOM     21  H5  UNL     1       2.651  -0.391  -1.670  1.00  0.00     0.183 HD
ENDBRANCH   8  10
ENDBRANCH   7   8
ENDBRANCH   1   7
BRANCH   4  22
HETATM   22  C9  UNL     1      -2.833  -1.559   0.396  1.00  0.00    -0.003 A 
HETATM   23  C10 UNL     1      -2.370  -2.677   1.120  1.00  0.00     0.014 A 
HETATM   24  C11 UNL     1      -3.204  -3.549   1.766  1.00  0.00     0.001 A 
HETATM   25  C12 UNL     1      -4.574  -3.307   1.696  1.00  0.00     0.002 A 
HETATM   26  C13 UNL     1      -5.019  -2.222   0.994  1.00  0.00     0.026 A 
HETATM   27  C14 UNL     1      -4.167  -1.328   0.334  1.00  0.00     0.090 A 
BRANCH  27  28
HETATM   28  S1  UNL     1      -4.878   0.024  -0.448  1.00  0.00     0.259 S 
HETATM   29  O1  UNL     1      -4.609   0.129  -1.921  1.00  0.00    -0.201 OA
HETATM   30  O2  UNL     1      -6.409  -0.111  -0.372  1.00  0.00    -0.201 OA
BRANCH  28  31
HETATM   31  N4  UNL     1      -4.406   1.521   0.254  1.00  0.00    -0.320 N 
HETATM   32  C15 UNL     1      -3.680   2.360  -0.639  1.00  0.00     0.159 C 
ATOM     33  H4  UNL     1      -4.624   1.782   1.215  1.00  0.00     0.171 HD
ENDBRANCH  28  31
ENDBRANCH  27  28
ENDBRANCH   4  22
TORSDOF 6
