REMARK  1 active torsions:
REMARK  status: ('A' for Active; 'I' for Inactive)
REMARK    1  A    between atoms: C3_3  and  C4_4 
ROOT
HETATM    1  C1  UNL     1      -0.279  -1.430  -1.480  1.00  0.00     0.013 C 
HETATM    2  C2  UNL     1       0.196  -0.250  -0.674  1.00  0.00     0.027 C 
HETATM    3  C3  UNL     1       1.224  -0.717   0.327  1.00  0.00     0.055 C 
HETATM    4  C5  UNL     1       0.696  -0.376   1.695  1.00  0.00     0.243 C 
HETATM    5  N2  UNL     1      -0.673  -0.026   1.522  1.00  0.00    -0.066 N 
ATOM      6  H21 UNL     1      -0.958   0.731   2.143  1.00  0.00     0.278 HD
ATOM      7  H22 UNL     1      -1.302  -0.748   1.873  1.00  0.00     0.278 HD
HETATM    8  C6  UNL     1      -0.917   0.281   0.150  1.00  0.00     0.122 C 
HETATM    9  C7  UNL     1      -1.004   1.789  -0.108  1.00  0.00     0.046 C 
HETATM   10  C8  UNL     1      -2.272  -0.277  -0.225  1.00  0.00     0.046 C 
ENDROOT
BRANCH   3  11
HETATM   11  C4  UNL     1       2.526  -0.027   0.162  1.00  0.00     0.059 C 
HETATM   12  N1  UNL     1       2.645   1.099  -0.425  1.00  0.00    -0.411 N 
ATOM     13  H12 UNL     1       1.797   1.531  -0.792  1.00  0.00     0.155 HD
ATOM     14  H11 UNL     1       3.541   1.574  -0.539  1.00  0.00     0.155 HD
ENDBRANCH   3  11
TORSDOF 1
