REMARK  11 active torsions:
REMARK  status: ('A' for Active; 'I' for Inactive)
REMARK    1  A    between atoms: N1_1  and  C1_4 
REMARK    2  A    between atoms: C2_10  and  C3_11 
REMARK    3  A    between atoms: C4_12  and  N4_13 
REMARK    4  A    between atoms: C6_15  and  C7_16 
REMARK    5  A    between atoms: C7_16  and  N5_17 
REMARK    6  A    between atoms: N5_17  and  C8_19 
REMARK    7  A    between atoms: N6_22  and  N7_23 
REMARK    8  A    between atoms: N7_23  and  O2_25 
REMARK    9  A    between atoms: C11_29  and  N9_30 
REMARK   10  A    between atoms: C12_38  and  N12_39 
REMARK   11  A    between atoms: N14_46  and  N15_47 
ROOT
HETATM    1  N4  UNL     1      -1.654  -1.111   0.068  1.00  0.00    -0.245 N 
HETATM    2  C5  UNL     1      -0.536  -0.938   0.800  1.00  0.00     0.150 A 
HETATM    3  C6  UNL     1       0.570  -0.917  -0.000  1.00  0.00     0.082 A 
HETATM    4  N10 UNL     1       0.050  -1.082  -1.298  1.00  0.00    -0.283 N 
ATOM      5  H10 UNL     1       0.593  -1.111  -2.161  1.00  0.00     0.188 HD
HETATM    6  N11 UNL     1      -1.245  -1.191  -1.206  1.00  0.00    -0.235 N 
ATOM      7  H11 UNL     1      -1.869  -1.321  -2.003  1.00  0.00     0.209 HD
ENDROOT
BRANCH   1   8
HETATM    8  C4  UNL     1      -3.015  -1.264   0.394  1.00  0.00     0.132 A 
HETATM    9  C3  UNL     1      -4.019  -0.473  -0.090  1.00  0.00     0.126 A 
HETATM   10  N14 UNL     1      -5.325  -0.741   0.200  1.00  0.00    -0.207 N 
HETATM   11  C13 UNL     1      -5.645  -1.791   0.975  1.00  0.00     0.347 A 
HETATM   12  N13 UNL     1      -4.661  -2.598   1.476  1.00  0.00    -0.291 N 
HETATM   13  O3  UNL     1      -6.850  -2.068   1.259  1.00  0.00    -0.245 OA
HETATM   14  C12 UNL     1      -3.368  -2.377   1.216  1.00  0.00     0.134 A 
ATOM     15  H13 UNL     1      -4.920  -3.390   2.064  1.00  0.00     0.172 HD
BRANCH   9  16
HETATM   16  C2  UNL     1      -3.716   0.680  -0.907  1.00  0.00     0.133 A 
HETATM   17  C1  UNL     1      -4.061   1.978  -0.509  1.00  0.00     0.152 A 
HETATM   18  N2  UNL     1      -3.639   2.843  -1.482  1.00  0.00    -0.224 N 
HETATM   19  O1  UNL     1      -3.090   2.099  -2.376  1.00  0.00    -0.155 OA
ATOM     20  H2  UNL     1      -3.738   3.858  -1.495  1.00  0.00     0.198 HD
HETATM   21  N3  UNL     1      -3.117   0.850  -2.078  1.00  0.00    -0.236 N 
ATOM     22  H3  UNL     1      -2.735   0.101  -2.655  1.00  0.00     0.197 HD
BRANCH  17  23
HETATM   23  N1  UNL     1      -4.654   2.344   0.562  1.00  0.00    -0.382 N 
ATOM     24  H12 UNL     1      -4.905   3.289   0.852  1.00  0.00     0.157 HD
ATOM     25  H11 UNL     1      -4.969   1.699   1.287  1.00  0.00     0.157 HD
ENDBRANCH  17  23
ENDBRANCH   9  16
BRANCH  10  26
HETATM   26  N15 UNL     1      -6.322   0.044  -0.379  1.00  0.00    -0.334 N 
ATOM     27 2H15 UNL     1      -6.079   0.841  -0.967  1.00  0.00     0.177 HD
ATOM     28 1H15 UNL     1      -7.298  -0.156  -0.162  1.00  0.00     0.177 HD
ENDBRANCH  10  26
BRANCH  14  29
HETATM   29  N12 UNL     1      -2.400  -3.093   1.648  1.00  0.00    -0.383 N 
ATOM     30 2H12 UNL     1      -1.414  -2.924   1.450  1.00  0.00     0.157 HD
ATOM     31 1H12 UNL     1      -2.652  -3.888   2.235  1.00  0.00     0.157 HD
ENDBRANCH  14  29
ENDBRANCH   1   8
BRANCH   3  32
HETATM   32  C7  UNL     1       2.017  -0.865   0.253  1.00  0.00     0.116 C 
BRANCH  32  33
HETATM   33  N5  UNL     1       2.710   0.340   0.039  1.00  0.00    -0.388 N 
ATOM     34  H5  UNL     1       2.549   1.176   0.602  1.00  0.00     0.159 HD
BRANCH  33  35
HETATM   35  C8  UNL     1       3.669   0.299  -1.043  1.00  0.00     0.134 C 
HETATM   36  C9  UNL     1       4.654  -0.812  -0.984  1.00  0.00     0.052 C 
HETATM   37  C10 UNL     1       5.468  -0.834   0.250  1.00  0.00     0.173 C 
HETATM   38  N6  UNL     1       5.461   0.430   0.946  1.00  0.00    -0.217 N 
HETATM   39  N8  UNL     1       5.048   1.638   0.401  1.00  0.00    -0.286 N 
HETATM   40  C11 UNL     1       4.505   1.594  -0.912  1.00  0.00     0.320 C 
ATOM     41  H8  UNL     1       5.130   2.514   0.917  1.00  0.00     0.184 HD
BRANCH  38  42
HETATM   42  N7  UNL     1       5.910   0.432   2.260  1.00  0.00    -0.194 N 
ATOM     43  H7  UNL     1       6.909   0.524   2.446  1.00  0.00     0.217 HD
BRANCH  42  44
HETATM   44  O2  UNL     1       5.112   0.323   3.225  1.00  0.00    -0.273 OA
ATOM     45  H2  UNL     1       5.419   0.324   4.124  1.00  0.00     0.246 HD
ENDBRANCH  42  44
ENDBRANCH  38  42
BRANCH  40  46
HETATM   46  N9  UNL     1       3.549   2.669  -1.127  1.00  0.00    -0.055 N 
ATOM     47  H93 UNL     1       3.030   2.595  -2.002  1.00  0.00     0.276 HD
ATOM     48  H92 UNL     1       2.737   2.634  -0.510  1.00  0.00     0.276 HD
ATOM     49  H91 UNL     1       4.100   3.523  -1.041  1.00  0.00     0.276 HD
ENDBRANCH  40  46
ENDBRANCH  33  35
ENDBRANCH  32  33
ENDBRANCH   3  32
TORSDOF 11
