REMARK  4 active torsions:
REMARK  status: ('A' for Active; 'I' for Inactive)
REMARK    1  A    between atoms: N1_1  and  C1_4 
REMARK    2  A    between atoms: C2_7  and  S1_8 
REMARK    3  A    between atoms: S1_8  and  N3_11 
REMARK    4  A    between atoms: C4_16  and  N5_17 
ROOT
HETATM    1  S1  UNL     1      -0.198  -0.411  -1.347  1.00  0.00     0.282 S 
HETATM    2  O1  UNL     1      -0.104  -0.071  -2.794  1.00  0.00    -0.203 OA
HETATM    3  O2  UNL     1      -0.825  -1.764  -1.227  1.00  0.00    -0.203 OA
ENDROOT
BRANCH   1   4
HETATM    4  C2  UNL     1       1.369  -0.474  -0.578  1.00  0.00     0.248 A 
HETATM    5  N2  UNL     1       2.227   0.570  -0.408  1.00  0.00    -0.162 N 
HETATM    6  C1  UNL     1       3.309   0.111   0.220  1.00  0.00     0.692 A 
ATOM      7  H2  UNL     1       2.069   1.532  -0.708  1.00  0.00     0.186 HD
HETATM    8  N7  UNL     1       3.143  -1.204   0.447  1.00  0.00    -0.130 N 
HETATM    9  N6  UNL     1       1.965  -1.553  -0.039  1.00  0.00    -0.260 N 
ATOM     10  H7  UNL     1       3.808  -1.822   0.912  1.00  0.00     0.205 HD
ATOM     11  H6  UNL     1       1.570  -2.493  -0.010  1.00  0.00     0.190 HD
BRANCH   6  12
HETATM   12  N1  UNL     1       4.324   0.851   0.536  1.00  0.00    -0.233 N 
ATOM     13  H12 UNL     1       4.450   1.848   0.364  1.00  0.00     0.174 HD
ATOM     14  H11 UNL     1       5.152   0.500   1.017  1.00  0.00     0.174 HD
ENDBRANCH   6  12
ENDBRANCH   1   4
BRANCH   1  15
HETATM   15  N3  UNL     1      -1.210   0.698  -0.493  1.00  0.00    -0.125 NA
HETATM   16  C3  UNL     1      -1.455   0.335   0.872  1.00  0.00     0.347 C 
HETATM   17  N4  UNL     1      -2.773  -0.127   0.486  1.00  0.00    -0.020 N 
HETATM   18  C4  UNL     1      -2.610   0.599  -0.762  1.00  0.00     0.475 C 
ATOM     19  H42 UNL     1      -2.999  -1.122   0.486  1.00  0.00     0.282 HD
ATOM     20  H41 UNL     1      -3.581   0.039   1.085  1.00  0.00     0.282 HD
BRANCH  18  21
HETATM   21  N5  UNL     1      -3.252   1.902  -0.629  1.00  0.00    -0.036 N 
ATOM     22  H53 UNL     1      -3.070   2.322   0.283  1.00  0.00     0.278 HD
ATOM     23  H52 UNL     1      -2.803   2.607  -1.214  1.00  0.00     0.278 HD
ATOM     24  H51 UNL     1      -4.251   1.831  -0.821  1.00  0.00     0.278 HD
ENDBRANCH  18  21
ENDBRANCH   1  15
TORSDOF 4
