REMARK  6 active torsions:
REMARK  status: ('A' for Active; 'I' for Inactive)
REMARK    1  A    between atoms: N1_1  and  C1_5 
REMARK    2  A    between atoms: C1_5  and  C2_6 
REMARK    3  A    between atoms: C2_6  and  N2_7 
REMARK    4  A    between atoms: N2_7  and  C3_9 
REMARK    5  A    between atoms: C5_16  and  N5_17 
REMARK    6  A    between atoms: N5_17  and  O2_19 
ROOT
HETATM    1  C3  UNL     1       0.006   0.311  -0.504  1.00  0.00     0.179 C 
HETATM    2  N3  UNL     1       0.091  -0.998  -0.141  1.00  0.00    -0.289 N 
ATOM      3  H3  UNL     1      -0.697  -1.592  -0.400  1.00  0.00     0.172 HD
HETATM    4  C4  UNL     1       1.113  -1.607   0.532  1.00  0.00     0.340 C 
HETATM    5  O1  UNL     1       0.861  -2.643   1.186  1.00  0.00    -0.246 OA
HETATM    6  N4  UNL     1       2.417  -1.214   0.581  1.00  0.00    -0.139 N 
ATOM      7  H4  UNL     1       3.036  -1.839   1.097  1.00  0.00     0.189 HD
HETATM    8  C5  UNL     1       3.014  -0.129   0.054  1.00  0.00     0.708 C 
HETATM    9  N6  UNL     1       2.414   0.829  -0.708  1.00  0.00    -0.151 N 
ATOM     10  H6  UNL     1       3.057   1.487  -1.149  1.00  0.00     0.188 HD
HETATM   11  C6  UNL     1       1.119   1.049  -0.973  1.00  0.00     0.304 C 
HETATM   12  O3  UNL     1       0.836   2.013  -1.721  1.00  0.00    -0.263 OA
ENDROOT
BRANCH   1  13
HETATM   13  N2  UNL     1      -1.068   0.880  -0.419  1.00  0.00    -0.350 N 
ATOM     14  H2  UNL     1      -0.909   1.837  -0.735  1.00  0.00     0.166 HD
BRANCH  13  15
HETATM   15  C2  UNL     1      -2.396   0.802  -0.086  1.00  0.00     0.089 C 
BRANCH  15  16
HETATM   16  C1  UNL     1      -2.991  -0.555   0.209  1.00  0.00     0.274 C 
BRANCH  16  17
HETATM   17  N1  UNL     1      -4.398  -0.374   0.537  1.00  0.00    -0.075 N 
ATOM     18  H13 UNL     1      -4.542   0.292   1.296  1.00  0.00     0.274 HD
ATOM     19  H12 UNL     1      -4.909   0.130  -0.188  1.00  0.00     0.274 HD
ATOM     20  H11 UNL     1      -4.800  -1.290   0.736  1.00  0.00     0.274 HD
ENDBRANCH  16  17
ENDBRANCH  15  16
ENDBRANCH  13  15
ENDBRANCH   1  13
BRANCH   8  21
HETATM   21  N5  UNL     1       4.274   0.004   0.302  1.00  0.00    -0.098 N 
ATOM     22  H5  UNL     1       4.775  -0.682   0.867  1.00  0.00     0.213 HD
BRANCH  21  23
HETATM   23  O2  UNL     1       4.914   1.095  -0.218  1.00  0.00    -0.276 OA
ATOM     24  H2  UNL     1       5.841   1.193  -0.036  1.00  0.00     0.245 HD
ENDBRANCH  21  23
ENDBRANCH   8  21
TORSDOF 6
