REMARK  6 active torsions:
REMARK  status: ('A' for Active; 'I' for Inactive)
REMARK    1  A    between atoms: C2_2  and  C5_5 
REMARK    2  A    between atoms: C7_9  and  N1_10 
REMARK    3  A    between atoms: C9_16  and  S3_17 
REMARK    4  A    between atoms: S3_17  and  N3_20 
REMARK       I    between atoms: N3_20  and  C10_22 
REMARK       I    between atoms: C10_22  and  N4_24 
REMARK    5  A    between atoms: N4_24  and  C11_26 
REMARK    6  A    between atoms: C11_26  and  C12_27 
ROOT
HETATM    1  S3  UNL     1      -2.395   1.391  -0.642  1.00  0.00     0.270 S 
HETATM    2  O1  UNL     1      -1.791   1.799  -1.973  1.00  0.00    -0.200 OA
HETATM    3  O2  UNL     1      -2.894   2.565   0.096  1.00  0.00    -0.200 OA
ENDROOT
BRANCH   1   4
HETATM    4  C9  UNL     1      -3.656   0.137  -0.917  1.00  0.00     0.122 A 
HETATM    5  C5  UNL     1      -4.672   0.007  -0.059  1.00  0.00     0.017 A 
HETATM    6  S1  UNL     1      -5.633  -1.297  -0.673  1.00  0.00    -0.083 SA
HETATM    7  C6  UNL     1      -4.666  -1.628  -2.039  1.00  0.00     0.077 A 
HETATM    8  S2  UNL     1      -4.426  -2.606  -3.458  1.00  0.00    -0.045 SA
HETATM    9  C8  UNL     1      -3.625  -0.751  -2.021  1.00  0.00     0.083 A 
HETATM   10  C7  UNL     1      -3.005  -1.837  -3.949  1.00  0.00     0.143 A 
HETATM   11  N2  UNL     1      -2.763  -0.894  -3.053  1.00  0.00    -0.334 N 
ATOM     12  H2  UNL     1      -1.946  -0.289  -3.139  1.00  0.00     0.168 HD
BRANCH   5  13
HETATM   13  C2  UNL     1      -5.084   0.738   1.200  1.00  0.00    -0.016 C 
HETATM   14  C1  UNL     1      -4.086   0.712   2.294  1.00  0.00     0.020 C 
HETATM   15  C3  UNL     1      -6.275  -0.099   1.805  1.00  0.00     0.020 C 
HETATM   16  C4  UNL     1      -5.729   2.063   0.917  1.00  0.00     0.020 C 
ENDBRANCH   5  13
BRANCH  10  17
HETATM   17  N1  UNL     1      -2.264  -2.107  -5.015  1.00  0.00    -0.380 N 
ATOM     18  H12 UNL     1      -2.451  -2.834  -5.706  1.00  0.00     0.158 HD
ATOM     19  H11 UNL     1      -1.406  -1.643  -5.312  1.00  0.00     0.158 HD
ENDBRANCH  10  17
ENDBRANCH   1   4
BRANCH   1  20
HETATM   20  N3  UNL     1      -1.084   0.742   0.271  1.00  0.00    -0.232 N 
HETATM   21  C10 UNL     1       0.172   0.404  -0.311  1.00  0.00     0.330 C 
HETATM   22  O3  UNL     1       0.282   0.608  -1.554  1.00  0.00    -0.246 OA
HETATM   23  N4  UNL     1       1.256  -0.123   0.390  1.00  0.00    -0.336 N 
ATOM     24  H4  UNL     1       1.173  -0.289   1.393  1.00  0.00     0.164 HD
ATOM     25  H3  UNL     1      -1.213   0.593   1.272  1.00  0.00     0.183 HD
BRANCH  23  26
HETATM   26  C11 UNL     1       2.491  -0.437  -0.282  1.00  0.00     0.194 C 
BRANCH  26  27
HETATM   27  C12 UNL     1       3.519  -0.980   0.620  1.00  0.00     0.114 C 
HETATM   28  F1  UNL     1       3.295  -2.113   1.308  1.00  0.00    -0.209 F 
HETATM   29  C13 UNL     1       4.672  -0.356   0.757  1.00  0.00    -0.044 C 
HETATM   30  C14 UNL     1       5.751  -0.882   1.673  1.00  0.00     0.038 C 
HETATM   31  C18 UNL     1       5.021   0.908   0.035  1.00  0.00     0.038 C 
HETATM   32  C15 UNL     1       6.979  -1.193   0.832  1.00  0.00     0.024 C 
HETATM   33  C16 UNL     1       7.318  -0.053  -0.094  1.00  0.00     0.083 C 
HETATM   34 CL1  UNL     1       9.044   0.310  -0.051  1.00  0.00    -0.125 Cl
HETATM   35  C17 UNL     1       6.515   1.174   0.249  1.00  0.00     0.024 C 
ENDBRANCH  26  27
ENDBRANCH  23  26
ENDBRANCH   1  20
TORSDOF 6
