REMARK  7 active torsions:
REMARK  status: ('A' for Active; 'I' for Inactive)
REMARK    1  A    between atoms: O1_2  and  C2_3 
REMARK    2  A    between atoms: C8_10  and  O2_11 
REMARK    3  A    between atoms: C12_18  and  O3_19 
REMARK    4  A    between atoms: C12_18  and  C13_21 
REMARK    5  A    between atoms: C17_27  and  C18_28 
REMARK    6  A    between atoms: C18_28  and  N2_29 
REMARK    7  A    between atoms: C19_33  and  O4_34 
ROOT
HETATM    1  C2  UNL     1      -4.745   0.144   0.189  1.00  0.00     0.109 A 
HETATM    2  C3  UNL     1      -4.106  -1.029   0.509  1.00  0.00    -0.018 A 
HETATM    3  C4  UNL     1      -4.839  -2.323   0.743  1.00  0.00     0.052 C 
HETATM    4  C5  UNL     1      -2.743  -1.063   0.510  1.00  0.00    -0.031 A 
HETATM    5  C6  UNL     1      -2.010   0.066   0.185  1.00  0.00    -0.024 A 
HETATM    6  C7  UNL     1      -2.699   1.181  -0.127  1.00  0.00     0.077 A 
HETATM    7 CL1  UNL     1      -1.848   2.710  -0.419  1.00  0.00    -0.081 Cl
HETATM    8  C8  UNL     1      -4.119   1.295  -0.147  1.00  0.00     0.124 A 
HETATM    9  C10 UNL     1      -0.566   0.367   0.065  1.00  0.00     0.075 C 
HETATM   10  C11 UNL     1       0.314  -0.535  -0.686  1.00  0.00     0.209 C 
HETATM   11  N1  UNL     1       1.627   0.017  -0.760  1.00  0.00    -0.033 N 
ATOM     12  H11 UNL     1       1.722   0.907  -0.272  1.00  0.00     0.281 HD
ATOM     13  H12 UNL     1       1.873   0.359  -1.689  1.00  0.00     0.281 HD
HETATM   14  C12 UNL     1       2.527  -1.019  -0.263  1.00  0.00     0.257 C 
HETATM   15  C20 UNL     1       1.699  -1.704   0.780  1.00  0.00     0.092 C 
HETATM   16  C21 UNL     1       0.454  -1.971  -0.085  1.00  0.00     0.088 C 
HETATM   17  C22 UNL     1      -0.747  -2.383   0.468  1.00  0.00    -0.172 C 
HETATM   18  C23 UNL     1      -2.129  -2.397   0.906  1.00  0.00     0.120 C 
ENDROOT
BRANCH  14  19
HETATM   19  O3  UNL     1       2.794  -1.951  -1.257  1.00  0.00    -0.361 OA
ATOM     20  H3  UNL     1       3.380  -2.625  -0.934  1.00  0.00     0.213 HD
ENDBRANCH  14  19
BRANCH  14  21
HETATM   21  C13 UNL     1       3.785  -0.408   0.216  1.00  0.00     0.040 A 
HETATM   22  C14 UNL     1       4.133  -0.534   1.533  1.00  0.00     0.040 A 
HETATM   23  C15 UNL     1       5.284   0.038   1.993  1.00  0.00     0.057 A 
HETATM   24 CL2  UNL     1       5.668   0.026   3.723  1.00  0.00    -0.083 Cl
HETATM   25  C16 UNL     1       6.134   0.743   1.190  1.00  0.00     0.066 A 
HETATM   26 CL3  UNL     1       7.602   1.504   1.777  1.00  0.00    -0.082 Cl
HETATM   27  C17 UNL     1       5.771   0.866  -0.146  1.00  0.00     0.024 A 
HETATM   28  C19 UNL     1       4.602   0.302  -0.635  1.00  0.00     0.086 A 
BRANCH  27  29
HETATM   29  C18 UNL     1       6.804   1.506  -1.020  1.00  0.00     0.272 C 
BRANCH  29  30
HETATM   30  N2  UNL     1       6.182   2.650  -1.736  1.00  0.00    -0.075 N 
ATOM     31  H23 UNL     1       5.347   2.378  -2.255  1.00  0.00     0.274 HD
ATOM     32  H22 UNL     1       5.743   3.316  -1.100  1.00  0.00     0.274 HD
ATOM     33  H21 UNL     1       6.886   3.086  -2.332  1.00  0.00     0.274 HD
ENDBRANCH  29  30
ENDBRANCH  27  29
BRANCH  28  34
HETATM   34  O4  UNL     1       4.348   0.499  -2.009  1.00  0.00    -0.359 OA
ATOM     35  H4  UNL     1       4.912   0.989  -2.596  1.00  0.00     0.217 HD
ENDBRANCH  28  34
ENDBRANCH  14  21
BRANCH   8  36
HETATM   36  O2  UNL     1      -4.642   2.473  -0.486  1.00  0.00    -0.351 OA
HETATM   37  C9  UNL     1      -4.922   3.703  -0.045  1.00  0.00     0.210 C 
ENDBRANCH   8  36
BRANCH   1  38
HETATM   38  O1  UNL     1      -6.172   0.188   0.226  1.00  0.00    -0.352 OA
HETATM   39  C1  UNL     1      -6.879   0.052  -1.006  1.00  0.00     0.210 C 
ENDBRANCH   1  38
TORSDOF 7
