REMARK  8 active torsions:
REMARK  status: ('A' for Active; 'I' for Inactive)
REMARK    1  A    between atoms: N1_1  and  C1_4 
REMARK    2  A    between atoms: C2_9  and  S1_10 
REMARK    3  A    between atoms: S1_10  and  C3_13 
REMARK    4  A    between atoms: C3_13  and  C4_14 
REMARK    5  A    between atoms: C4_14  and  N4_15 
REMARK    6  A    between atoms: N4_15  and  N5_16 
REMARK    7  A    between atoms: N5_16  and  N6_17 
REMARK    8  A    between atoms: C5_20  and  N7_21 
ROOT
HETATM    1  C1  UNL     1       4.228   0.134   0.565  1.00  0.00     0.692 A 
HETATM    2  N2  UNL     1       3.658  -1.096   0.569  1.00  0.00    -0.131 N 
ATOM      3  H2  UNL     1       4.165  -1.892   0.956  1.00  0.00     0.205 HD
HETATM    4  N3  UNL     1       2.448  -1.264   0.073  1.00  0.00    -0.273 N 
ATOM      5  H3  UNL     1       2.029  -2.194   0.080  1.00  0.00     0.188 HD
HETATM    6  C2  UNL     1       1.760  -0.240  -0.439  1.00  0.00     0.188 A 
HETATM    7  C5  UNL     1       2.329   1.012  -0.448  1.00  0.00     0.154 A 
HETATM    8  N8  UNL     1       3.561   1.186   0.056  1.00  0.00    -0.173 N 
ATOM      9  H8  UNL     1       3.990   2.112   0.053  1.00  0.00     0.186 HD
ENDROOT
BRANCH   6  10
HETATM   10  S1  UNL     1       0.160  -0.528  -1.081  1.00  0.00     0.197 S 
HETATM   11  O1  UNL     1      -0.143   0.387  -2.213  1.00  0.00    -0.221 OA
HETATM   12  O2  UNL     1       0.096  -1.960  -1.531  1.00  0.00    -0.221 OA
BRANCH  10  13
HETATM   13  C3  UNL     1      -0.991  -0.300   0.258  1.00  0.00     0.165 C 
BRANCH  13  14
HETATM   14  C4  UNL     1      -2.401  -0.544  -0.268  1.00  0.00     0.147 C 
BRANCH  14  15
HETATM   15  N4  UNL     1      -3.355  -0.362   0.810  1.00  0.00    -0.126 NA
BRANCH  15  16
HETATM   16  N5  UNL     1      -4.658  -0.567   0.417  1.00  0.00    -0.039 NA
BRANCH  16  17
HETATM   17  N6  UNL     1      -5.162   0.642  -0.073  1.00  0.00    -0.332 N 
ATOM     18  H62 UNL     1      -4.641   1.517  -0.124  1.00  0.00     0.173 HD
ATOM     19  H61 UNL     1      -6.128   0.490  -0.364  1.00  0.00     0.173 HD
ENDBRANCH  16  17
ENDBRANCH  15  16
ENDBRANCH  14  15
ENDBRANCH  13  14
ENDBRANCH  10  13
ENDBRANCH   6  10
BRANCH   7  20
HETATM   20  N7  UNL     1       1.660   2.012  -0.947  1.00  0.00    -0.383 N 
ATOM     21  H72 UNL     1       0.724   1.880  -1.330  1.00  0.00     0.157 HD
ATOM     22  H71 UNL     1       2.082   2.941  -0.954  1.00  0.00     0.157 HD
ENDBRANCH   7  20
BRANCH   1  23
HETATM   23  N1  UNL     1       5.411   0.316   1.046  1.00  0.00    -0.233 N 
ATOM     24  H12 UNL     1       5.917  -0.481   1.432  1.00  0.00     0.174 HD
ATOM     25  H11 UNL     1       5.840   1.241   1.043  1.00  0.00     0.174 HD
ENDBRANCH   1  23
TORSDOF 8
