REMARK  4 active torsions:
REMARK  status: ('A' for Active; 'I' for Inactive)
REMARK    1  A    between atoms: N1_2  and  C2_4 
REMARK    2  A    between atoms: C5_7  and  O1_8 
REMARK    3  A    between atoms: C7_10  and  C8_11 
REMARK    4  A    between atoms: C12_18  and  N4_19 
ROOT
HETATM    1  C8  UNL     1       0.326   0.069  -0.003  1.00  0.00     0.046 A 
HETATM    2  C9  UNL     1      -0.897  -0.553   0.114  1.00  0.00     0.037 A 
HETATM    3  N2  UNL     1      -1.869   0.343  -0.170  1.00  0.00    -0.310 N 
HETATM    4  C10 UNL     1      -1.281   1.523  -0.459  1.00  0.00     0.084 A 
HETATM    5  C11 UNL     1      -1.863   2.751  -0.795  1.00  0.00     0.138 A 
HETATM    6  N3  UNL     1      -1.081   3.794  -1.024  1.00  0.00    -0.200 N 
ATOM      7  H3  UNL     1      -1.487   4.697  -1.271  1.00  0.00     0.183 HD
HETATM    8  C12 UNL     1       0.267   3.653  -0.928  1.00  0.00     0.676 A 
HETATM    9  N5  UNL     1       0.820   2.476  -0.607  1.00  0.00    -0.189 N 
ATOM     10  H5  UNL     1       1.835   2.404  -0.544  1.00  0.00     0.184 HD
HETATM   11  C13 UNL     1       0.070   1.390  -0.366  1.00  0.00     0.092 A 
HETATM   12  C14 UNL     1      -3.165  -0.250  -0.131  1.00  0.00     0.046 A 
HETATM   13  C15 UNL     1      -4.453   0.219  -0.370  1.00  0.00     0.030 A 
HETATM   14  C16 UNL     1      -5.536  -0.626  -0.288  1.00  0.00     0.002 A 
HETATM   15  C17 UNL     1      -5.367  -1.951   0.032  1.00  0.00     0.001 A 
HETATM   16  C18 UNL     1      -4.074  -2.416   0.271  1.00  0.00     0.010 A 
HETATM   17  C19 UNL     1      -3.012  -1.568   0.187  1.00  0.00    -0.025 A 
HETATM   18  C20 UNL     1      -1.569  -1.821   0.436  1.00  0.00     0.099 A 
ENDROOT
BRANCH   1  19
HETATM   19  C7  UNL     1       1.685  -0.437   0.229  1.00  0.00     0.082 A 
HETATM   20  C5  UNL     1       2.016  -1.460   1.079  1.00  0.00     0.096 A 
HETATM   21  C4  UNL     1       3.375  -1.777   1.240  1.00  0.00     0.043 A 
HETATM   22  C3  UNL     1       4.333  -1.072   0.558  1.00  0.00     0.051 A 
HETATM   23  C2  UNL     1       4.000  -0.045  -0.295  1.00  0.00     0.101 A 
HETATM   24  N6  UNL     1       2.695   0.234  -0.429  1.00  0.00    -0.340 N 
ATOM     25  H6  UNL     1       2.432   0.992  -1.059  1.00  0.00     0.167 HD
BRANCH  20  26
HETATM   26  O1  UNL     1       1.073  -2.160   1.760  1.00  0.00    -0.354 OA
HETATM   27  C6  UNL     1       1.321  -3.215   2.644  1.00  0.00     0.210 C 
ENDBRANCH  20  26
BRANCH  23  28
HETATM   28  N1  UNL     1       4.895   0.624  -0.939  1.00  0.00    -0.381 N 
HETATM   29  C1  UNL     1       4.636   1.695  -1.836  1.00  0.00     0.147 C 
ATOM     30  H1  UNL     1       5.870   0.362  -0.792  1.00  0.00     0.160 HD
ENDBRANCH  23  28
ENDBRANCH   1  19
BRANCH   8  31
HETATM   31  N4  UNL     1       0.978   4.700  -1.161  1.00  0.00    -0.234 N 
ATOM     32  H42 UNL     1       0.557   5.596  -1.405  1.00  0.00     0.174 HD
ATOM     33  H41 UNL     1       1.990   4.594  -1.089  1.00  0.00     0.174 HD
ENDBRANCH   8  31
TORSDOF 4
