REMARK  5 active torsions:
REMARK  status: ('A' for Active; 'I' for Inactive)
REMARK    1  A    between atoms: C1_2  and  O2_4 
REMARK    2  A    between atoms: O2_4  and  C2_5 
REMARK    3  A    between atoms: C4_7  and  N2_8 
REMARK       I    between atoms: C5_10  and  N4_12 
REMARK    4  A    between atoms: N4_12  and  N5_14 
REMARK    5  A    between atoms: C7_19  and  N6_20 
ROOT
HETATM    1  C2  UNL     1      -1.506   0.279   0.144  1.00  0.00     0.168 C 
HETATM    2  C3  UNL     1      -0.200   0.250  -0.630  1.00  0.00     0.062 C 
HETATM    3  C4  UNL     1       0.597  -0.731   0.230  1.00  0.00     0.122 C 
HETATM    4  C6  UNL     1      -0.442  -1.717   0.772  1.00  0.00     0.225 C 
HETATM    5  F1  UNL     1      -0.204  -2.972   0.231  1.00  0.00    -0.245 F 
HETATM    6  C7  UNL     1      -1.787  -1.186   0.318  1.00  0.00     0.248 C 
ENDROOT
BRANCH   3   7
HETATM    7  N2  UNL     1       1.609  -1.395  -0.526  1.00  0.00    -0.356 N 
HETATM    8  C5  UNL     1       2.801  -0.908  -0.515  1.00  0.00     0.208 C 
HETATM    9  N3  UNL     1       3.853  -1.549  -1.265  1.00  0.00    -0.062 NA
HETATM   10  N4  UNL     1       3.127   0.250   0.219  1.00  0.00    -0.213 N 
ATOM     11  H4  UNL     1       2.984   0.264   1.229  1.00  0.00     0.196 HD
ATOM     12  H2  UNL     1       1.393  -2.235  -1.062  1.00  0.00     0.162 HD
BRANCH  10  13
HETATM   13  N5  UNL     1       3.650   1.392  -0.427  1.00  0.00    -0.036 N 
HETATM   14  O3  UNL     1       2.936   2.374  -0.704  1.00  0.00    -0.516 OA
HETATM   15  O4  UNL     1       5.001   1.394  -0.751  1.00  0.00    -0.516 OA
ENDBRANCH  10  13
ENDBRANCH   3   7
BRANCH   1  16
HETATM   16  O2  UNL     1      -2.513   0.986  -0.503  1.00  0.00    -0.299 OA
BRANCH  16  17
HETATM   17  C1  UNL     1      -3.086   2.078   0.139  1.00  0.00     0.373 C 
HETATM   18  N1  UNL     1      -4.112   2.871  -0.412  1.00  0.00    -0.032 NA
HETATM   19  O1  UNL     1      -2.677   2.404   1.300  1.00  0.00    -0.242 OA
ENDBRANCH  16  17
ENDBRANCH   1  16
BRANCH   6  20
HETATM   20  N6  UNL     1      -2.101  -1.848  -0.932  1.00  0.00    -0.070 N 
ATOM     21  H63 UNL     1      -2.873  -1.382  -1.409  1.00  0.00     0.274 HD
ATOM     22  H62 UNL     1      -1.365  -1.696  -1.621  1.00  0.00     0.274 HD
ATOM     23  H61 UNL     1      -2.292  -2.843  -0.814  1.00  0.00     0.274 HD
ENDBRANCH   6  20
TORSDOF 5
