REMARK  0 active torsions:
REMARK  status: ('A' for Active; 'I' for Inactive)
ROOT
HETATM    1  O1  UNL     1       3.105   0.714   2.899  1.00  0.00    -0.247 OA
HETATM    2  C1  UNL     1       2.785   0.625   1.684  1.00  0.00     0.323 C 
HETATM    3  N1  UNL     1       2.809   1.721   0.776  1.00  0.00    -0.277 N 
ATOM      4  H1  UNL     1       3.078   2.683   0.983  1.00  0.00     0.173 HD
HETATM    5  C2  UNL     1       2.380   1.202  -0.484  1.00  0.00     0.255 C 
HETATM    6  O2  UNL     1       2.655   1.639  -1.626  1.00  0.00    -0.270 OA
HETATM    7  C3  UNL     1       1.526   0.015  -0.122  1.00  0.00     0.140 C 
HETATM    8  C4  UNL     1       1.487  -0.864  -1.306  1.00  0.00     0.044 C 
HETATM    9  C5  UNL     1       0.266  -1.687  -1.481  1.00  0.00     0.031 C 
HETATM   10  C6  UNL     1      -0.723  -1.561  -0.354  1.00  0.00     0.239 C 
HETATM   11  N2  UNL     1      -0.933  -0.197   0.057  1.00  0.00    -0.039 N 
HETATM   12  C7  UNL     1      -1.828  -0.248   1.220  1.00  0.00     0.267 C 
HETATM   13  C8  UNL     1      -2.986   0.636   0.874  1.00  0.00     0.262 C 
HETATM   14  N3  UNL     1      -3.064   0.492  -0.567  1.00  0.00    -0.049 N 
ATOM     15  H31 UNL     1      -3.639   1.195  -1.031  1.00  0.00     0.279 HD
ATOM     16  H32 UNL     1      -3.605  -0.314  -0.882  1.00  0.00     0.279 HD
HETATM   17  C9  UNL     1      -1.698   0.483  -0.978  1.00  0.00     0.467 C 
HETATM   18  C10 UNL     1       0.231   0.534   0.376  1.00  0.00     0.280 C 
HETATM   19  N4  UNL     1       2.346  -0.520   0.962  1.00  0.00    -0.323 N 
ATOM     20  H4  UNL     1       2.557  -1.498   1.158  1.00  0.00     0.165 HD
ENDROOT
TORSDOF 0
