REMARK  4 active torsions:
REMARK  status: ('A' for Active; 'I' for Inactive)
REMARK       I    between atoms: C1_4  and  N2_5 
REMARK       I    between atoms: C1_4  and  N4_12 
REMARK    1  A    between atoms: N2_5  and  C2_7 
REMARK    2  A    between atoms: C2_7  and  C3_8 
REMARK    3  A    between atoms: C3_8  and  N3_9 
REMARK    4  A    between atoms: N4_12  and  C6_14 
ROOT
HETATM    1  N1  UNL     1       0.590  -0.574  -1.295  1.00  0.00    -0.235 N 
ATOM      2  H11 UNL     1       1.264  -1.213  -1.717  1.00  0.00     0.174 HD
ATOM      3  H12 UNL     1      -0.320  -0.424  -1.731  1.00  0.00     0.174 HD
HETATM    4  C1  UNL     1       0.899   0.038  -0.205  1.00  0.00     0.667 C 
HETATM    5  N2  UNL     1      -0.042   0.930   0.384  1.00  0.00    -0.225 N 
ATOM      6  H2  UNL     1       0.247   1.479   1.193  1.00  0.00     0.177 HD
HETATM    7  N4  UNL     1       2.175  -0.173   0.406  1.00  0.00    -0.222 N 
ATOM      8  H4  UNL     1       2.253  -0.212   1.422  1.00  0.00     0.178 HD
ENDROOT
BRANCH   5   9
HETATM    9  C2  UNL     1      -1.383   1.090  -0.113  1.00  0.00     0.168 C 
BRANCH   9  10
HETATM   10  C3  UNL     1      -2.163  -0.170   0.160  1.00  0.00     0.292 C 
BRANCH  10  11
HETATM   11  N3  UNL     1      -3.515  -0.001  -0.345  1.00  0.00     0.093 N 
HETATM   12  C4  UNL     1      -4.463  -1.080  -0.229  1.00  0.00     0.302 A 
HETATM   13  C5  UNL     1      -4.527   0.096   0.662  1.00  0.00     0.302 A 
ENDBRANCH  10  11
ENDBRANCH   9  10
ENDBRANCH   5   9
BRANCH   7  14
HETATM   14  C6  UNL     1       3.336  -0.328  -0.402  1.00  0.00     0.099 A 
HETATM   15  C7  UNL     1       4.683  -0.548   0.171  1.00  0.00     0.028 A 
HETATM   16  C8  UNL     1       4.342   0.818  -0.294  1.00  0.00     0.028 A 
ENDBRANCH   7  14
TORSDOF 4
