REMARK  3 active torsions:
REMARK  status: ('A' for Active; 'I' for Inactive)
REMARK    1  A    between atoms: C2_2  and  C3_3 
REMARK    2  A    between atoms: C5_11  and  S1_12 
REMARK    3  A    between atoms: S1_12  and  C6_13 
ROOT
HETATM    1  C1  UNL     1       2.967   1.576  -0.677  1.00  0.00     0.092 C 
HETATM    2  C2  UNL     1       2.756   0.170  -0.117  1.00  0.00     0.255 C 
HETATM    3  O3  UNL     1       2.366  -0.660  -1.162  1.00  0.00    -0.319 OA
HETATM    4  C4  UNL     1       1.711  -1.789  -0.695  1.00  0.00     0.407 C 
HETATM    5  N1  UNL     1       0.408  -1.415  -0.124  1.00  0.00    -0.018 N 
ATOM      6  H11 UNL     1       0.131  -1.983   0.677  1.00  0.00     0.283 HD
ATOM      7  H12 UNL     1      -0.386  -1.654  -0.719  1.00  0.00     0.283 HD
HETATM    8  C5  UNL     1       0.514   0.005   0.172  1.00  0.00     0.396 C 
HETATM    9  O4  UNL     1       1.739   0.170   0.837  1.00  0.00    -0.304 OA
ENDROOT
BRANCH   8  10
HETATM   10  S1  UNL     1      -0.800   0.465   1.287  1.00  0.00    -0.070 SA
BRANCH  10  11
HETATM   11  C6  UNL     1      -2.412   0.342   0.583  1.00  0.00     0.004 A 
HETATM   12  C7  UNL     1      -3.488   0.683   1.398  1.00  0.00     0.018 A 
HETATM   13  C8  UNL     1      -4.775   0.614   0.925  1.00  0.00     0.001 A 
HETATM   14  C9  UNL     1      -5.065   0.210  -0.366  1.00  0.00     0.000 A 
HETATM   15  C10 UNL     1      -3.978  -0.129  -1.172  1.00  0.00     0.001 A 
HETATM   16  C11 UNL     1      -2.680  -0.063  -0.704  1.00  0.00     0.018 A 
ENDBRANCH  10  11
ENDBRANCH   8  10
BRANCH   2  17
HETATM   17  C3  UNL     1       4.061  -0.261   0.450  1.00  0.00     0.238 C 
HETATM   18  O1  UNL     1       4.618  -1.265  -0.059  1.00  0.00    -0.644 OA
HETATM   19  O2  UNL     1       4.638   0.444   1.519  1.00  0.00    -0.644 OA
ENDBRANCH   2  17
TORSDOF 3
