REMARK  5 active torsions:
REMARK  status: ('A' for Active; 'I' for Inactive)
REMARK    1  A    between atoms: C2_2  and  C4_4 
REMARK    2  A    between atoms: C4_4  and  O1_5 
REMARK    3  A    between atoms: C14_16  and  C16_18 
REMARK    4  A    between atoms: C16_18  and  C17_19 
REMARK    5  A    between atoms: C17_19  and  N1_20 
ROOT
HETATM    1  C4  UNL     1      -0.789   1.643  -0.729  1.00  0.00     0.062 C 
HETATM    2  C5  UNL     1      -1.828   0.601  -0.986  1.00  0.00     0.044 C 
HETATM    3  C6  UNL     1      -1.651  -0.492   0.013  1.00  0.00     0.001 C 
HETATM    4  C7  UNL     1      -0.361  -1.236  -0.127  1.00  0.00    -0.001 C 
HETATM    5  C8  UNL     1      -0.174  -2.027   1.148  1.00  0.00     0.006 C 
HETATM    6  C9  UNL     1      -1.353  -2.908   1.452  1.00  0.00     0.001 C 
HETATM    7  C10 UNL     1      -2.673  -2.207   1.359  1.00  0.00     0.009 C 
HETATM    8  C11 UNL     1      -2.810  -1.464   0.048  1.00  0.00    -0.044 C 
HETATM    9  C12 UNL     1      -4.102  -0.703  -0.022  1.00  0.00     0.015 C 
HETATM   10  C13 UNL     1      -2.782  -2.444  -1.091  1.00  0.00     0.015 C 
HETATM   11  C14 UNL     1       0.783  -0.316  -0.395  1.00  0.00    -0.036 C 
HETATM   12  C15 UNL     1       1.218  -0.559  -1.852  1.00  0.00     0.016 C 
HETATM   13  C20 UNL     1       0.499   1.135  -0.180  1.00  0.00     0.047 C 
ENDROOT
BRANCH  11  14
HETATM   14  C16 UNL     1       2.013  -0.670   0.428  1.00  0.00     0.040 C 
BRANCH  14  15
HETATM   15  C17 UNL     1       3.144   0.283   0.125  1.00  0.00     0.272 C 
BRANCH  15  16
HETATM   16  N1  UNL     1       4.326  -0.048   0.900  1.00  0.00     0.080 N 
HETATM   17  C18 UNL     1       5.349   0.934   0.527  1.00  0.00     0.309 C 
HETATM   18  C19 UNL     1       4.855  -1.350   0.580  1.00  0.00     0.309 C 
ENDBRANCH  15  16
ENDBRANCH  14  15
ENDBRANCH  11  14
BRANCH   1  19
HETATM   19  C2  UNL     1      -1.336   2.671   0.242  1.00  0.00     0.012 C 
HETATM   20  C1  UNL     1      -2.632   3.211  -0.296  1.00  0.00     0.012 C 
HETATM   21  C3  UNL     1      -0.340   3.768   0.524  1.00  0.00     0.012 C 
ENDBRANCH   1  19
BRANCH   1  22
HETATM   22  O1  UNL     1      -0.597   2.329  -1.951  1.00  0.00    -0.389 OA
ATOM     23  H1  UNL     1      -0.254   1.685  -2.559  1.00  0.00     0.210 HD
ENDBRANCH   1  22
TORSDOF 5
