REMARK  11 active torsions:
REMARK  status: ('A' for Active; 'I' for Inactive)
REMARK    1  A    between atoms: C2_2  and  C3_3 
REMARK    2  A    between atoms: C3_3  and  C4_4 
REMARK    3  A    between atoms: C4_4  and  C5_5 
REMARK    4  A    between atoms: C5_5  and  C6_6 
REMARK    5  A    between atoms: C6_6  and  C7_7 
REMARK    6  A    between atoms: N1_8  and  N2_10 
REMARK    7  A    between atoms: N2_10  and  C8_12 
REMARK    8  A    between atoms: C9_15  and  N4_16 
REMARK    9  A    between atoms: N6_22  and  C11_23 
REMARK   10  A    between atoms: C14_29  and  O1_30 
REMARK   11  A    between atoms: C15_32  and  O2_33 
ROOT
HETATM    1  C8  UNL     1       0.510  -1.721   0.043  1.00  0.00     0.699 C 
HETATM    2  N3  UNL     1      -0.120  -2.608  -0.725  1.00  0.00    -0.173 N 
ATOM      3  H3  UNL     1       0.382  -3.482  -0.883  1.00  0.00     0.186 HD
HETATM    4  C9  UNL     1      -1.309  -2.520  -1.316  1.00  0.00     0.145 C 
HETATM    5  C10 UNL     1      -2.344  -1.599  -1.107  1.00  0.00     0.124 A 
HETATM    6  N5  UNL     1      -3.626  -1.350  -1.354  1.00  0.00    -0.290 N 
ATOM      7  H5  UNL     1      -4.370  -1.837  -1.854  1.00  0.00     0.187 HD
HETATM    8  N6  UNL     1      -3.540  -0.195  -0.676  1.00  0.00    -0.252 N 
HETATM    9  C16 UNL     1      -2.236  -0.422  -0.411  1.00  0.00     0.123 A 
HETATM   10  C17 UNL     1      -1.102   0.082   0.217  1.00  0.00     0.147 C 
HETATM   11  S1  UNL     1      -1.284   1.646   0.671  1.00  0.00    -0.057 SA
HETATM   12  N8  UNL     1       0.066  -0.531   0.481  1.00  0.00    -0.178 N 
ATOM     13  H8  UNL     1       0.701  -0.023   1.097  1.00  0.00     0.185 HD
ENDROOT
BRANCH   8  14
HETATM   14  C11 UNL     1      -4.448   0.884  -0.342  1.00  0.00     0.338 C 
HETATM   15  N7  UNL     1      -5.643   0.739  -1.143  1.00  0.00    -0.043 N 
HETATM   16  C12 UNL     1      -6.761   1.103  -0.333  1.00  0.00     0.215 C 
ATOM     17  H72 UNL     1      -5.600   1.265  -2.016  1.00  0.00     0.280 HD
ATOM     18  H71 UNL     1      -5.736  -0.192  -1.549  1.00  0.00     0.280 HD
HETATM   19  C13 UNL     1      -7.845   0.043  -0.307  1.00  0.00     0.043 C 
HETATM   20  C14 UNL     1      -6.288   1.333   1.066  1.00  0.00     0.181 C 
HETATM   21  C15 UNL     1      -4.844   0.821   1.089  1.00  0.00     0.201 C 
BRANCH  20  22
HETATM   22  O1  UNL     1      -6.324   2.708   1.318  1.00  0.00    -0.391 OA
ATOM     23  H1  UNL     1      -6.023   2.854   2.207  1.00  0.00     0.210 HD
ENDBRANCH  20  22
BRANCH  21  24
HETATM   24  O2  UNL     1      -4.758  -0.445   1.645  1.00  0.00    -0.389 OA
ATOM     25  H2  UNL     1      -5.011  -0.485   2.560  1.00  0.00     0.210 HD
ENDBRANCH  21  24
ENDBRANCH   8  14
BRANCH   4  26
HETATM   26  N4  UNL     1      -1.566  -3.423  -2.232  1.00  0.00    -0.383 N 
ATOM     27  H42 UNL     1      -0.813  -4.093  -2.384  1.00  0.00     0.157 HD
ATOM     28  H41 UNL     1      -2.477  -3.356  -2.685  1.00  0.00     0.157 HD
ENDBRANCH   4  26
BRANCH   1  29
HETATM   29  N2  UNL     1       1.720  -2.053   0.421  1.00  0.00    -0.133 N 
ATOM     30  H2  UNL     1       2.131  -2.941   0.132  1.00  0.00     0.205 HD
BRANCH  29  31
HETATM   31  N1  UNL     1       2.422  -1.179   1.215  1.00  0.00    -0.301 N 
HETATM   32  C7  UNL     1       3.322  -0.371   0.808  1.00  0.00     0.080 C 
ATOM     33  H1  UNL     1       2.206  -1.176   2.212  1.00  0.00     0.186 HD
BRANCH  32  34
HETATM   34  C6  UNL     1       3.689  -0.316  -0.614  1.00  0.00     0.046 C 
BRANCH  34  35
HETATM   35  C5  UNL     1       5.099   0.297  -0.715  1.00  0.00     0.005 C 
BRANCH  35  36
HETATM   36  C4  UNL     1       6.046  -0.576   0.045  1.00  0.00     0.000 C 
BRANCH  36  37
HETATM   37  C3  UNL     1       7.476  -0.238   0.063  1.00  0.00    -0.000 C 
BRANCH  37  38
HETATM   38  C2  UNL     1       7.896   1.049   0.636  1.00  0.00    -0.005 C 
HETATM   39  C1  UNL     1       7.402   2.252  -0.105  1.00  0.00     0.005 C 
ENDBRANCH  37  38
ENDBRANCH  36  37
ENDBRANCH  35  36
ENDBRANCH  34  35
ENDBRANCH  32  34
ENDBRANCH  29  31
ENDBRANCH   1  29
TORSDOF 11
