REMARK  9 active torsions:
REMARK  status: ('A' for Active; 'I' for Inactive)
REMARK    1  A    between atoms: C3_4  and  C4_5 
REMARK    2  A    between atoms: N2_11  and  C7_12 
REMARK    3  A    between atoms: C7_12  and  O3_13 
REMARK    4  A    between atoms: C7_12  and  C8_15 
REMARK    5  A    between atoms: C9_16  and  C10_17 
REMARK    6  A    between atoms: C10_17  and  N3_18 
REMARK    7  A    between atoms: C10_17  and  C14_26 
REMARK    8  A    between atoms: N3_18  and  C11_20 
REMARK    9  A    between atoms: C11_20  and  C13_22 
ROOT
HETATM    1  C7  UNL     1      -1.462  -1.365   0.516  1.00  0.00     0.242 C 
ENDROOT
BRANCH   1   2
HETATM    2  N2  UNL     1      -2.219  -0.363  -0.083  1.00  0.00    -0.347 N 
HETATM    3  C3  UNL     1      -1.875   0.991   0.065  1.00  0.00     0.282 C 
HETATM    4  O1  UNL     1      -2.091   1.627  -1.163  1.00  0.00    -0.354 OA
HETATM    5  C2  UNL     1      -2.578   0.714  -2.057  1.00  0.00     0.142 C 
HETATM    6  C1  UNL     1      -1.646   0.473  -3.229  1.00  0.00     0.042 C 
HETATM    7  C15 UNL     1      -2.870  -0.581  -1.315  1.00  0.00     0.109 C 
HETATM    8  C16 UNL     1      -4.377  -0.598  -1.020  1.00  0.00     0.035 C 
BRANCH   3   9
HETATM    9  C4  UNL     1      -2.691   1.603   1.153  1.00  0.00     0.118 A 
HETATM   10  C5  UNL     1      -3.453   0.919   2.074  1.00  0.00     0.126 A 
HETATM   11  N1  UNL     1      -4.010   1.838   2.858  1.00  0.00    -0.354 N 
HETATM   12  C6  UNL     1      -3.623   3.064   2.460  1.00  0.00     0.233 A 
ATOM     13  H1  UNL     1      -4.635   1.643   3.641  1.00  0.00     0.166 HD
HETATM   14  O2  UNL     1      -2.820   2.891   1.419  1.00  0.00    -0.304 OA
ENDBRANCH   3   9
ENDBRANCH   1   2
BRANCH   1  15
HETATM   15  O3  UNL     1      -2.066  -2.637   0.431  1.00  0.00    -0.373 OA
ATOM     16  H3  UNL     1      -1.549  -3.321   0.840  1.00  0.00     0.212 HD
ENDBRANCH   1  15
BRANCH   1  17
HETATM   17  C8  UNL     1      -0.036  -1.481   0.097  1.00  0.00     0.024 C 
HETATM   18  C9  UNL     1       0.933  -0.922   0.776  1.00  0.00     0.009 C 
BRANCH  18  19
HETATM   19  C10 UNL     1       2.406  -0.997   0.408  1.00  0.00     0.202 C 
BRANCH  19  20
HETATM   20  N3  UNL     1       2.978   0.283   0.510  1.00  0.00    -0.397 N 
ATOM     21  H3  UNL     1       2.614   0.989   1.150  1.00  0.00     0.154 HD
BRANCH  20  22
HETATM   22  C11 UNL     1       4.077   0.531  -0.320  1.00  0.00     0.128 C 
HETATM   23  C12 UNL     1       5.269  -0.323   0.026  1.00  0.00     0.036 C 
BRANCH  22  24
HETATM   24  C13 UNL     1       4.479   2.000  -0.384  1.00  0.00     0.207 C 
HETATM   25 CL1  UNL     1       5.912   2.145  -1.460  1.00  0.00    -0.082 Cl
HETATM   26 CL2  UNL     1       4.904   2.665   1.182  1.00  0.00    -0.082 Cl
HETATM   27 CL3  UNL     1       3.165   2.934  -1.179  1.00  0.00    -0.082 Cl
ENDBRANCH  22  24
ENDBRANCH  20  22
ENDBRANCH  19  20
BRANCH  19  28
HETATM   28  C14 UNL     1       3.006  -2.068   1.253  1.00  0.00     0.200 C 
HETATM   29  O4  UNL     1       3.555  -1.852   2.358  1.00  0.00    -0.646 OA
HETATM   30  O5  UNL     1       2.969  -3.395   0.814  1.00  0.00    -0.646 OA
ENDBRANCH  19  28
ENDBRANCH  18  19
ENDBRANCH   1  17
TORSDOF 9
