REMARK  10 active torsions:
REMARK  status: ('A' for Active; 'I' for Inactive)
REMARK    1  A    between atoms: N1_2  and  C2_4 
REMARK    2  A    between atoms: C3_7  and  N3_8 
REMARK    3  A    between atoms: N3_8  and  C4_10 
REMARK    4  A    between atoms: C4_10  and  C5_11 
REMARK    5  A    between atoms: C5_11  and  O1_12 
REMARK    6  A    between atoms: O1_12  and  C6_13 
REMARK    7  A    between atoms: C10_17  and  O2_18 
REMARK    8  A    between atoms: O2_18  and  C11_19 
REMARK    9  A    between atoms: C13_26  and  N5_27 
REMARK   10  A    between atoms: N5_27  and  C14_29 
ROOT
HETATM    1  C14 UNL     1      -4.272   1.054  -1.688  1.00  0.00     0.049 A 
HETATM    2  C15 UNL     1      -5.365   0.263  -1.977  1.00  0.00     0.031 A 
HETATM    3  C16 UNL     1      -6.639   0.753  -1.776  1.00  0.00     0.025 A 
HETATM    4  C17 UNL     1      -6.882   2.017  -1.292  1.00  0.00     0.044 A 
HETATM    5  C18 UNL     1      -8.237   2.504  -1.091  1.00  0.00     0.099 C 
HETATM    6  N6  UNL     1      -9.313   2.908  -0.943  1.00  0.00    -0.191 NA
HETATM    7  C19 UNL     1      -5.790   2.811  -1.002  1.00  0.00     0.025 A 
HETATM    8  C20 UNL     1      -4.521   2.327  -1.200  1.00  0.00     0.031 A 
ENDROOT
BRANCH   1   9
HETATM    9  N5  UNL     1      -2.961   0.583  -1.882  1.00  0.00    -0.191 N 
ATOM     10  H5  UNL     1      -2.500   0.731  -2.780  1.00  0.00     0.184 HD
BRANCH   9  11
HETATM   11  C13 UNL     1      -2.329  -0.039  -0.931  1.00  0.00     0.711 A 
HETATM   12  N4  UNL     1      -1.077  -0.485  -1.127  1.00  0.00    -0.021 N 
HETATM   13  C3  UNL     1      -0.381  -1.132  -0.181  1.00  0.00     0.707 A 
ATOM     14  H4  UNL     1      -0.637  -0.325  -2.033  1.00  0.00     0.203 HD
HETATM   15  N2  UNL     1      -0.979  -1.333   1.006  1.00  0.00    -0.022 N 
HETATM   16  C2  UNL     1      -2.241  -0.910   1.272  1.00  0.00     0.706 A 
ATOM     17  H2  UNL     1      -0.463  -1.823   1.737  1.00  0.00     0.203 HD
HETATM   18  N7  UNL     1      -2.882  -0.267   0.274  1.00  0.00    -0.021 N 
ATOM     19  H7  UNL     1      -3.833   0.062   0.441  1.00  0.00     0.203 HD
BRANCH  13  20
HETATM   20  N3  UNL     1       0.823  -1.544  -0.412  1.00  0.00    -0.223 N 
ATOM     21  H3  UNL     1       1.263  -1.383  -1.318  1.00  0.00     0.177 HD
BRANCH  20  22
HETATM   22  C4  UNL     1       1.538  -2.243   0.650  1.00  0.00     0.164 C 
BRANCH  22  23
HETATM   23  C5  UNL     1       2.789  -2.852   0.116  1.00  0.00     0.196 C 
BRANCH  23  24
HETATM   24  O1  UNL     1       3.718  -2.006  -0.438  1.00  0.00    -0.349 OA
BRANCH  24  25
HETATM   25  C6  UNL     1       4.454  -0.983   0.097  1.00  0.00     0.071 A 
HETATM   26  C7  UNL     1       4.431  -0.565   1.408  1.00  0.00     0.037 A 
HETATM   27  C8  UNL     1       5.216   0.492   1.861  1.00  0.00     0.005 A 
HETATM   28  C9  UNL     1       6.045   1.145   0.984  1.00  0.00     0.037 A 
HETATM   29  C10 UNL     1       6.077   0.738  -0.322  1.00  0.00     0.081 A 
HETATM   30  C12 UNL     1       5.312  -0.295  -0.777  1.00  0.00     0.073 A 
BRANCH  29  31
HETATM   31  O2  UNL     1       6.915   1.400  -1.205  1.00  0.00    -0.255 OA
BRANCH  31  32
HETATM   32  C11 UNL     1       6.381   2.517  -1.892  1.00  0.00     0.530 C 
HETATM   33  F1  UNL     1       7.312   3.086  -2.737  1.00  0.00    -0.144 F 
HETATM   34  F2  UNL     1       6.022   3.503  -0.975  1.00  0.00    -0.144 F 
HETATM   35  F3  UNL     1       5.260   2.202  -2.619  1.00  0.00    -0.144 F 
ENDBRANCH  31  32
ENDBRANCH  29  31
ENDBRANCH  24  25
ENDBRANCH  23  24
ENDBRANCH  22  23
ENDBRANCH  20  22
ENDBRANCH  13  20
BRANCH  16  36
HETATM   36  N1  UNL     1      -2.807  -1.111   2.421  1.00  0.00    -0.229 N 
HETATM   37  C1  UNL     1      -2.035  -1.815   3.432  1.00  0.00     0.165 C 
ATOM     38  H1  UNL     1      -3.756  -0.788   2.608  1.00  0.00     0.177 HD
ENDBRANCH  16  36
ENDBRANCH   9  11
ENDBRANCH   1   9
TORSDOF 10
