REMARK  5 active torsions:
REMARK  status: ('A' for Active; 'I' for Inactive)
REMARK    1  A    between atoms: N1_2  and  C2_4 
REMARK    2  A    between atoms: C5_9  and  C6_10 
REMARK    3  A    between atoms: C7_11  and  C8_12 
REMARK    4  A    between atoms: C10_16  and  S1_17 
REMARK    5  A    between atoms: C15_23  and  N5_24 
ROOT
HETATM    1  C8  UNL     1       2.745  -0.190  -0.385  1.00  0.00     0.108 A 
HETATM    2  N3  UNL     1       3.396  -1.368  -0.288  1.00  0.00    -0.356 N 
ATOM      3  H3  UNL     1       2.892  -2.201   0.016  1.00  0.00     0.166 HD
HETATM    4  C9  UNL     1       4.703  -1.453  -0.588  1.00  0.00     0.107 A 
HETATM    5  C10 UNL     1       5.403  -0.346  -0.998  1.00  0.00     0.017 A 
HETATM    6  C12 UNL     1       4.760   0.865  -1.104  1.00  0.00     0.045 A 
HETATM    7  C13 UNL     1       3.413   0.953  -0.795  1.00  0.00     0.081 A 
HETATM    8  C14 UNL     1       2.689   2.205  -0.890  1.00  0.00     0.102 C 
HETATM    9  N4  UNL     1       2.094   3.196  -0.974  1.00  0.00    -0.191 NA
ENDROOT
BRANCH   1  10
HETATM   10  C7  UNL     1       1.334  -0.086  -0.064  1.00  0.00    -0.042 C 
HETATM   11  C6  UNL     1       0.163  -0.019   0.209  1.00  0.00    -0.056 C 
BRANCH  11  12
HETATM   12  C5  UNL     1      -1.245   0.056   0.490  1.00  0.00     0.064 A 
HETATM   13  C4  UNL     1      -2.154  -0.021  -0.577  1.00  0.00     0.058 A 
HETATM   14  C3  UNL     1      -3.509   0.047  -0.356  1.00  0.00     0.095 A 
HETATM   15  N2  UNL     1      -4.578  -0.000  -1.171  1.00  0.00    -0.188 N 
HETATM   16  C17 UNL     1      -4.021   0.194   0.925  1.00  0.00     0.150 A 
HETATM   17  C2  UNL     1      -5.711   0.108  -0.480  1.00  0.00     0.679 A 
ATOM     18  H2  UNL     1      -4.527  -0.105  -2.184  1.00  0.00     0.184 HD
HETATM   19  N7  UNL     1      -5.369   0.228   0.814  1.00  0.00    -0.174 N 
ATOM     20  H7  UNL     1      -6.023   0.329   1.590  1.00  0.00     0.186 HD
HETATM   21  N6  UNL     1      -3.150   0.265   1.914  1.00  0.00    -0.325 N 
HETATM   22  C15 UNL     1      -1.769   0.202   1.747  1.00  0.00     0.125 A 
ATOM     23  H6  UNL     1      -3.512   0.373   2.862  1.00  0.00     0.169 HD
BRANCH  17  24
HETATM   24  N1  UNL     1      -6.925   0.100  -0.964  1.00  0.00    -0.230 N 
HETATM   25  C1  UNL     1      -7.113  -0.039  -2.392  1.00  0.00     0.165 C 
ATOM     26  H1  UNL     1      -7.729   0.191  -0.343  1.00  0.00     0.177 HD
ENDBRANCH  17  24
BRANCH  22  27
HETATM   27  N5  UNL     1      -1.070   0.282   2.776  1.00  0.00    -0.361 N 
HETATM   28  C16 UNL     1       0.257   0.271   3.107  1.00  0.00     0.120 C 
ATOM     29  H5  UNL     1      -1.653   0.385   3.607  1.00  0.00     0.165 HD
ENDBRANCH  22  27
ENDBRANCH  11  12
ENDBRANCH   1  10
BRANCH   5  30
HETATM   30  S1  UNL     1       7.131  -0.446  -1.397  1.00  0.00    -0.133 SA
HETATM   31  C11 UNL     1       8.146  -0.129   0.088  1.00  0.00     0.095 C 
ENDBRANCH   5  30
TORSDOF 5
