REMARK  13 active torsions:
REMARK  status: ('A' for Active; 'I' for Inactive)
REMARK    1  A    between atoms: C2_2  and  O1_3 
REMARK    2  A    between atoms: O1_3  and  C3_4 
REMARK    3  A    between atoms: C3_4  and  C4_6 
REMARK    4  A    between atoms: C6_10  and  N2_11 
REMARK       I    between atoms: N2_11  and  C7_13 
REMARK       I    between atoms: C7_13  and  N3_15 
REMARK    5  A    between atoms: N3_15  and  C8_16 
REMARK    6  A    between atoms: N3_15  and  C23_36 
REMARK    7  A    between atoms: C8_16  and  C9_17 
REMARK    8  A    between atoms: C9_17  and  O4_18 
REMARK    9  A    between atoms: O4_18  and  C10_19 
REMARK   10  A    between atoms: C12_21  and  O5_22 
REMARK   11  A    between atoms: C18_30  and  C19_31 
REMARK   12  A    between atoms: C19_31  and  N5_32 
REMARK   13  A    between atoms: C23_36  and  C24_37 
ROOT
HETATM    1  N2  UNL     1       3.195  -0.715  -1.810  1.00  0.00    -0.289 N 
ATOM      2  H2  UNL     1       3.137  -1.438  -2.527  1.00  0.00     0.172 HD
HETATM    3  C7  UNL     1       2.052  -0.416  -1.077  1.00  0.00     0.324 C 
HETATM    4  O3  UNL     1       2.054   0.660  -0.406  1.00  0.00    -0.247 OA
HETATM    5  N3  UNL     1       0.931  -1.257  -1.072  1.00  0.00    -0.330 N 
ENDROOT
BRANCH   5   6
HETATM    6  C8  UNL     1      -0.269  -0.841  -0.320  1.00  0.00     0.154 C 
BRANCH   6   7
HETATM    7  C9  UNL     1      -1.187  -0.030  -1.188  1.00  0.00     0.195 C 
BRANCH   7   8
HETATM    8  O4  UNL     1      -2.323   0.351  -0.495  1.00  0.00    -0.348 OA
BRANCH   8   9
HETATM    9  C10 UNL     1      -3.300  -0.489  -0.062  1.00  0.00     0.085 A 
HETATM   10  C11 UNL     1      -3.225  -1.857  -0.347  1.00  0.00     0.074 A 
HETATM   11  C12 UNL     1      -4.221  -2.675   0.108  1.00  0.00     0.073 A 
HETATM   12  C14 UNL     1      -5.275  -2.188   0.826  1.00  0.00     0.067 A 
HETATM   13  C15 UNL     1      -5.347  -0.850   1.102  1.00  0.00     0.049 A 
HETATM   14  N4  UNL     1      -6.242  -0.123   1.806  1.00  0.00    -0.358 N 
HETATM   15  C22 UNL     1      -4.371   0.033   0.667  1.00  0.00     0.037 A 
HETATM   16  C16 UNL     1      -5.906   1.138   1.844  1.00  0.00     0.018 A 
ATOM     17  H4  UNL     1      -7.074  -0.510   2.251  1.00  0.00     0.166 HD
HETATM   18  C17 UNL     1      -6.570   2.306   2.492  1.00  0.00     0.069 C 
HETATM   19  C18 UNL     1      -4.673   1.291   1.098  1.00  0.00     0.012 A 
BRANCH  11  20
HETATM   20  O5  UNL     1      -4.164  -4.026  -0.162  1.00  0.00    -0.356 OA
HETATM   21  C13 UNL     1      -5.126  -4.958   0.251  1.00  0.00     0.210 C 
ENDBRANCH  11  20
BRANCH  19  22
HETATM   22  C19 UNL     1      -4.062   2.613   1.036  1.00  0.00     0.073 C 
BRANCH  22  23
HETATM   23  N5  UNL     1      -3.006   2.906   0.202  1.00  0.00    -0.300 NA
HETATM   24  C20 UNL     1      -3.460   3.288  -1.165  1.00  0.00     0.115 C 
HETATM   25  C21 UNL     1      -2.213   4.043   0.649  1.00  0.00     0.115 C 
ENDBRANCH  22  23
ENDBRANCH  19  22
ENDBRANCH   8   9
ENDBRANCH   7   8
ENDBRANCH   6   7
ENDBRANCH   5   6
BRANCH   5  26
HETATM   26  C23 UNL     1       0.953  -2.525  -1.751  1.00  0.00     0.153 C 
BRANCH  26  27
HETATM   27  C24 UNL     1       1.297  -3.712  -0.939  1.00  0.00     0.111 C 
HETATM   28  C25 UNL     1       2.595  -3.843  -0.247  1.00  0.00     0.129 C 
HETATM   29  C26 UNL     1       2.524  -5.288  -0.695  1.00  0.00     0.220 C 
HETATM   30  O6  UNL     1       2.953  -6.366  -0.258  1.00  0.00    -0.274 OA
HETATM   31  N6  UNL     1       1.767  -4.813  -1.796  1.00  0.00    -0.354 N 
ATOM     32  H6  UNL     1       1.615  -5.106  -2.761  1.00  0.00     0.162 HD
ENDBRANCH  26  27
ENDBRANCH   5  26
BRANCH   1  33
HETATM   33  C6  UNL     1       4.342  -0.112  -1.623  1.00  0.00     0.153 A 
HETATM   34  N1  UNL     1       5.487  -0.321  -2.265  1.00  0.00    -0.345 N 
HETATM   35  C5  UNL     1       6.525   0.386  -1.931  1.00  0.00     0.115 A 
ATOM     36  H1  UNL     1       5.550  -1.021  -3.004  1.00  0.00     0.167 HD
HETATM   37  C4  UNL     1       6.386   1.310  -0.934  1.00  0.00     0.099 A 
HETATM   38  S1  UNL     1       4.732   1.118  -0.512  1.00  0.00    -0.046 SA
BRANCH  37  39
HETATM   39  C3  UNL     1       7.394   2.227  -0.373  1.00  0.00     0.301 C 
HETATM   40  O2  UNL     1       8.534   2.194  -0.832  1.00  0.00    -0.259 OA
BRANCH  39  41
HETATM   41  O1  UNL     1       7.083   3.098   0.632  1.00  0.00    -0.317 OA
BRANCH  41  42
HETATM   42  C2  UNL     1       7.958   4.002   1.230  1.00  0.00     0.174 C 
HETATM   43  C1  UNL     1       9.149   3.358   1.894  1.00  0.00     0.034 C 
ENDBRANCH  41  42
ENDBRANCH  39  41
ENDBRANCH  37  39
ENDBRANCH   1  33
TORSDOF 13
