REMARK  13 active torsions:
REMARK  status: ('A' for Active; 'I' for Inactive)
REMARK    1  A    between atoms: O1_2  and  C2_3 
REMARK    2  A    between atoms: C2_3  and  C3_4 
REMARK       I    between atoms: C3_4  and  N1_6 
REMARK    3  A    between atoms: N1_6  and  C4_8 
REMARK    4  A    between atoms: C12_16  and  C13_17 
REMARK       I    between atoms: C13_17  and  N2_19 
REMARK    5  A    between atoms: C14_21  and  C15_22 
REMARK    6  A    between atoms: C14_21  and  C23_38 
REMARK       I    between atoms: C15_22  and  N3_24 
REMARK    7  A    between atoms: N3_24  and  C16_26 
REMARK    8  A    between atoms: C16_26  and  C17_27 
REMARK    9  A    between atoms: C16_26  and  C19_31 
REMARK   10  A    between atoms: C17_27  and  C18_28 
REMARK   11  A    between atoms: C19_31  and  C20_33 
REMARK   12  A    between atoms: C20_33  and  S1_34 
REMARK   13  A    between atoms: S1_34  and  C21_35 
ROOT
HETATM    1  C13 UNL     1      -1.062   0.024  -0.196  1.00  0.00     0.228 C 
HETATM    2  O3  UNL     1      -0.839   1.227   0.144  1.00  0.00    -0.273 OA
HETATM    3  N2  UNL     1      -0.306  -0.656  -1.100  1.00  0.00    -0.325 N 
ATOM      4  H2  UNL     1      -0.918  -1.207  -1.702  1.00  0.00     0.169 HD
HETATM    5  C14 UNL     1       0.884  -0.837  -1.446  1.00  0.00     0.087 C 
ENDROOT
BRANCH   5   6
HETATM    6  C15 UNL     1       1.990  -0.184  -0.776  1.00  0.00     0.265 C 
HETATM    7  O4  UNL     1       1.791   0.610   0.211  1.00  0.00    -0.266 OA
HETATM    8  N3  UNL     1       3.364  -0.330  -1.109  1.00  0.00    -0.344 N 
ATOM      9  H3  UNL     1       3.622  -0.951  -1.876  1.00  0.00     0.163 HD
BRANCH   8  10
HETATM   10  C16 UNL     1       4.425   0.384  -0.385  1.00  0.00     0.165 C 
BRANCH  10  11
HETATM   11  C17 UNL     1       5.300   1.163  -1.290  1.00  0.00     0.146 C 
BRANCH  11  12
HETATM   12  C18 UNL     1       4.633   2.200  -2.099  1.00  0.00     0.174 C 
HETATM   13  O5  UNL     1       3.421   2.449  -2.056  1.00  0.00    -0.648 OA
HETATM   14  O6  UNL     1       5.410   2.979  -2.995  1.00  0.00    -0.648 OA
ENDBRANCH  11  12
ENDBRANCH  10  11
BRANCH  10  15
HETATM   15  C19 UNL     1       5.253  -0.582   0.389  1.00  0.00     0.159 C 
HETATM   16  O7  UNL     1       4.941  -1.753   0.377  1.00  0.00    -0.295 OA
BRANCH  15  17
HETATM   17  C20 UNL     1       6.418  -0.128   1.147  1.00  0.00     0.162 C 
BRANCH  17  18
HETATM   18  S1  UNL     1       6.035   0.786   2.649  1.00  0.00    -0.086 SA
BRANCH  18  19
HETATM   19  C21 UNL     1       7.561   1.265   3.475  1.00  0.00     0.182 C 
HETATM   20  C22 UNL     1       8.870   0.804   2.887  1.00  0.00     0.104 C 
HETATM   21  O8  UNL     1       7.576   1.940   4.479  1.00  0.00    -0.286 OA
ENDBRANCH  18  19
ENDBRANCH  17  18
ENDBRANCH  15  17
ENDBRANCH  10  15
ENDBRANCH   8  10
ENDBRANCH   5   6
BRANCH   5  22
HETATM   22  C23 UNL     1       1.084  -1.745  -2.623  1.00  0.00    -0.003 C 
HETATM   23  C24 UNL     1       1.563  -0.896  -3.775  1.00  0.00     0.021 C 
HETATM   24  C25 UNL     1       2.045  -2.852  -2.384  1.00  0.00     0.021 C 
HETATM   25  C26 UNL     1      -0.265  -2.374  -2.947  1.00  0.00     0.021 C 
ENDBRANCH   5  22
BRANCH   1  26
HETATM   26  C12 UNL     1      -2.270  -0.603   0.500  1.00  0.00     0.101 C 
HETATM   27  C4  UNL     1      -2.807   0.371   1.463  1.00  0.00     0.097 C 
HETATM   28  C5  UNL     1      -3.349  -0.193   2.758  1.00  0.00     0.026 C 
HETATM   29  C6  UNL     1      -3.990  -1.559   2.622  1.00  0.00     0.002 C 
HETATM   30  C7  UNL     1      -5.384  -1.479   2.117  1.00  0.00     0.000 C 
HETATM   31  C8  UNL     1      -5.643  -2.021   0.753  1.00  0.00     0.000 C 
HETATM   32  C9  UNL     1      -4.691  -3.057   0.284  1.00  0.00     0.000 C 
HETATM   33  C10 UNL     1      -3.480  -2.624  -0.435  1.00  0.00     0.001 C 
HETATM   34  C11 UNL     1      -3.212  -1.156  -0.528  1.00  0.00     0.016 C 
BRANCH  27  35
HETATM   35  N1  UNL     1      -3.749   1.344   0.998  1.00  0.00    -0.354 N 
HETATM   36  C3  UNL     1      -3.728   2.733   1.195  1.00  0.00     0.241 C 
HETATM   37  O2  UNL     1      -2.813   3.254   1.856  1.00  0.00    -0.271 OA
ATOM     38  H1  UNL     1      -4.533   0.982   0.456  1.00  0.00     0.162 HD
BRANCH  36  39
HETATM   39  C2  UNL     1      -4.777   3.594   0.629  1.00  0.00     0.269 C 
BRANCH  39  40
HETATM   40  O1  UNL     1      -4.584   4.941   0.926  1.00  0.00    -0.387 OA
HETATM   41  C1  UNL     1      -5.577   5.733   0.357  1.00  0.00     0.202 C 
ENDBRANCH  39  40
ENDBRANCH  36  39
ENDBRANCH  27  35
ENDBRANCH   1  26
TORSDOF 13
