REMARK  13 active torsions:
REMARK  status: ('A' for Active; 'I' for Inactive)
REMARK    1  A    between atoms: C2_2  and  C3_3 
REMARK    2  A    between atoms: C3_3  and  N1_4 
REMARK    3  A    between atoms: N1_4  and  C4_6 
REMARK    4  A    between atoms: C6_13  and  N4_14 
REMARK    5  A    between atoms: N4_14  and  C7_16 
REMARK    6  A    between atoms: C10_19  and  O2_20 
REMARK    7  A    between atoms: O2_20  and  C11_21 
REMARK    8  A    between atoms: C11_21  and  C12_22 
REMARK    9  A    between atoms: C12_22  and  C13_23 
REMARK   10  A    between atoms: C13_23  and  N5_24 
REMARK   11  A    between atoms: N6_27  and  C16_28 
REMARK   12  A    between atoms: C21_33  and  N7_34 
REMARK   13  A    between atoms: C28_41  and  O3_42 
ROOT
HETATM    1  C7  UNL     1      -4.457  -1.499  -0.706  1.00  0.00     0.082 A 
HETATM    2  C8  UNL     1      -3.545  -0.467  -0.643  1.00  0.00     0.036 A 
HETATM    3  C9  UNL     1      -2.229  -0.674  -0.283  1.00  0.00     0.039 A 
HETATM    4  C10 UNL     1      -1.744  -1.920   0.033  1.00  0.00     0.071 A 
HETATM    5  C27 UNL     1      -2.669  -2.971  -0.030  1.00  0.00     0.075 A 
HETATM    6  C28 UNL     1      -3.978  -2.748  -0.390  1.00  0.00     0.098 A 
ENDROOT
BRANCH   4   7
HETATM    7  O2  UNL     1      -0.463  -2.230   0.394  1.00  0.00    -0.351 OA
BRANCH   7   8
HETATM    8  C11 UNL     1       0.614  -1.336   0.470  1.00  0.00     0.177 C 
BRANCH   8   9
HETATM    9  C12 UNL     1       0.964  -0.826  -0.870  1.00  0.00     0.057 C 
BRANCH   9  10
HETATM   10  C13 UNL     1       2.111   0.104  -1.025  1.00  0.00     0.274 C 
BRANCH  10  11
HETATM   11  N5  UNL     1       2.094   1.329  -0.316  1.00  0.00     0.091 N 
HETATM   12  C14 UNL     1       3.079   2.268  -0.929  1.00  0.00     0.292 C 
HETATM   13  C15 UNL     1       4.486   1.858  -0.761  1.00  0.00     0.153 C 
HETATM   14  N6  UNL     1       4.791   0.990   0.327  1.00  0.00    -0.377 N 
HETATM   15  C25 UNL     1       3.775   0.503   1.267  1.00  0.00     0.153 C 
HETATM   16  C26 UNL     1       2.487   1.265   1.084  1.00  0.00     0.292 C 
BRANCH  14  17
HETATM   17  C16 UNL     1       6.126   0.556   0.546  1.00  0.00     0.032 A 
HETATM   18  C17 UNL     1       6.466  -0.348   1.532  1.00  0.00     0.036 A 
HETATM   19  C18 UNL     1       7.744  -0.778   1.759  1.00  0.00    -0.058 A 
HETATM   20  C19 UNL     1       8.072  -1.754   2.831  1.00  0.00     0.048 C 
HETATM   21  C20 UNL     1       8.748  -0.272   0.951  1.00  0.00     0.036 A 
HETATM   22  C21 UNL     1       8.478   0.639  -0.058  1.00  0.00     0.032 A 
HETATM   23  C24 UNL     1       7.174   1.039  -0.246  1.00  0.00     0.058 A 
BRANCH  22  24
HETATM   24  N7  UNL     1       9.554   1.111  -0.842  1.00  0.00    -0.389 N 
HETATM   25  C22 UNL     1      10.304   2.283  -0.395  1.00  0.00     0.149 C 
HETATM   26  C23 UNL     1       9.932   0.469  -2.079  1.00  0.00     0.149 C 
ENDBRANCH  22  24
ENDBRANCH  14  17
ENDBRANCH  10  11
ENDBRANCH   9  10
ENDBRANCH   8   9
ENDBRANCH   7   8
ENDBRANCH   4   7
BRANCH   6  27
HETATM   27  O3  UNL     1      -4.875  -3.813  -0.444  1.00  0.00    -0.354 OA
HETATM   28  C29 UNL     1      -4.458  -5.121  -0.134  1.00  0.00     0.210 C 
ENDBRANCH   6  27
BRANCH   1  29
HETATM   29  N4  UNL     1      -5.805  -1.298  -1.078  1.00  0.00    -0.188 N 
ATOM     30  H4  UNL     1      -6.125  -1.645  -1.982  1.00  0.00     0.184 HD
BRANCH  29  31
HETATM   31  C6  UNL     1      -6.638  -0.693  -0.315  1.00  0.00     0.701 A 
HETATM   32  N3  UNL     1      -6.340  -0.192   0.897  1.00  0.00    -0.140 N 
HETATM   33  C5  UNL     1      -7.246   0.450   1.653  1.00  0.00     0.352 A 
ATOM     34  H3  UNL     1      -5.392  -0.304   1.255  1.00  0.00     0.189 HD
HETATM   35  N2  UNL     1      -8.498   0.598   1.182  1.00  0.00    -0.140 N 
HETATM   36  O1  UNL     1      -6.989   0.922   2.782  1.00  0.00    -0.246 OA
HETATM   37  C4  UNL     1      -8.842   0.114  -0.025  1.00  0.00     0.696 A 
ATOM     38  H2  UNL     1      -9.195   1.083   1.747  1.00  0.00     0.189 HD
HETATM   39  N8  UNL     1      -7.896  -0.527  -0.753  1.00  0.00    -0.022 N 
ATOM     40  H8  UNL     1      -8.149  -0.898  -1.669  1.00  0.00     0.203 HD
BRANCH  37  41
HETATM   41  N1  UNL     1     -10.016   0.238  -0.527  1.00  0.00    -0.225 N 
ATOM     42  H1  UNL     1     -10.190  -0.161  -1.449  1.00  0.00     0.177 HD
BRANCH  41  43
HETATM   43  C3  UNL     1     -11.101   0.909   0.139  1.00  0.00     0.137 C 
BRANCH  43  44
HETATM   44  C2  UNL     1     -10.977   2.401  -0.149  1.00  0.00     0.016 C 
HETATM   45  C1  UNL     1     -11.056   2.574  -1.646  1.00  0.00     0.006 C 
ENDBRANCH  43  44
ENDBRANCH  41  43
ENDBRANCH  37  41
ENDBRANCH  29  31
ENDBRANCH   1  29
TORSDOF 13
