REMARK  5 active torsions:
REMARK  status: ('A' for Active; 'I' for Inactive)
REMARK    1  A    between atoms: C2_2  and  N1_4 
REMARK       I    between atoms: N1_4  and  C4_6 
REMARK    2  A    between atoms: C4_6  and  C5_8 
REMARK    3  A    between atoms: C5_8  and  C6_9 
REMARK    4  A    between atoms: C10_14  and  N2_15 
REMARK    5  A    between atoms: C10_14  and  C11_19 
REMARK       I    between atoms: N4_23  and  C13_25 
ROOT
HETATM    1  C6  UNL     1      -0.431   0.654   0.951  1.00  0.00     0.105 C 
HETATM    2  S1  UNL     1      -0.489  -0.896   1.903  1.00  0.00    -0.145 SA
HETATM    3  C7  UNL     1      -1.776  -1.701   0.900  1.00  0.00     0.049 C 
HETATM    4  C8  UNL     1      -2.805  -2.385   1.774  1.00  0.00     0.030 C 
HETATM    5  C9  UNL     1      -1.073  -2.820   0.137  1.00  0.00     0.030 C 
HETATM    6  C10 UNL     1      -2.342  -0.646   0.062  1.00  0.00     0.255 C 
HETATM    7  C12 UNL     1      -1.718   0.652   0.254  1.00  0.00     0.050 C 
HETATM    8  N4  UNL     1      -2.275   1.739  -0.163  1.00  0.00    -0.334 N 
ATOM      9  H4  UNL     1      -3.172   1.636  -0.638  1.00  0.00     0.168 HD
HETATM   10  C13 UNL     1      -1.788   3.036  -0.036  1.00  0.00     0.186 C 
HETATM   11  N5  UNL     1      -1.699   3.626   1.084  1.00  0.00    -0.374 N 
ATOM     12  H51 UNL     1      -1.342   4.577   1.177  1.00  0.00     0.158 HD
ATOM     13  H52 UNL     1      -1.992   3.127   1.924  1.00  0.00     0.158 HD
HETATM   14  N6  UNL     1      -1.379   3.732  -1.208  1.00  0.00    -0.064 NA
ENDROOT
BRANCH   1  15
HETATM   15  C5  UNL     1       0.656   0.615  -0.090  1.00  0.00     0.124 C 
BRANCH  15  16
HETATM   16  C4  UNL     1       2.003   0.419   0.510  1.00  0.00     0.219 C 
HETATM   17  N1  UNL     1       3.099   0.368  -0.395  1.00  0.00    -0.357 N 
ATOM     18  H1  UNL     1       2.929   0.465  -1.396  1.00  0.00     0.162 HD
HETATM   19  O1  UNL     1       2.220   0.299   1.725  1.00  0.00    -0.274 OA
BRANCH  17  20
HETATM   20  C2  UNL     1       4.470   0.178   0.090  1.00  0.00     0.076 C 
HETATM   21  C1  UNL     1       5.034  -1.025  -0.625  1.00  0.00     0.032 C 
HETATM   22  C3  UNL     1       5.276   1.398  -0.368  1.00  0.00     0.032 C 
ENDBRANCH  17  20
ENDBRANCH  15  16
ENDBRANCH   1  15
BRANCH   6  23
HETATM   23  N2  UNL     1      -2.264  -1.041  -1.333  1.00  0.00    -0.055 N 
ATOM     24  H23 UNL     1      -1.314  -1.286  -1.612  1.00  0.00     0.276 HD
ATOM     25  H22 UNL     1      -2.704  -1.946  -1.503  1.00  0.00     0.276 HD
ATOM     26  H21 UNL     1      -2.659  -0.305  -1.918  1.00  0.00     0.276 HD
ENDBRANCH   6  23
BRANCH   6  27
HETATM   27  C11 UNL     1      -3.810  -0.483   0.370  1.00  0.00     0.275 C 
HETATM   28  N3  UNL     1      -4.809  -0.721  -0.589  1.00  0.00    -0.059 NA
HETATM   29  O2  UNL     1      -4.158  -0.124   1.516  1.00  0.00    -0.274 OA
ENDBRANCH   6  27
TORSDOF 5
