REMARK  5 active torsions:
REMARK  status: ('A' for Active; 'I' for Inactive)
REMARK    1  A    between atoms: C2_2  and  O1_5 
REMARK    2  A    between atoms: O1_5  and  C5_6 
REMARK       I    between atoms: C5_6  and  N1_8 
REMARK    3  A    between atoms: N1_8  and  C6_10 
REMARK    4  A    between atoms: C11_15  and  N2_16 
REMARK    5  A    between atoms: C12_17  and  O3_18 
ROOT
HETATM    1  C6  UNL     1      -0.817  -1.311  -0.069  1.00  0.00     0.110 C 
HETATM    2  C7  UNL     1      -0.969  -2.822   0.129  1.00  0.00     0.027 C 
HETATM    3  C8  UNL     1      -1.810  -3.298  -1.061  1.00  0.00     0.002 C 
HETATM    4  C9  UNL     1      -3.171  -2.645  -1.025  1.00  0.00     0.002 C 
HETATM    5  C10 UNL     1      -3.028  -1.150  -1.045  1.00  0.00     0.028 C 
HETATM    6  C11 UNL     1      -2.188  -0.724   0.165  1.00  0.00     0.119 C 
ENDROOT
BRANCH   1   7
HETATM    7  N1  UNL     1       0.209  -0.744   0.724  1.00  0.00    -0.330 N 
HETATM    8  C5  UNL     1       1.313  -0.107   0.113  1.00  0.00     0.361 C 
HETATM    9  O2  UNL     1       1.420  -0.024  -1.147  1.00  0.00    -0.238 OA
ATOM     10  H1  UNL     1       0.152  -0.795   1.741  1.00  0.00     0.165 HD
BRANCH   8  11
HETATM   11  O1  UNL     1       2.333   0.457   0.865  1.00  0.00    -0.294 OA
BRANCH  11  12
HETATM   12  C2  UNL     1       3.416   1.082   0.208  1.00  0.00     0.061 C 
HETATM   13  C1  UNL     1       4.419   1.633   1.176  1.00  0.00     0.046 C 
HETATM   14  C3  UNL     1       4.152   0.080  -0.681  1.00  0.00     0.046 C 
HETATM   15  C4  UNL     1       2.838   2.169  -0.671  1.00  0.00     0.046 C 
ENDBRANCH  11  12
ENDBRANCH   8  11
ENDBRANCH   1   7
BRANCH   6  16
HETATM   16  N2  UNL     1      -2.182   0.691   0.352  1.00  0.00    -0.272 N 
HETATM   17  C12 UNL     1      -2.386   1.323   1.544  1.00  0.00     0.162 A 
HETATM   18  C13 UNL     1      -2.315   2.686   1.371  1.00  0.00     0.149 A 
HETATM   19  N3  UNL     1      -2.065   2.882   0.062  1.00  0.00    -0.314 N 
HETATM   20  C14 UNL     1      -1.989   1.678  -0.527  1.00  0.00     0.328 A 
ATOM     21  H3  UNL     1      -1.953   3.785  -0.400  1.00  0.00     0.170 HD
HETATM   22  O4  UNL     1      -1.765   1.529  -1.752  1.00  0.00    -0.246 OA
BRANCH  17  23
HETATM   23  O3  UNL     1      -2.634   0.721   2.777  1.00  0.00    -0.345 OA
ATOM     24  H3  UNL     1      -2.776   1.161   3.607  1.00  0.00     0.219 HD
ENDBRANCH  17  23
ENDBRANCH   6  16
TORSDOF 5
