REMARK  3 active torsions:
REMARK  status: ('A' for Active; 'I' for Inactive)
REMARK    1  A    between atoms: C5_7  and  C6_8 
REMARK    2  A    between atoms: C6_8  and  C7_9 
REMARK    3  A    between atoms: C7_9  and  C8_10 
REMARK       I    between atoms: C8_10  and  N2_12 
ROOT
HETATM    1  C6  UNL     1      -0.542   1.616  -0.939  1.00  0.00     0.068 C 
ENDROOT
BRANCH   1   2
HETATM    2  C5  UNL     1      -1.603   0.736  -0.426  1.00  0.00     0.032 A 
HETATM    3  C3  UNL     1      -2.100   0.969   0.856  1.00  0.00     0.028 A 
HETATM    4  N1  UNL     1      -3.085   0.175   1.317  1.00  0.00    -0.360 N 
HETATM    5  C4  UNL     1      -1.546   2.079   1.685  1.00  0.00     0.070 C 
HETATM    6  C2  UNL     1      -3.581  -0.826   0.552  1.00  0.00     0.028 A 
ATOM      7  H1  UNL     1      -3.461   0.329   2.252  1.00  0.00     0.165 HD
HETATM    8  C1  UNL     1      -4.647  -1.670   1.077  1.00  0.00     0.070 C 
HETATM    9  C13 UNL     1      -3.106  -1.073  -0.711  1.00  0.00     0.028 A 
HETATM   10  N4  UNL     1      -2.129  -0.285  -1.168  1.00  0.00    -0.360 N 
HETATM   11  C14 UNL     1      -3.662  -2.156  -1.502  1.00  0.00     0.070 C 
ATOM     12  H4  UNL     1      -1.762  -0.451  -2.105  1.00  0.00     0.165 HD
ENDBRANCH   1   2
BRANCH   1  13
HETATM   13  C7  UNL     1       0.820   1.413  -0.377  1.00  0.00     0.109 C 
BRANCH  13  14
HETATM   14  C8  UNL     1       1.352   0.070  -0.658  1.00  0.00     0.226 C 
HETATM   15  O1  UNL     1       0.720  -0.731  -1.428  1.00  0.00    -0.273 OA
HETATM   16  N2  UNL     1       2.601  -0.369  -0.070  1.00  0.00    -0.293 N 
HETATM   17  C9  UNL     1       3.121  -1.636  -0.329  1.00  0.00     0.143 C 
HETATM   18  C11 UNL     1       3.343   0.462   0.780  1.00  0.00     0.100 C 
HETATM   19  N3  UNL     1       2.752  -2.500  -1.226  1.00  0.00    -0.380 N 
HETATM   20  S1  UNL     1       4.450  -1.892   0.837  1.00  0.00    -0.092 SA
ATOM     21  H32 UNL     1       1.993  -2.354  -1.892  1.00  0.00     0.158 HD
ATOM     22  H31 UNL     1       3.133  -3.427  -1.416  1.00  0.00     0.158 HD
HETATM   23  C10 UNL     1       4.233  -0.297   1.694  1.00  0.00     0.107 C 
HETATM   24  C12 UNL     1       4.162   1.461  -0.014  1.00  0.00     0.034 C 
ENDBRANCH  13  14
ENDBRANCH   1  13
TORSDOF 3
