REMARK  0 active torsions:
REMARK  status: ('A' for Active; 'I' for Inactive)
ROOT
HETATM    1  C1  UNL     1      -0.956  -0.484   0.538  1.00  0.00     0.038 C 
HETATM    2  C2  UNL     1       0.049  -1.033  -0.426  1.00  0.00     0.234 C 
HETATM    3  N1  UNL     1       1.384  -0.825   0.089  1.00  0.00    -0.066 N 
ATOM      4  H11 UNL     1       2.006  -1.585  -0.185  1.00  0.00     0.278 HD
ATOM      5  H12 UNL     1       1.411  -0.948   1.101  1.00  0.00     0.278 HD
HETATM    6  C3  UNL     1       1.931   0.464  -0.296  1.00  0.00     0.317 C 
HETATM    7  S1  UNL     1       1.122   1.795   0.665  1.00  0.00    -0.070 SA
HETATM    8  S2  UNL     1      -0.760   2.147  -0.283  1.00  0.00    -0.096 SA
HETATM    9  C4  UNL     1      -1.768   0.651  -0.038  1.00  0.00     0.088 C 
ENDROOT
TORSDOF 0
