REMARK  0 active torsions:
REMARK  status: ('A' for Active; 'I' for Inactive)
ROOT
HETATM    1  N1  UNL     1       3.166  -1.131  -0.589  1.00  0.00    -0.374 N 
ATOM      2  H11 UNL     1       3.118  -2.148  -0.651  1.00  0.00     0.158 HD
ATOM      3  H12 UNL     1       3.900  -0.424  -0.548  1.00  0.00     0.158 HD
HETATM    4  C1  UNL     1       1.978  -0.564  -0.550  1.00  0.00     0.175 C 
HETATM    5  O1  UNL     1       2.045   0.841  -0.465  1.00  0.00    -0.331 OA
HETATM    6  C2  UNL     1       1.021   1.835  -0.104  1.00  0.00     0.178 C 
HETATM    7  C3  UNL     1      -0.182   1.082   0.005  1.00  0.00     0.027 C 
HETATM    8  C4  UNL     1      -1.519   0.933   0.326  1.00  0.00     0.003 C 
HETATM    9  C5  UNL     1      -1.811  -0.573   0.031  1.00  0.00     0.011 C 
HETATM   10  C6  UNL     1      -0.736  -1.509   0.436  1.00  0.00     0.083 C 
HETATM   11  S1  UNL     1       0.668  -1.827  -0.623  1.00  0.00    -0.087 SA
ENDROOT
TORSDOF 0
