REMARK  0 active torsions:
REMARK  status: ('A' for Active; 'I' for Inactive)
ROOT
HETATM    1  C1  UNL     1       2.206   0.269  -0.266  1.00  0.00     0.000 C 
HETATM    2  C2  UNL     1       1.573  -1.060  -0.597  1.00  0.00     0.002 C 
HETATM    3  C3  UNL     1       0.268  -1.261   0.134  1.00  0.00     0.034 C 
HETATM    4  C4  UNL     1      -0.685  -0.144  -0.217  1.00  0.00     0.061 C 
HETATM    5  C5  UNL     1      -0.098   1.212   0.091  1.00  0.00     0.034 C 
HETATM    6  C6  UNL     1       1.325   1.169   0.526  1.00  0.00     0.002 C 
HETATM    7  C7  UNL     1      -1.995  -0.387   0.474  1.00  0.00     0.169 C 
HETATM    8  N1  UNL     1      -2.920   0.151  -0.479  1.00  0.00    -0.123 NA
HETATM    9  N2  UNL     1      -2.299   0.019  -1.706  1.00  0.00    -0.250 N 
ATOM     10  H2  UNL     1      -2.792   0.053  -2.598  1.00  0.00     0.203 HD
HETATM   11  N3  UNL     1      -1.062  -0.147  -1.599  1.00  0.00    -0.314 N 
ATOM     12  H3  UNL     1      -0.418  -0.267  -2.381  1.00  0.00     0.182 HD
ENDROOT
TORSDOF 0
