REMARK  0 active torsions:
REMARK  status: ('A' for Active; 'I' for Inactive)
ROOT
HETATM    1  C1  UNL     1       1.014   1.575   0.255  1.00  0.00     0.000 C 
HETATM    2  C2  UNL     1      -0.273   2.115  -0.214  1.00  0.00     0.000 C 
HETATM    3  C3  UNL     1      -1.524   1.583   0.336  1.00  0.00     0.001 C 
HETATM    4  C4  UNL     1      -1.509   0.264   1.008  1.00  0.00     0.018 C 
HETATM    5  C5  UNL     1      -1.940  -0.850   0.047  1.00  0.00     0.134 C 
HETATM    6  N1  UNL     1      -1.028  -1.973   0.152  1.00  0.00    -0.146 NA
HETATM    7  N2  UNL     1       0.057  -1.706  -0.661  1.00  0.00    -0.340 N 
ATOM      8  H2  UNL     1      -0.048  -1.376  -1.620  1.00  0.00     0.175 HD
HETATM    9  C6  UNL     1       1.330  -1.924  -0.066  1.00  0.00     0.135 C 
HETATM   10  C7  UNL     1       2.137  -0.651   0.001  1.00  0.00     0.021 C 
HETATM   11  C8  UNL     1       1.511   0.501  -0.711  1.00  0.00     0.002 C 
ENDROOT
TORSDOF 0
