REMARK  1 active torsions:
REMARK  status: ('A' for Active; 'I' for Inactive)
REMARK    1  A    between atoms: N1_1  and  C1_5 
ROOT
HETATM    1  C1  UNL     1       1.314  -0.353   0.456  1.00  0.00     0.185 C 
HETATM    2  C2  UNL     1       0.431  -1.229  -0.381  1.00  0.00     0.033 C 
HETATM    3  C3  UNL     1      -0.889  -1.511   0.297  1.00  0.00     0.002 C 
HETATM    4  C4  UNL     1      -2.035  -0.911  -0.493  1.00  0.00     0.005 C 
HETATM    5  C5  UNL     1      -2.003   0.617  -0.420  1.00  0.00     0.044 C 
HETATM    6  C6  UNL     1      -1.417   1.106   0.835  1.00  0.00     0.055 C 
HETATM    7  N2  UNL     1      -0.309   1.687   0.973  1.00  0.00    -0.402 N 
ATOM      8  H2  UNL     1      -0.048   1.965   1.919  1.00  0.00     0.158 HD
HETATM    9  C7  UNL     1       0.615   1.993  -0.066  1.00  0.00     0.120 C 
HETATM   10  C8  UNL     1       1.618   0.910  -0.324  1.00  0.00     0.052 C 
ENDROOT
BRANCH   1  11
HETATM   11  N1  UNL     1       2.542  -1.116   0.725  1.00  0.00    -0.075 N 
ATOM     12  H13 UNL     1       2.364  -2.027   1.148  1.00  0.00     0.274 HD
ATOM     13  H12 UNL     1       2.999  -1.453  -0.122  1.00  0.00     0.274 HD
ATOM     14  H11 UNL     1       3.143  -0.520   1.294  1.00  0.00     0.274 HD
ENDBRANCH   1  11
TORSDOF 1
