REMARK  1 active torsions:
REMARK  status: ('A' for Active; 'I' for Inactive)
REMARK    1  A    between atoms: N1_1  and  N2_4 
ROOT
HETATM    1  N2  UNL     1      -1.981   0.324   0.435  1.00  0.00    -0.175 N 
HETATM    2  C1  UNL     1      -1.973  -1.041  -0.188  1.00  0.00     0.183 C 
HETATM    3  C2  UNL     1      -0.839  -1.850   0.309  1.00  0.00     0.024 C 
HETATM    4  C3  UNL     1       0.510  -1.682  -0.212  1.00  0.00     0.002 C 
HETATM    5  C4  UNL     1       0.811  -0.752  -1.300  1.00  0.00     0.000 C 
HETATM    6  C5  UNL     1       2.009   0.105  -1.065  1.00  0.00     0.000 C 
HETATM    7  C6  UNL     1       2.094   0.872   0.193  1.00  0.00     0.006 C 
HETATM    8  C7  UNL     1       1.121   2.006   0.364  1.00  0.00     0.061 C 
HETATM    9  C8  UNL     1       0.032   1.505   1.328  1.00  0.00     0.183 C 
HETATM   10  N3  UNL     1      -0.940   0.935   0.897  1.00  0.00    -0.325 NA
ENDROOT
BRANCH   1  11
HETATM   11  N1  UNL     1      -3.297   0.869   0.433  1.00  0.00    -0.318 N 
ATOM     12  H12 UNL     1      -4.119   0.387   0.068  1.00  0.00     0.179 HD
ATOM     13  H11 UNL     1      -3.302   1.797   0.857  1.00  0.00     0.179 HD
ENDBRANCH   1  11
TORSDOF 1
