REMARK  10 active torsions:
REMARK  status: ('A' for Active; 'I' for Inactive)
REMARK    1  A    between atoms: O1_2  and  C2_3 
REMARK    2  A    between atoms: C4_5  and  C5_6 
REMARK    3  A    between atoms: C11_19  and  O5_20 
REMARK    4  A    between atoms: O5_20  and  C12_21 
REMARK    5  A    between atoms: C12_21  and  C13_23 
REMARK    6  A    between atoms: C13_23  and  O8_25 
REMARK    7  A    between atoms: O8_25  and  C14_26 
REMARK    8  A    between atoms: C14_26  and  C16_30 
REMARK    9  A    between atoms: C15_27  and  O9_28 
REMARK   10  A    between atoms: C17_33  and  O12_34 
ROOT
HETATM    1  C2  UNL     1      -1.366  -2.133  -0.848  1.00  0.00     0.105 A 
HETATM    2  C3  UNL     1      -2.377  -1.197  -0.833  1.00  0.00     0.051 A 
HETATM    3  C4  UNL     1      -2.056   0.135  -0.951  1.00  0.00    -0.030 A 
HETATM    4  C10 UNL     1      -0.706   0.513  -1.085  1.00  0.00     0.052 A 
HETATM    5  C11 UNL     1       0.291  -0.433  -1.099  1.00  0.00     0.116 A 
HETATM    6  C17 UNL     1      -0.021  -1.767  -0.981  1.00  0.00     0.135 A 
ENDROOT
BRANCH   5   7
HETATM    7  O5  UNL     1       1.627  -0.087  -1.230  1.00  0.00    -0.268 OA
BRANCH   7   8
HETATM    8  C12 UNL     1       2.385   0.279  -0.130  1.00  0.00     0.364 C 
HETATM    9  O6  UNL     1       1.859   0.301   1.010  1.00  0.00    -0.253 OA
BRANCH   8  10
HETATM   10  C13 UNL     1       3.792   0.649  -0.222  1.00  0.00     0.365 C 
HETATM   11  O7  UNL     1       4.349   0.635  -1.363  1.00  0.00    -0.253 OA
BRANCH  10  12
HETATM   12  O8  UNL     1       4.553   1.012   0.854  1.00  0.00    -0.262 OA
BRANCH  12  13
HETATM   13  C14 UNL     1       5.903   1.368   0.773  1.00  0.00     0.177 C 
HETATM   14  C15 UNL     1       6.869   0.481   0.888  1.00  0.00     0.175 C 
BRANCH  14  15
HETATM   15  O9  UNL     1       6.509  -0.850   1.096  1.00  0.00    -0.370 OA
ATOM     16  H9  UNL     1       7.206  -1.490   1.179  1.00  0.00     0.216 HD
ENDBRANCH  14  15
BRANCH  13  17
HETATM   17  C16 UNL     1       6.217   2.762   0.555  1.00  0.00     0.236 C 
HETATM   18  O10 UNL     1       5.315   3.622   0.443  1.00  0.00    -0.642 OA
HETATM   19  O11 UNL     1       7.539   3.151   0.470  1.00  0.00    -0.642 OA
ENDBRANCH  13  17
ENDBRANCH  12  13
ENDBRANCH  10  12
ENDBRANCH   8  10
ENDBRANCH   7   8
ENDBRANCH   5   7
BRANCH   6  20
HETATM   20  O12 UNL     1       0.989  -2.691  -0.997  1.00  0.00    -0.351 OA
HETATM   21  C18 UNL     1       1.707  -3.208   0.072  1.00  0.00     0.210 C 
ENDBRANCH   6  20
BRANCH   3  22
HETATM   22  C5  UNL     1      -3.057   1.153  -0.924  1.00  0.00     0.034 C 
HETATM   23  C6  UNL     1      -3.943   1.497  -0.039  1.00  0.00     0.101 A 
HETATM   24  C7  UNL     1      -4.136   0.872   1.255  1.00  0.00     0.265 A 
HETATM   25  C9  UNL     1      -4.894   2.600  -0.340  1.00  0.00     0.265 A 
HETATM   26  O2  UNL     1      -3.412  -0.068   1.657  1.00  0.00    -0.267 OA
HETATM   27  N1  UNL     1      -5.159   1.290   2.153  1.00  0.00    -0.275 N 
HETATM   28  C8  UNL     1      -6.042   2.342   1.828  1.00  0.00     0.329 A 
ATOM     29  H1  UNL     1      -5.256   0.818   3.052  1.00  0.00     0.173 HD
HETATM   30  O3  UNL     1      -6.945   2.686   2.662  1.00  0.00    -0.246 OA
HETATM   31  N2  UNL     1      -5.890   2.979   0.582  1.00  0.00    -0.275 N 
ATOM     32  H2  UNL     1      -6.523   3.741   0.338  1.00  0.00     0.173 HD
HETATM   33  O4  UNL     1      -4.809   3.210  -1.440  1.00  0.00    -0.267 OA
ENDBRANCH   3  22
BRANCH   1  34
HETATM   34  O1  UNL     1      -1.635  -3.499  -0.731  1.00  0.00    -0.353 OA
HETATM   35  C1  UNL     1      -2.943  -3.979  -0.593  1.00  0.00     0.210 C 
ENDBRANCH   1  34
TORSDOF 10
