REMARK  10 active torsions:
REMARK  status: ('A' for Active; 'I' for Inactive)
REMARK    1  A    between atoms: C2_2  and  C3_4 
REMARK    2  A    between atoms: C3_4  and  C4_5 
REMARK    3  A    between atoms: C4_5  and  C5_6 
REMARK    4  A    between atoms: C5_6  and  N1_7 
REMARK    5  A    between atoms: N1_7  and  C6_9 
REMARK    6  A    between atoms: C6_9  and  C7_10 
REMARK    7  A    between atoms: C9_13  and  O3_14 
REMARK    8  A    between atoms: C16_24  and  O6_26 
REMARK    9  A    between atoms: C19_29  and  O7_30 
REMARK   10  A    between atoms: C19_29  and  C20_32 
ROOT
HETATM    1  C7  UNL     1      -0.063  -0.049   0.337  1.00  0.00     0.213 A 
HETATM    2  O2  UNL     1      -0.834  -0.974   1.009  1.00  0.00    -0.347 OA
HETATM    3  C8  UNL     1      -0.866  -2.256   0.641  1.00  0.00     0.213 C 
HETATM    4  C9  UNL     1      -2.117  -2.846   0.110  1.00  0.00     0.118 C 
HETATM    5  C10 UNL     1      -2.469  -4.194   0.726  1.00  0.00     0.154 C 
HETATM    6  C11 UNL     1      -3.905  -4.301   0.355  1.00  0.00     0.262 C 
HETATM    7  O4  UNL     1      -4.556  -5.400   0.388  1.00  0.00    -0.265 OA
HETATM    8  O5  UNL     1      -4.370  -3.078  -0.007  1.00  0.00    -0.309 OA
HETATM    9  C12 UNL     1      -3.375  -2.039   0.256  1.00  0.00     0.192 C 
HETATM   10  C13 UNL     1      -3.469  -1.047  -0.831  1.00  0.00     0.014 C 
HETATM   11  C14 UNL     1      -3.069   0.201  -0.860  1.00  0.00    -0.051 C 
HETATM   12  C15 UNL     1      -3.280   1.033  -2.117  1.00  0.00     0.046 C 
HETATM   13  C16 UNL     1      -2.405   0.933   0.253  1.00  0.00     0.092 C 
HETATM   14  C17 UNL     1      -3.122   2.291   0.307  1.00  0.00     0.051 C 
HETATM   15  C18 UNL     1      -0.957   1.115  -0.063  1.00  0.00     0.162 A 
HETATM   16  C19 UNL     1      -0.127   2.016   0.749  1.00  0.00     0.239 A 
HETATM   17  O9  UNL     1       0.655   0.882   1.059  1.00  0.00    -0.305 OA
ENDROOT
BRANCH   1  18
HETATM   18  C6  UNL     1       0.767  -0.662  -0.719  1.00  0.00     0.124 C 
BRANCH  18  19
HETATM   19  N1  UNL     1       1.674   0.102  -1.479  1.00  0.00    -0.398 N 
ATOM     20  H1  UNL     1       1.470   0.336  -2.451  1.00  0.00     0.158 HD
BRANCH  19  21
HETATM   21  C5  UNL     1       2.891   0.545  -0.860  1.00  0.00     0.119 C 
BRANCH  21  22
HETATM   22  C4  UNL     1       3.855  -0.607  -0.585  1.00  0.00     0.027 C 
BRANCH  22  23
HETATM   23  C3  UNL     1       5.112  -0.145   0.111  1.00  0.00     0.079 C 
BRANCH  23  24
HETATM   24  C2  UNL     1       5.897   0.858  -0.652  1.00  0.00     0.123 C 
HETATM   25  C1  UNL     1       7.170   0.451  -1.346  1.00  0.00     0.091 C 
HETATM   26  O1  UNL     1       5.545   2.031  -0.745  1.00  0.00    -0.298 OA
ENDBRANCH  23  24
ENDBRANCH  22  23
ENDBRANCH  21  22
ENDBRANCH  19  21
ENDBRANCH  18  19
ENDBRANCH   1  18
BRANCH  13  27
HETATM   27  O6  UNL     1      -2.675   0.360   1.482  1.00  0.00    -0.385 OA
ATOM     28  H6  UNL     1      -2.251   0.827   2.192  1.00  0.00     0.211 HD
ENDBRANCH  13  27
BRANCH  16  29
HETATM   29  O7  UNL     1       0.504   2.995  -0.029  1.00  0.00    -0.359 OA
ATOM     30  H7  UNL     1       1.041   3.577   0.496  1.00  0.00     0.213 HD
ENDBRANCH  16  29
BRANCH  16  31
HETATM   31  C20 UNL     1      -0.573   2.624   1.998  1.00  0.00     0.185 C 
HETATM   32  C21 UNL     1      -0.420   4.117   2.231  1.00  0.00     0.097 C 
HETATM   33  O8  UNL     1      -1.084   2.056   2.942  1.00  0.00    -0.292 OA
ENDBRANCH  16  31
BRANCH   4  34
HETATM   34  O3  UNL     1      -1.991  -3.121  -1.270  1.00  0.00    -0.384 OA
ATOM     35  H3  UNL     1      -2.793  -3.499  -1.610  1.00  0.00     0.210 HD
ENDBRANCH   4  34
TORSDOF 10
