REMARK  2 active torsions:
REMARK  status: ('A' for Active; 'I' for Inactive)
REMARK    1  A    between atoms: C2_2  and  C4_4 
REMARK    2  A    between atoms: C4_4  and  C5_5 
ROOT
HETATM    1  C5  UNL     1      -0.222   0.070   0.046  1.00  0.00     0.172 C 
HETATM    2  N1  UNL     1      -0.124  -0.691   1.235  1.00  0.00    -0.402 N 
ATOM      3  H1  UNL     1      -0.896  -0.742   1.900  1.00  0.00     0.155 HD
HETATM    4  C6  UNL     1       1.090  -1.378   1.462  1.00  0.00     0.118 C 
HETATM    5  C7  UNL     1       2.333  -0.648   1.086  1.00  0.00     0.049 C 
HETATM    6  C8  UNL     1       2.178   0.229  -0.122  1.00  0.00     0.021 C 
HETATM    7  C9  UNL     1       3.265  -0.189  -1.123  1.00  0.00     0.037 C 
HETATM    8  C10 UNL     1       2.496   1.667   0.292  1.00  0.00     0.037 C 
HETATM    9  N2  UNL     1       0.931   0.103  -0.782  1.00  0.00    -0.394 N 
ATOM     10  H2  UNL     1       0.865   0.039  -1.798  1.00  0.00     0.156 HD
ENDROOT
BRANCH   1  11
HETATM   11  C4  UNL     1      -1.390  -0.361  -0.823  1.00  0.00     0.050 C 
BRANCH  11  12
HETATM   12  C2  UNL     1      -2.708  -0.216  -0.109  1.00  0.00    -0.019 C 
HETATM   13  C1  UNL     1      -2.989   1.205   0.310  1.00  0.00     0.009 C 
HETATM   14  C3  UNL     1      -3.786  -0.626  -1.110  1.00  0.00     0.009 C 
ENDBRANCH  11  12
ENDBRANCH   1  11
TORSDOF 2
