REMARK  15 active torsions:
REMARK  status: ('A' for Active; 'I' for Inactive)
REMARK    1  A    between atoms: C2_2  and  C3_3 
REMARK    2  A    between atoms: C3_3  and  C5_5 
REMARK    3  A    between atoms: C6_8  and  O1_9 
REMARK    4  A    between atoms: C7_11  and  C8_12 
REMARK    5  A    between atoms: C8_12  and  C9_13 
REMARK    6  A    between atoms: C13_20  and  C14_21 
REMARK    7  A    between atoms: C14_21  and  C15_22 
REMARK    8  A    between atoms: C19_29  and  C20_30 
REMARK    9  A    between atoms: C20_30  and  C21_31 
REMARK   10  A    between atoms: C25_38  and  C26_39 
REMARK   11  A    between atoms: C26_39  and  C27_40 
REMARK   12  A    between atoms: C27_40  and  C28_41 
REMARK   13  A    between atoms: C28_41  and  C29_42 
REMARK   14  A    between atoms: C29_42  and  N5_43 
REMARK   15  A    between atoms: C31_51  and  C32_52 
ROOT
HETATM    1  C5  UNL     1      -2.548  -2.212   1.269  1.00  0.00     0.179 C 
HETATM    2  N1  UNL     1      -2.566  -0.837   1.568  1.00  0.00    -0.356 N 
ATOM      3  H1  UNL     1      -2.108  -0.652   2.460  1.00  0.00     0.162 HD
HETATM    4  C6  UNL     1      -3.027   0.332   0.998  1.00  0.00     0.159 C 
HETATM    5  C7  UNL     1      -3.237   0.806  -0.377  1.00  0.00     0.063 C 
HETATM    6  N2  UNL     1      -2.310   1.738  -0.914  1.00  0.00    -0.325 N 
ATOM      7  H2  UNL     1      -2.677   2.182  -1.756  1.00  0.00     0.169 HD
HETATM    8  C12 UNL     1      -1.050   2.207  -0.609  1.00  0.00     0.244 C 
HETATM    9  O2  UNL     1      -0.085   1.737  -1.326  1.00  0.00    -0.271 OA
HETATM   10  C13 UNL     1      -0.539   3.188   0.411  1.00  0.00     0.177 C 
HETATM   11  N3  UNL     1       0.017   2.602   1.584  1.00  0.00    -0.346 N 
ATOM     12  H3  UNL     1      -0.663   2.213   2.238  1.00  0.00     0.163 HD
HETATM   13  C18 UNL     1       1.372   2.478   1.980  1.00  0.00     0.241 C 
HETATM   14  O3  UNL     1       1.703   2.893   3.149  1.00  0.00    -0.271 OA
HETATM   15  C19 UNL     1       2.508   1.918   1.232  1.00  0.00     0.177 C 
HETATM   16  N4  UNL     1       2.910   0.753   2.078  1.00  0.00    -0.346 N 
ATOM     17  H4  UNL     1       3.465   0.965   2.907  1.00  0.00     0.163 HD
HETATM   18  C24 UNL     1       2.613  -0.582   1.861  1.00  0.00     0.241 C 
HETATM   19  O4  UNL     1       2.029  -1.223   2.824  1.00  0.00    -0.271 OA
HETATM   20  C25 UNL     1       2.870  -1.413   0.663  1.00  0.00     0.177 C 
HETATM   21  N6  UNL     1       1.877  -1.313  -0.362  1.00  0.00    -0.343 N 
ATOM     22  H6  UNL     1       2.006  -0.579  -1.058  1.00  0.00     0.163 HD
HETATM   23  C30 UNL     1       0.722  -2.143  -0.504  1.00  0.00     0.265 C 
HETATM   24  O5  UNL     1      -0.182  -1.602  -1.194  1.00  0.00    -0.266 OA
HETATM   25  C31 UNL     1       0.522  -3.472   0.045  1.00  0.00     0.083 C 
HETATM   26  N7  UNL     1      -0.306  -3.588   1.222  1.00  0.00    -0.324 N 
ATOM     27  H7  UNL     1      -0.155  -4.460   1.729  1.00  0.00     0.169 HD
HETATM   28  C35 UNL     1      -1.243  -2.792   1.805  1.00  0.00     0.245 C 
HETATM   29  O6  UNL     1      -1.081  -2.416   3.024  1.00  0.00    -0.271 OA
ENDROOT
BRANCH  20  30
HETATM   30  C26 UNL     1       4.249  -1.108   0.049  1.00  0.00     0.035 C 
BRANCH  30  31
HETATM   31  C27 UNL     1       4.485  -1.977  -1.165  1.00  0.00     0.004 C 
BRANCH  31  32
HETATM   32  C28 UNL     1       5.867  -1.613  -1.688  1.00  0.00     0.027 C 
BRANCH  32  33
HETATM   33  C29 UNL     1       6.215  -2.430  -2.915  1.00  0.00     0.229 C 
BRANCH  33  34
HETATM   34  N5  UNL     1       7.529  -2.087  -3.410  1.00  0.00    -0.079 N 
ATOM     35  H53 UNL     1       7.615  -1.086  -3.588  1.00  0.00     0.274 HD
ATOM     36  H52 UNL     1       8.240  -2.177  -2.684  1.00  0.00     0.274 HD
ATOM     37  H51 UNL     1       7.763  -2.637  -4.236  1.00  0.00     0.274 HD
ENDBRANCH  33  34
ENDBRANCH  32  33
ENDBRANCH  31  32
ENDBRANCH  30  31
ENDBRANCH  20  30
BRANCH  15  38
HETATM   38  C20 UNL     1       3.743   2.727   1.133  1.00  0.00     0.038 C 
BRANCH  38  39
HETATM   39  C21 UNL     1       3.767   4.053   0.526  1.00  0.00    -0.020 C 
HETATM   40  C22 UNL     1       2.933   5.072   1.211  1.00  0.00     0.009 C 
HETATM   41  C23 UNL     1       3.533   4.038  -0.982  1.00  0.00     0.009 C 
ENDBRANCH  38  39
ENDBRANCH  15  38
BRANCH  25  42
HETATM   42  C32 UNL     1       0.244  -4.564  -0.970  1.00  0.00     0.033 C 
HETATM   43  C33 UNL     1      -0.945  -4.421  -1.818  1.00  0.00     0.016 C 
HETATM   44  C34 UNL     1       1.469  -4.745  -1.885  1.00  0.00     0.016 C 
ENDBRANCH  25  42
BRANCH  10  45
HETATM   45  C14 UNL     1      -1.510   4.288   0.662  1.00  0.00     0.038 C 
BRANCH  45  46
HETATM   46  C15 UNL     1      -1.201   5.341   1.634  1.00  0.00    -0.020 C 
HETATM   47  C16 UNL     1      -2.417   6.330   1.555  1.00  0.00     0.009 C 
HETATM   48  C17 UNL     1      -1.307   4.895   3.106  1.00  0.00     0.009 C 
ENDBRANCH  45  46
ENDBRANCH  10  45
BRANCH   1  49
HETATM   49  C3  UNL     1      -3.599  -3.112   1.873  1.00  0.00     0.013 C 
HETATM   50  C4  UNL     1      -3.331  -4.549   1.294  1.00  0.00     0.012 C 
BRANCH  49  51
HETATM   51  C2  UNL     1      -5.018  -2.889   1.596  1.00  0.00     0.002 C 
HETATM   52  C1  UNL     1      -5.567  -1.606   2.095  1.00  0.00     0.005 C 
ENDBRANCH  49  51
ENDBRANCH   1  49
BRANCH   4  53
HETATM   53  O1  UNL     1      -3.359   1.235   1.884  1.00  0.00    -0.345 OA
ATOM     54  H1  UNL     1      -3.676   2.040   1.492  1.00  0.00     0.219 HD
ENDBRANCH   4  53
BRANCH   5  55
HETATM   55  C8  UNL     1      -3.767  -0.228  -1.295  1.00  0.00     0.065 C 
BRANCH  55  56
HETATM   56  C9  UNL     1      -4.022   0.118  -2.710  1.00  0.00    -0.017 C 
HETATM   57  C10 UNL     1      -2.880   0.490  -3.591  1.00  0.00     0.010 C 
HETATM   58  C11 UNL     1      -4.771  -1.015  -3.423  1.00  0.00     0.010 C 
ENDBRANCH  55  56
ENDBRANCH   5  55
TORSDOF 15
