REMARK  15 active torsions:
REMARK  status: ('A' for Active; 'I' for Inactive)
REMARK    1  A    between atoms: C2_2  and  C3_3 
REMARK    2  A    between atoms: C3_3  and  C5_5 
REMARK    3  A    between atoms: C6_8  and  O1_9 
REMARK    4  A    between atoms: C7_11  and  C8_12 
REMARK    5  A    between atoms: C8_12  and  C9_13 
REMARK    6  A    between atoms: C13_18  and  C14_19 
REMARK    7  A    between atoms: C14_19  and  C15_20 
REMARK    8  A    between atoms: C15_20  and  C16_21 
REMARK    9  A    between atoms: C16_21  and  N2_22 
REMARK       I    between atoms: N2_22  and  C17_24 
REMARK   10  A    between atoms: C18_31  and  O3_32 
REMARK   11  A    between atoms: C20_35  and  C21_36 
REMARK   12  A    between atoms: C25_41  and  O4_42 
REMARK   13  A    between atoms: C26_44  and  C27_45 
REMARK   14  A    between atoms: C27_45  and  C28_46 
REMARK   15  A    between atoms: C31_51  and  O5_52 
ROOT
HETATM    1  C5  UNL     1      -1.968  -3.320  -0.527  1.00  0.00     0.179 C 
HETATM    2  N1  UNL     1      -3.063  -2.454  -0.239  1.00  0.00    -0.357 N 
ATOM      3  H1  UNL     1      -3.694  -2.407  -1.039  1.00  0.00     0.162 HD
HETATM    4  C6  UNL     1      -3.531  -1.667   0.776  1.00  0.00     0.150 C 
HETATM    5  C7  UNL     1      -3.098  -0.440   1.488  1.00  0.00     0.059 C 
HETATM    6  C12 UNL     1      -2.397   0.468   0.579  1.00  0.00     0.186 C 
HETATM    7  O2  UNL     1      -2.523   0.181  -0.635  1.00  0.00    -0.290 OA
HETATM    8  C13 UNL     1      -1.565   1.652   0.708  1.00  0.00     0.159 C 
HETATM    9  N5  UNL     1      -0.191   1.223   0.413  1.00  0.00    -0.357 N 
ATOM     10  H5  UNL     1      -0.157   0.595  -0.390  1.00  0.00     0.162 HD
HETATM   11  C18 UNL     1       1.045   1.443   0.929  1.00  0.00     0.164 C 
HETATM   12  C19 UNL     1       2.084   2.490   0.846  1.00  0.00     0.083 C 
HETATM   13  C20 UNL     1       1.809   3.751   0.198  1.00  0.00     0.011 C 
HETATM   14  N6  UNL     1       3.428   1.910   0.635  1.00  0.00    -0.331 N 
HETATM   15  C24 UNL     1       4.503   2.830   1.108  1.00  0.00     0.158 C 
HETATM   16  C25 UNL     1       3.793   0.666   0.106  1.00  0.00     0.141 C 
HETATM   17  C26 UNL     1       3.662  -0.007  -1.180  1.00  0.00     0.158 C 
HETATM   18  N7  UNL     1       2.392  -0.336  -1.724  1.00  0.00    -0.361 N 
ATOM     19  H7  UNL     1       1.782   0.477  -1.808  1.00  0.00     0.162 HD
HETATM   20  C31 UNL     1       1.786  -1.502  -2.168  1.00  0.00     0.135 C 
HETATM   21  C32 UNL     1       1.370  -2.748  -1.488  1.00  0.00     0.155 C 
HETATM   22  C33 UNL     1       1.201  -2.594   0.005  1.00  0.00     0.041 C 
HETATM   23  N8  UNL     1       0.124  -3.263  -2.064  1.00  0.00    -0.348 N 
ATOM     24  H8  UNL     1       0.256  -3.918  -2.835  1.00  0.00     0.163 HD
HETATM   25  C34 UNL     1      -1.184  -3.020  -1.750  1.00  0.00     0.241 C 
HETATM   26  O6  UNL     1      -1.901  -2.426  -2.653  1.00  0.00    -0.271 OA
ENDROOT
BRANCH   8  27
HETATM   27  C14 UNL     1      -1.699   2.538   1.845  1.00  0.00     0.035 C 
BRANCH  27  28
HETATM   28  C15 UNL     1      -2.931   3.262   2.170  1.00  0.00     0.022 C 
BRANCH  28  29
HETATM   29  C16 UNL     1      -3.445   4.267   1.232  1.00  0.00     0.122 C 
BRANCH  29  30
HETATM   30  N2  UNL     1      -3.878   3.837  -0.051  1.00  0.00    -0.365 N 
HETATM   31  C17 UNL     1      -4.237   4.814  -1.040  1.00  0.00     0.181 C 
HETATM   32  N3  UNL     1      -3.323   5.425  -1.696  1.00  0.00    -0.374 N 
HETATM   33  N4  UNL     1      -5.585   5.148  -1.329  1.00  0.00    -0.064 NA
ATOM     34  H32 UNL     1      -2.354   5.185  -1.488  1.00  0.00     0.158 HD
ATOM     35  H31 UNL     1      -3.578   6.119  -2.399  1.00  0.00     0.158 HD
ATOM     36  H2  UNL     1      -3.933   2.842  -0.268  1.00  0.00     0.162 HD
ENDBRANCH  29  30
ENDBRANCH  28  29
ENDBRANCH  27  28
ENDBRANCH   8  27
BRANCH   5  37
HETATM   37  C8  UNL     1      -2.686  -0.536   2.873  1.00  0.00    -0.003 C 
BRANCH  37  38
HETATM   38  C9  UNL     1      -1.574  -1.287   3.423  1.00  0.00     0.001 C 
HETATM   39  C10 UNL     1      -1.460  -1.080   4.966  1.00  0.00     0.013 C 
HETATM   40  C11 UNL     1      -1.673  -2.788   3.335  1.00  0.00     0.013 C 
ENDBRANCH  37  38
ENDBRANCH   5  37
BRANCH  11  41
HETATM   41  O3  UNL     1       1.523   0.516   1.731  1.00  0.00    -0.345 OA
ATOM     42  H3  UNL     1       2.388   0.670   2.092  1.00  0.00     0.219 HD
ENDBRANCH  11  41
BRANCH   4  43
HETATM   43  O1  UNL     1      -4.685  -2.105   1.263  1.00  0.00    -0.346 OA
ATOM     44  H1  UNL     1      -5.010  -1.558   1.968  1.00  0.00     0.219 HD
ENDBRANCH   4  43
BRANCH  13  45
HETATM   45  C21 UNL     1       1.432   3.925  -1.200  1.00  0.00     0.002 C 
HETATM   46  C22 UNL     1       2.404   3.483  -2.248  1.00  0.00     0.013 C 
HETATM   47  C23 UNL     1       1.244   5.444  -1.412  1.00  0.00     0.013 C 
ENDBRANCH  13  45
BRANCH   1  48
HETATM   48  C3  UNL     1      -2.450  -4.767  -0.763  1.00  0.00     0.013 C 
HETATM   49  C4  UNL     1      -3.092  -5.266   0.504  1.00  0.00     0.012 C 
BRANCH  48  50
HETATM   50  C2  UNL     1      -3.409  -4.888  -1.895  1.00  0.00     0.002 C 
HETATM   51  C1  UNL     1      -3.801  -6.368  -2.055  1.00  0.00     0.005 C 
ENDBRANCH  48  50
ENDBRANCH   1  48
BRANCH  16  52
HETATM   52  O4  UNL     1       4.413  -0.088   0.992  1.00  0.00    -0.348 OA
ATOM     53  H4  UNL     1       4.661  -0.932   0.633  1.00  0.00     0.219 HD
ENDBRANCH  16  52
BRANCH  17  54
HETATM   54  C27 UNL     1       4.566  -1.240  -1.317  1.00  0.00     0.037 C 
BRANCH  54  55
HETATM   55  C28 UNL     1       6.030  -0.930  -1.218  1.00  0.00    -0.020 C 
HETATM   56  C29 UNL     1       6.872  -2.188  -1.357  1.00  0.00     0.009 C 
HETATM   57  C30 UNL     1       6.380   0.024  -2.372  1.00  0.00     0.009 C 
ENDBRANCH  54  55
ENDBRANCH  17  54
BRANCH  20  58
HETATM   58  O5  UNL     1       1.480  -1.612  -3.431  1.00  0.00    -0.348 OA
ATOM     59  H5  UNL     1       1.065  -2.411  -3.735  1.00  0.00     0.219 HD
ENDBRANCH  20  58
TORSDOF 15
