REMARK  15 active torsions:
REMARK  status: ('A' for Active; 'I' for Inactive)
REMARK    1  A    between atoms: C2_2  and  C3_3 
REMARK    2  A    between atoms: C3_3  and  C4_4 
REMARK    3  A    between atoms: C6_9  and  C7_10 
REMARK    4  A    between atoms: C7_10  and  C8_11 
REMARK    5  A    between atoms: C11_16  and  O2_17 
REMARK    6  A    between atoms: C12_19  and  C13_20 
REMARK    7  A    between atoms: C17_27  and  C18_28 
REMARK    8  A    between atoms: C18_28  and  C19_29 
REMARK    9  A    between atoms: C22_34  and  O4_35 
REMARK   10  A    between atoms: C23_37  and  C24_38 
REMARK   11  A    between atoms: C29_45  and  C30_46 
REMARK   12  A    between atoms: C30_46  and  C31_47 
REMARK   13  A    between atoms: C31_47  and  C32_48 
REMARK   14  A    between atoms: C32_48  and  N6_49 
REMARK   15  A    between atoms: C34_56  and  O6_57 
ROOT
HETATM    1  C4  UNL     1       0.370  -3.251   0.122  1.00  0.00     0.159 C 
HETATM    2  N1  UNL     1      -0.167  -2.724  -1.089  1.00  0.00    -0.347 N 
ATOM      3  H1  UNL     1       0.499  -2.218  -1.673  1.00  0.00     0.163 HD
HETATM    4  C5  UNL     1      -1.484  -2.796  -1.604  1.00  0.00     0.241 C 
HETATM    5  O1  UNL     1      -1.629  -3.173  -2.806  1.00  0.00    -0.271 OA
HETATM    6  C6  UNL     1      -2.738  -2.473  -0.887  1.00  0.00     0.175 C 
HETATM    7  N2  UNL     1      -3.335  -1.368  -1.672  1.00  0.00    -0.359 N 
ATOM      8  H2  UNL     1      -3.386  -1.529  -2.678  1.00  0.00     0.162 HD
HETATM    9  C11 UNL     1      -3.831  -0.158  -1.247  1.00  0.00     0.135 C 
HETATM   10  C12 UNL     1      -3.828   0.484   0.077  1.00  0.00     0.162 C 
HETATM   11  N3  UNL     1      -2.494   0.884   0.482  1.00  0.00    -0.347 N 
ATOM     12  H3  UNL     1      -1.744   0.230   0.258  1.00  0.00     0.163 HD
HETATM   13  C16 UNL     1      -2.110   2.054   1.141  1.00  0.00     0.241 C 
HETATM   14  O3  UNL     1      -1.452   1.878   2.235  1.00  0.00    -0.271 OA
HETATM   15  C17 UNL     1      -2.328   3.465   0.803  1.00  0.00     0.175 C 
HETATM   16  N4  UNL     1      -1.159   4.246   1.231  1.00  0.00    -0.359 N 
ATOM     17  H4  UNL     1      -1.336   5.225   1.458  1.00  0.00     0.162 HD
HETATM   18  C22 UNL     1       0.159   3.820   1.366  1.00  0.00     0.136 C 
HETATM   19  C23 UNL     1       1.037   3.056   0.475  1.00  0.00     0.164 C 
HETATM   20  N5  UNL     1       2.128   2.431   1.201  1.00  0.00    -0.342 N 
HETATM   21  C27 UNL     1       3.258   3.224   1.724  1.00  0.00     0.153 C 
HETATM   22  C28 UNL     1       2.245   1.052   1.497  1.00  0.00     0.243 C 
HETATM   23  O5  UNL     1       2.652   0.663   2.658  1.00  0.00    -0.271 OA
HETATM   24  C29 UNL     1       1.941  -0.094   0.584  1.00  0.00     0.175 C 
HETATM   25  N9  UNL     1       0.922  -0.938   1.199  1.00  0.00    -0.359 N 
ATOM     26  H9  UNL     1       0.244  -0.412   1.751  1.00  0.00     0.162 HD
HETATM   27  C34 UNL     1       0.681  -2.297   1.192  1.00  0.00     0.135 C 
ENDROOT
BRANCH  24  28
HETATM   28  C30 UNL     1       3.252  -0.812   0.413  1.00  0.00     0.036 C 
BRANCH  28  29
HETATM   29  C31 UNL     1       4.364  -0.019  -0.154  1.00  0.00     0.022 C 
BRANCH  29  30
HETATM   30  C32 UNL     1       5.570  -0.976  -0.233  1.00  0.00     0.122 C 
BRANCH  30  31
HETATM   31  N6  UNL     1       6.725  -0.316  -0.767  1.00  0.00    -0.367 N 
HETATM   32  C33 UNL     1       7.702  -0.973  -1.266  1.00  0.00     0.196 C 
HETATM   33  N7  UNL     1       7.710  -2.392  -1.326  1.00  0.00    -0.067 NA
HETATM   34  N8  UNL     1       8.827  -0.276  -1.785  1.00  0.00    -0.067 NA
ATOM     35  H6  UNL     1       6.769   0.703  -0.748  1.00  0.00     0.161 HD
ENDBRANCH  30  31
ENDBRANCH  29  30
ENDBRANCH  28  29
ENDBRANCH  24  28
BRANCH  27  36
HETATM   36  O6  UNL     1       0.733  -2.853   2.372  1.00  0.00    -0.348 OA
ATOM     37  H6  UNL     1       0.934  -2.235   3.065  1.00  0.00     0.219 HD
ENDBRANCH  27  36
BRANCH  19  38
HETATM   38  C24 UNL     1       1.494   3.805  -0.733  1.00  0.00     0.008 C 
HETATM   39  C25 UNL     1       2.254   5.077  -0.459  1.00  0.00     0.012 C 
HETATM   40  C26 UNL     1       2.341   2.919  -1.662  1.00  0.00     0.012 C 
ENDBRANCH  19  38
BRANCH   1  41
HETATM   41  C3  UNL     1       1.470  -4.221  -0.252  1.00  0.00     0.033 C 
BRANCH  41  42
HETATM   42  C2  UNL     1       2.141  -4.868   0.923  1.00  0.00    -0.002 C 
HETATM   43  C1  UNL     1       3.198  -5.815   0.335  1.00  0.00     0.005 C 
ENDBRANCH  41  42
ENDBRANCH   1  41
BRANCH  18  44
HETATM   44  O4  UNL     1       0.713   4.166   2.490  1.00  0.00    -0.348 OA
ATOM     45  H4  UNL     1       1.613   3.875   2.582  1.00  0.00     0.219 HD
ENDBRANCH  18  44
BRANCH  15  46
HETATM   46  C18 UNL     1      -2.592   3.773  -0.632  1.00  0.00     0.038 C 
BRANCH  46  47
HETATM   47  C19 UNL     1      -2.907   5.196  -0.977  1.00  0.00    -0.020 C 
HETATM   48  C20 UNL     1      -4.144   5.691  -0.231  1.00  0.00     0.009 C 
HETATM   49  C21 UNL     1      -1.863   6.217  -0.852  1.00  0.00     0.009 C 
ENDBRANCH  46  47
ENDBRANCH  15  46
BRANCH   6  50
HETATM   50  C7  UNL     1      -3.748  -3.538  -0.929  1.00  0.00     0.038 C 
BRANCH  50  51
HETATM   51  C8  UNL     1      -3.549  -4.871  -0.364  1.00  0.00    -0.020 C 
HETATM   52  C9  UNL     1      -3.259  -4.948   1.086  1.00  0.00     0.009 C 
HETATM   53  C10 UNL     1      -2.583  -5.707  -1.150  1.00  0.00     0.009 C 
ENDBRANCH  50  51
ENDBRANCH   6  50
BRANCH   9  54
HETATM   54  O2  UNL     1      -4.408   0.560  -2.166  1.00  0.00    -0.348 OA
ATOM     55  H2  UNL     1      -4.751   1.396  -1.872  1.00  0.00     0.219 HD
ENDBRANCH   9  54
BRANCH  10  56
HETATM   56  C13 UNL     1      -4.537  -0.271   1.164  1.00  0.00     0.008 C 
HETATM   57  C14 UNL     1      -6.016  -0.474   0.790  1.00  0.00     0.012 C 
HETATM   58  C15 UNL     1      -4.558   0.566   2.429  1.00  0.00     0.012 C 
ENDBRANCH  10  56
TORSDOF 15
