REMARK  11 active torsions:
REMARK  status: ('A' for Active; 'I' for Inactive)
REMARK    1  A    between atoms: C2_2  and  C4_4 
REMARK    2  A    between atoms: C4_4  and  C5_5 
REMARK    3  A    between atoms: C4_4  and  N2_22 
REMARK    4  A    between atoms: C5_5  and  C6_6 
REMARK    5  A    between atoms: C5_5  and  N1_17 
REMARK    6  A    between atoms: C6_6  and  O1_7 
REMARK    7  A    between atoms: C6_6  and  C7_9 
REMARK    8  A    between atoms: N1_17  and  O2_18 
REMARK    9  A    between atoms: N1_17  and  C13_20 
REMARK   10  A    between atoms: C16_26  and  C18_28 
REMARK   11  A    between atoms: C18_28  and  O4_29 
ROOT
HETATM    1  C5  UNL     1       0.651  -1.104   0.059  1.00  0.00     0.169 C 
ENDROOT
BRANCH   1   2
HETATM    2  C4  UNL     1      -0.826  -1.254   0.160  1.00  0.00     0.118 C 
BRANCH   2   3
HETATM    3  C2  UNL     1      -1.227  -2.475  -0.695  1.00  0.00     0.003 C 
HETATM    4  C1  UNL     1      -0.876  -2.339  -2.128  1.00  0.00     0.011 C 
HETATM    5  C3  UNL     1      -2.685  -2.813  -0.474  1.00  0.00     0.011 C 
ENDBRANCH   2   3
BRANCH   2   6
HETATM    6  N2  UNL     1      -1.635  -0.130  -0.137  1.00  0.00    -0.341 N 
HETATM    7  C14 UNL     1      -1.823   0.664  -1.316  1.00  0.00     0.165 C 
HETATM    8  C15 UNL     1      -2.690   1.851  -0.964  1.00  0.00     0.207 C 
HETATM    9  F3  UNL     1      -1.972   2.973  -0.610  1.00  0.00    -0.246 F 
HETATM   10  C16 UNL     1      -3.463   1.359   0.193  1.00  0.00     0.091 C 
HETATM   11  C17 UNL     1      -4.747   0.743  -0.239  1.00  0.00     0.031 C 
HETATM   12  C19 UNL     1      -2.521   0.431   0.833  1.00  0.00     0.233 C 
HETATM   13  O5  UNL     1      -2.536   0.198   2.072  1.00  0.00    -0.272 OA
BRANCH  10  14
HETATM   14  C18 UNL     1      -3.803   2.525   1.122  1.00  0.00     0.186 C 
BRANCH  14  15
HETATM   15  O4  UNL     1      -4.557   3.452   0.418  1.00  0.00    -0.400 OA
ATOM     16  H4  UNL     1      -4.768   4.176   0.995  1.00  0.00     0.209 HD
ENDBRANCH  14  15
ENDBRANCH  10  14
ENDBRANCH   2   6
ENDBRANCH   1   2
BRANCH   1  17
HETATM   17  C6  UNL     1       1.265   0.015   0.824  1.00  0.00     0.149 C 
BRANCH  17  18
HETATM   18  O1  UNL     1       0.748   1.269   0.556  1.00  0.00    -0.393 OA
ATOM     19  H1  UNL     1       1.140   1.983   1.044  1.00  0.00     0.210 HD
ENDBRANCH  17  18
BRANCH  17  20
HETATM   20  C7  UNL     1       2.748   0.187   0.621  1.00  0.00     0.017 C 
HETATM   21  C8  UNL     1       3.185   0.450  -0.772  1.00  0.00     0.013 C 
HETATM   22  C9  UNL     1       4.704   0.562  -0.757  1.00  0.00     0.079 C 
HETATM   23  C10 UNL     1       4.990   1.905  -0.086  1.00  0.00     0.243 C 
HETATM   24  F1  UNL     1       4.151   2.826  -0.688  1.00  0.00    -0.206 F 
HETATM   25  F2  UNL     1       6.302   2.265  -0.218  1.00  0.00    -0.206 F 
HETATM   26  C11 UNL     1       4.569   1.745   1.356  1.00  0.00     0.079 C 
HETATM   27  C12 UNL     1       3.079   1.482   1.394  1.00  0.00     0.013 C 
ENDBRANCH  17  20
ENDBRANCH   1  17
BRANCH   1  28
HETATM   28  N1  UNL     1       1.252  -2.391   0.388  1.00  0.00    -0.227 N 
BRANCH  28  29
HETATM   29  O2  UNL     1       1.964  -3.143  -0.477  1.00  0.00    -0.285 OA
ATOM     30  H2  UNL     1       2.356  -3.982  -0.263  1.00  0.00     0.245 HD
ENDBRANCH  28  29
BRANCH  28  31
HETATM   31  C13 UNL     1       1.118  -2.943   1.693  1.00  0.00     0.377 C 
HETATM   32  O3  UNL     1       1.611  -4.046   2.043  1.00  0.00    -0.281 OA
ENDBRANCH  28  31
ENDBRANCH   1  28
TORSDOF 11
