REMARK  6 active torsions:
REMARK  status: ('A' for Active; 'I' for Inactive)
REMARK    1  A    between atoms: N1_2  and  C3_4 
REMARK    2  A    between atoms: C3_4  and  C4_5 
REMARK    3  A    between atoms: C4_5  and  C5_6 
REMARK    4  A    between atoms: C5_6  and  O1_7 
REMARK    5  A    between atoms: O1_7  and  C6_8 
REMARK    6  A    between atoms: C7_9  and  C8_10 
REMARK       I    between atoms: C8_10  and  N2_12 
REMARK       I    between atoms: C9_14  and  N4_16 
REMARK       I    between atoms: C10_18  and  N6_20 
ROOT
HETATM    1  C6  UNL     1      -1.320   0.520   2.386  1.00  0.00     0.121 A 
HETATM    2  C7  UNL     1      -0.056   0.530   1.859  1.00  0.00     0.137 A 
HETATM    3  N7  UNL     1       0.388   1.819   2.012  1.00  0.00    -0.343 N 
ATOM      4  H7  UNL     1       1.304   2.157   1.716  1.00  0.00     0.167 HD
HETATM    5  C13 UNL     1      -0.548   2.571   2.604  1.00  0.00     0.100 A 
HETATM    6 BR1  UNL     1      -0.430   4.441   3.047  1.00  0.00    -0.030 Br
HETATM    7  C14 UNL     1      -1.648   1.802   2.863  1.00  0.00     0.080 A 
HETATM    8 BR2  UNL     1      -3.298   2.320   3.695  1.00  0.00    -0.045 Br
ENDROOT
BRANCH   2   9
HETATM    9  C8  UNL     1       0.734  -0.556   1.275  1.00  0.00     0.277 C 
HETATM   10  O2  UNL     1       0.337  -1.725   1.167  1.00  0.00    -0.266 OA
HETATM   11  N2  UNL     1       2.040  -0.280   0.794  1.00  0.00    -0.295 N 
HETATM   12  C9  UNL     1       2.308  -0.205  -0.473  1.00  0.00     0.197 C 
ATOM     13  H2  UNL     1       2.793  -0.136   1.467  1.00  0.00     0.171 HD
HETATM   14  N3  UNL     1       1.233  -0.411  -1.377  1.00  0.00    -0.063 NA
HETATM   15  N4  UNL     1       3.597   0.069  -0.968  1.00  0.00    -0.304 N 
HETATM   16  C10 UNL     1       4.645  -0.189  -0.272  1.00  0.00     0.192 C 
ATOM     17  H4  UNL     1       3.700   0.480  -1.896  1.00  0.00     0.171 HD
HETATM   18  N5  UNL     1       4.573  -0.760   1.028  1.00  0.00    -0.063 NA
HETATM   19  N6  UNL     1       5.933   0.112  -0.830  1.00  0.00    -0.364 N 
HETATM   20  C11 UNL     1       6.358   1.484  -1.033  1.00  0.00     0.151 C 
HETATM   21  C12 UNL     1       6.777  -1.006  -1.175  1.00  0.00     0.151 C 
ENDBRANCH   2   9
BRANCH   1  22
HETATM   22  O1  UNL     1      -2.214  -0.523   2.475  1.00  0.00    -0.347 OA
BRANCH  22  23
HETATM   23  C5  UNL     1      -3.263  -0.834   1.630  1.00  0.00     0.177 C 
BRANCH  23  24
HETATM   24  C4  UNL     1      -2.954  -1.098   0.192  1.00  0.00     0.057 C 
BRANCH  24  25
HETATM   25  C3  UNL     1      -4.232  -1.411  -0.544  1.00  0.00     0.273 C 
BRANCH  25  26
HETATM   26  N1  UNL     1      -5.188  -0.338  -0.491  1.00  0.00     0.080 N 
HETATM   27  C1  UNL     1      -6.364  -0.767  -1.233  1.00  0.00     0.309 C 
HETATM   28  C2  UNL     1      -4.713   0.874  -1.112  1.00  0.00     0.309 C 
ENDBRANCH  25  26
ENDBRANCH  24  25
ENDBRANCH  23  24
ENDBRANCH  22  23
ENDBRANCH   1  22
TORSDOF 6
