REMARK  9 active torsions:
REMARK  status: ('A' for Active; 'I' for Inactive)
REMARK    1  A    between atoms: C5_5  and  C6_6 
REMARK    2  A    between atoms: C6_6  and  C7_7 
REMARK    3  A    between atoms: C7_7  and  N1_8 
REMARK    4  A    between atoms: N1_8  and  C8_10 
REMARK    5  A    between atoms: C11_15  and  N3_16 
REMARK    6  A    between atoms: N3_16  and  C12_18 
REMARK    7  A    between atoms: C12_18  and  C13_19 
REMARK    8  A    between atoms: C13_19  and  C14_20 
REMARK    9  A    between atoms: C14_20  and  O1_21 
ROOT
HETATM    1  C8  UNL     1      -0.250   1.140  -0.386  1.00  0.00     0.118 A 
HETATM    2  C9  UNL     1      -0.340   2.484  -0.667  1.00  0.00     0.066 A 
HETATM    3  C10 UNL     1      -1.369   3.262  -0.117  1.00  0.00     0.110 A 
HETATM    4  N2  UNL     1      -2.258   2.656   0.688  1.00  0.00    -0.202 N 
ATOM      5  H2  UNL     1      -3.013   3.205   1.098  1.00  0.00     0.183 HD
HETATM    6  C11 UNL     1      -2.174   1.321   0.970  1.00  0.00     0.679 A 
HETATM    7  N4  UNL     1      -1.181   0.613   0.428  1.00  0.00    -0.177 N 
ATOM      8  H4  UNL     1      -1.125  -0.382   0.643  1.00  0.00     0.185 HD
ENDROOT
BRANCH   1   9
HETATM    9  N1  UNL     1       0.702   0.467  -0.907  1.00  0.00    -0.376 N 
ATOM     10  H1  UNL     1       1.351   0.972  -1.510  1.00  0.00     0.161 HD
BRANCH   9  11
HETATM   11  C7  UNL     1       0.940  -0.930  -0.721  1.00  0.00     0.128 C 
BRANCH  11  12
HETATM   12  C6  UNL     1       1.751  -1.545  -1.838  1.00  0.00     0.084 C 
BRANCH  12  13
HETATM   13  C5  UNL     1       3.064  -0.807  -1.852  1.00  0.00     0.054 A 
HETATM   14  C4  UNL     1       3.375   0.322  -2.556  1.00  0.00     0.035 A 
HETATM   15  C3  UNL     1       4.683   0.641  -2.264  1.00  0.00     0.035 A 
HETATM   16  C2  UNL     1       5.119  -0.310  -1.390  1.00  0.00     0.049 A 
HETATM   17  C1  UNL     1       6.452  -0.465  -0.740  1.00  0.00     0.076 C 
HETATM   18  O2  UNL     1       4.134  -1.138  -1.179  1.00  0.00    -0.320 OA
ENDBRANCH  12  13
ENDBRANCH  11  12
ENDBRANCH   9  11
ENDBRANCH   1   9
BRANCH   6  19
HETATM   19  N3  UNL     1      -3.089   0.880   1.751  1.00  0.00    -0.226 N 
ATOM     20  H3  UNL     1      -3.806   1.510   2.111  1.00  0.00     0.177 HD
BRANCH  19  21
HETATM   21  C12 UNL     1      -3.097  -0.514   2.116  1.00  0.00     0.140 C 
BRANCH  21  22
HETATM   22  C13 UNL     1      -3.774  -1.395   1.089  1.00  0.00     0.046 C 
BRANCH  22  23
HETATM   23  C14 UNL     1      -5.205  -1.019   0.872  1.00  0.00     0.165 C 
BRANCH  23  24
HETATM   24  O1  UNL     1      -5.884  -1.147   2.082  1.00  0.00    -0.401 OA
ATOM     25  H1  UNL     1      -6.793  -0.908   1.944  1.00  0.00     0.209 HD
ENDBRANCH  23  24
ENDBRANCH  22  23
ENDBRANCH  21  22
ENDBRANCH  19  21
ENDBRANCH   6  19
TORSDOF 9
