REMARK  11 active torsions:
REMARK  status: ('A' for Active; 'I' for Inactive)
REMARK    1  A    between atoms: C2_2  and  C3_3 
REMARK    2  A    between atoms: C3_3  and  C5_5 
REMARK    3  A    between atoms: C6_6  and  C7_7 
REMARK    4  A    between atoms: C7_7  and  C8_8 
REMARK    5  A    between atoms: C7_7  and  N1_10 
REMARK       I    between atoms: N1_10  and  C10_12 
REMARK    6  A    between atoms: C10_12  and  C11_14 
REMARK    7  A    between atoms: N2_18  and  C15_19 
REMARK    8  A    between atoms: C15_19  and  O2_20 
REMARK    9  A    between atoms: C15_19  and  N3_22 
REMARK       I    between atoms: N3_22  and  C16_23 
REMARK   10  A    between atoms: N3_22  and  C21_31 
REMARK       I    between atoms: C16_23  and  N4_25 
REMARK   11  A    between atoms: N4_25  and  C17_27 
ROOT
HETATM    1  C11 UNL     1      -0.076  -2.441  -0.646  1.00  0.00     0.179 C 
HETATM    2  C12 UNL     1       0.055  -3.369  -1.828  1.00  0.00     0.037 C 
HETATM    3  C13 UNL     1      -0.053  -2.363  -2.951  1.00  0.00     0.022 C 
HETATM    4  C14 UNL     1      -1.171  -1.461  -2.472  1.00  0.00     0.127 C 
HETATM    5  N2  UNL     1      -1.199  -1.535  -1.051  1.00  0.00    -0.334 N 
ENDROOT
BRANCH   5   6
HETATM    6  C15 UNL     1      -2.016  -0.989  -0.057  1.00  0.00     0.226 C 
BRANCH   6   7
HETATM    7  O2  UNL     1      -1.628  -1.438   1.150  1.00  0.00    -0.332 OA
ATOM      8  H2  UNL     1      -2.183  -1.067   1.826  1.00  0.00     0.221 HD
ENDBRANCH   6   7
BRANCH   6   9
HETATM    9  N3  UNL     1      -3.094  -0.133   0.044  1.00  0.00    -0.261 N 
HETATM   10  C16 UNL     1      -3.747   0.570  -0.948  1.00  0.00     0.326 C 
HETATM   11  O3  UNL     1      -3.372   0.473  -2.172  1.00  0.00    -0.247 OA
HETATM   12  N4  UNL     1      -4.866   1.449  -0.731  1.00  0.00    -0.335 N 
ATOM     13  H4  UNL     1      -5.228   1.577   0.214  1.00  0.00     0.165 HD
BRANCH  12  14
HETATM   14  C17 UNL     1      -5.490   2.158  -1.839  1.00  0.00     0.023 C 
HETATM   15  C18 UNL     1      -6.646   3.006  -1.360  1.00  0.00     0.037 C 
HETATM   16  C19 UNL     1      -4.482   3.140  -2.454  1.00  0.00     0.037 C 
HETATM   17  C20 UNL     1      -5.964   1.263  -2.939  1.00  0.00     0.037 C 
ENDBRANCH  12  14
BRANCH   9  18
HETATM   18  C21 UNL     1      -3.615   0.076   1.432  1.00  0.00     0.090 C 
HETATM   19  C22 UNL     1      -4.016  -1.269   2.017  1.00  0.00     0.032 C 
HETATM   20  C23 UNL     1      -2.496   0.718   2.263  1.00  0.00     0.032 C 
ENDBRANCH   9  18
ENDBRANCH   6   9
ENDBRANCH   5   6
BRANCH   1  21
HETATM   21  C10 UNL     1       1.160  -1.692  -0.470  1.00  0.00     0.241 C 
HETATM   22  N1  UNL     1       2.393  -2.255  -0.066  1.00  0.00    -0.351 N 
ATOM     23  H1  UNL     1       2.434  -3.257   0.122  1.00  0.00     0.163 HD
HETATM   24  O1  UNL     1       1.150  -0.431  -0.694  1.00  0.00    -0.271 OA
BRANCH  22  25
HETATM   25  C7  UNL     1       3.625  -1.453   0.095  1.00  0.00     0.107 C 
BRANCH  25  26
HETATM   26  C6  UNL     1       4.149  -1.580   1.461  1.00  0.00    -0.006 C 
HETATM   27  C5  UNL     1       4.477  -0.725   2.354  1.00  0.00    -0.024 C 
BRANCH  27  28
HETATM   28  C3  UNL     1       4.498   0.723   2.463  1.00  0.00     0.003 C 
HETATM   29  C4  UNL     1       4.049   1.559   1.333  1.00  0.00     0.014 C 
BRANCH  28  30
HETATM   30  C2  UNL     1       5.929   1.197   2.801  1.00  0.00     0.003 C 
HETATM   31  C1  UNL     1       5.921   2.660   3.184  1.00  0.00     0.006 C 
ENDBRANCH  28  30
ENDBRANCH  27  28
ENDBRANCH  25  26
BRANCH  25  32
HETATM   32  C8  UNL     1       4.642  -1.910  -0.946  1.00  0.00     0.025 C 
HETATM   33  C9  UNL     1       5.923  -1.115  -0.897  1.00  0.00     0.007 C 
ENDBRANCH  25  32
ENDBRANCH  22  25
ENDBRANCH   1  21
TORSDOF 11
