REMARK  12 active torsions:
REMARK  status: ('A' for Active; 'I' for Inactive)
REMARK    1  A    between atoms: C2_2  and  C3_3 
REMARK    2  A    between atoms: C3_3  and  O1_4 
REMARK    3  A    between atoms: O1_4  and  C4_5 
REMARK    4  A    between atoms: C5_6  and  O2_7 
REMARK    5  A    between atoms: C6_9  and  N1_10 
REMARK       I    between atoms: N1_10  and  C7_12 
REMARK    6  A    between atoms: C11_17  and  N2_18 
REMARK    7  A    between atoms: C12_22  and  C13_23 
REMARK       I    between atoms: C13_23  and  N3_25 
REMARK    8  A    between atoms: N3_25  and  C14_27 
REMARK    9  A    between atoms: C14_27  and  C15_28 
REMARK   10  A    between atoms: C15_28  and  C16_29 
REMARK   11  A    between atoms: C16_29  and  N4_30 
REMARK   12  A    between atoms: N7_35  and  N8_37 
ROOT
HETATM    1  C4  UNL     1      -2.023  -0.338   0.785  1.00  0.00     0.167 C 
HETATM    2  C5  UNL     1      -3.257  -0.625   0.027  1.00  0.00     0.171 C 
HETATM    3  C6  UNL     1      -3.468   0.076  -1.262  1.00  0.00     0.121 C 
HETATM    4  C9  UNL     1      -2.153   0.270  -1.959  1.00  0.00     0.038 C 
HETATM    5  C10 UNL     1      -1.412  -0.992  -2.244  1.00  0.00     0.014 C 
HETATM    6  C11 UNL     1      -1.369   1.231  -1.090  1.00  0.00     0.204 C 
HETATM    7  C12 UNL     1      -1.074   0.659   0.268  1.00  0.00     0.140 C 
ENDROOT
BRANCH   7   8
HETATM    8  C13 UNL     1       0.318   0.107   0.181  1.00  0.00     0.231 C 
HETATM    9  O4  UNL     1       0.512  -1.086   0.511  1.00  0.00    -0.273 OA
HETATM   10  N3  UNL     1       1.424   0.870  -0.256  1.00  0.00    -0.315 N 
ATOM     11  H3  UNL     1       1.244   1.839  -0.519  1.00  0.00     0.170 HD
BRANCH  10  12
HETATM   12  C14 UNL     1       2.755   0.412  -0.362  1.00  0.00     0.100 C 
HETATM   13  N7  UNL     1       3.675   1.203  -0.774  1.00  0.00    -0.287 N 
ATOM     14  H7  UNL     1       4.638   0.877  -0.854  1.00  0.00     0.188 HD
BRANCH  12  15
HETATM   15  C15 UNL     1       3.135  -0.965  -0.016  1.00  0.00     0.097 C 
BRANCH  15  16
HETATM   16  C16 UNL     1       4.627  -1.201  -0.189  1.00  0.00     0.129 C 
BRANCH  16  17
HETATM   17  N4  UNL     1       4.909  -2.551   0.166  1.00  0.00    -0.366 N 
HETATM   18  C17 UNL     1       5.551  -2.814   1.245  1.00  0.00     0.196 C 
HETATM   19  N5  UNL     1       5.972  -1.751   2.076  1.00  0.00    -0.067 NA
HETATM   20  N6  UNL     1       5.796  -4.177   1.535  1.00  0.00    -0.067 NA
ATOM     21  H4  UNL     1       4.600  -3.311  -0.440  1.00  0.00     0.161 HD
ENDBRANCH  16  17
ENDBRANCH  15  16
ENDBRANCH  12  15
BRANCH  13  22
HETATM   22  N8  UNL     1       3.345   2.510  -1.110  1.00  0.00    -0.275 N 
HETATM   23  C18 UNL     1       4.162   3.457  -0.890  1.00  0.00     0.215 C 
HETATM   24  N9  UNL     1       3.892   4.821  -1.209  1.00  0.00    -0.065 NA
HETATM   25  N10 UNL     1       5.418   3.162  -0.293  1.00  0.00    -0.065 NA
ATOM     26  H8  UNL     1       2.440   2.710  -1.536  1.00  0.00     0.189 HD
ENDBRANCH  13  22
ENDBRANCH  10  12
ENDBRANCH   7   8
BRANCH   1  27
HETATM   27  O1  UNL     1      -2.440   0.081   2.072  1.00  0.00    -0.379 OA
BRANCH  27  28
HETATM   28  C3  UNL     1      -2.004  -0.783   3.071  1.00  0.00     0.195 C 
BRANCH  28  29
HETATM   29  C2  UNL     1      -2.428  -0.361   4.414  1.00  0.00    -0.011 C 
HETATM   30  C1  UNL     1      -3.200  -1.136   5.202  1.00  0.00     0.009 C 
ENDBRANCH  28  29
ENDBRANCH  27  28
ENDBRANCH   1  27
BRANCH   6  31
HETATM   31  N2  UNL     1      -2.152   2.453  -0.997  1.00  0.00    -0.074 N 
ATOM     32  H23 UNL     1      -2.396   2.843  -1.907  1.00  0.00     0.274 HD
ATOM     33  H22 UNL     1      -3.103   2.296  -0.664  1.00  0.00     0.274 HD
ATOM     34  H21 UNL     1      -1.624   3.100  -0.412  1.00  0.00     0.274 HD
ENDBRANCH   6  31
BRANCH   2  35
HETATM   35  O2  UNL     1      -4.439  -0.417   0.785  1.00  0.00    -0.391 OA
ATOM     36  H2  UNL     1      -5.233  -0.602   0.297  1.00  0.00     0.210 HD
ENDBRANCH   2  35
BRANCH   3  37
HETATM   37  N1  UNL     1      -4.395  -0.595  -2.107  1.00  0.00    -0.354 N 
HETATM   38  C7  UNL     1      -5.601   0.014  -2.530  1.00  0.00     0.214 C 
HETATM   39  C8  UNL     1      -6.592  -0.631  -3.399  1.00  0.00     0.117 C 
HETATM   40  O3  UNL     1      -5.833   1.194  -2.125  1.00  0.00    -0.274 OA
ATOM     41  H1  UNL     1      -4.184  -1.544  -2.417  1.00  0.00     0.163 HD
ENDBRANCH   3  37
TORSDOF 12
