REMARK  13 active torsions:
REMARK  status: ('A' for Active; 'I' for Inactive)
REMARK    1  A    between atoms: O1_2  and  C2_3 
REMARK    2  A    between atoms: C2_3  and  C3_4 
REMARK    3  A    between atoms: C2_3  and  C35_43 
REMARK    4  A    between atoms: C4_5  and  C5_6 
REMARK    5  A    between atoms: C5_6  and  O3_8 
REMARK    6  A    between atoms: O3_8  and  C6_9 
REMARK    7  A    between atoms: C6_9  and  C7_10 
REMARK    8  A    between atoms: C6_9  and  C11_15 
REMARK    9  A    between atoms: C7_10  and  C9_12 
REMARK   10  A    between atoms: C26_31  and  C27_32 
REMARK   11  A    between atoms: C29_35  and  O6_36 
REMARK   12  A    between atoms: C35_43  and  O7_44 
REMARK   13  A    between atoms: O7_44  and  S1_45 
ROOT
HETATM    1  C11 UNL     1       1.462  -0.359  -0.040  1.00  0.00     0.025 C 
HETATM    2  C12 UNL     1       1.301   0.966  -0.798  1.00  0.00     0.009 C 
HETATM    3  C13 UNL     1      -0.106   1.435  -0.626  1.00  0.00     0.010 C 
HETATM    4  C14 UNL     1      -0.719   0.489   0.313  1.00  0.00     0.023 C 
HETATM    5  C15 UNL     1      -2.191   0.347   0.161  1.00  0.00    -0.072 C 
HETATM    6  C16 UNL     1      -2.952  -0.624   0.590  1.00  0.00    -0.065 C 
HETATM    7  C17 UNL     1      -2.708  -1.872   1.339  1.00  0.00     0.072 C 
HETATM    8  C18 UNL     1      -1.387  -2.450   1.433  1.00  0.00     0.174 C 
HETATM    9  F1  UNL     1      -1.171  -3.514   0.563  1.00  0.00    -0.249 F 
HETATM   10  C19 UNL     1      -0.193  -1.566   1.338  1.00  0.00     0.047 C 
HETATM   11  C20 UNL     1       0.002  -0.817   0.106  1.00  0.00    -0.028 C 
HETATM   12  C21 UNL     1      -0.353  -1.463  -1.195  1.00  0.00     0.016 C 
HETATM   13  C22 UNL     1      -4.411  -0.583   0.289  1.00  0.00    -0.012 C 
HETATM   14  C23 UNL     1      -4.865  -1.837  -0.454  1.00  0.00     0.021 C 
HETATM   15  C24 UNL     1      -5.178  -0.509   1.602  1.00  0.00     0.015 C 
HETATM   16  C25 UNL     1      -6.580  -0.262   1.061  1.00  0.00     0.011 C 
HETATM   17  C26 UNL     1      -6.366   0.681  -0.099  1.00  0.00     0.030 C 
HETATM   18  C31 UNL     1      -4.897   0.602  -0.448  1.00  0.00    -0.025 C 
HETATM   19  C32 UNL     1      -4.797   0.500  -1.959  1.00  0.00     0.017 C 
HETATM   20  C33 UNL     1      -4.116   1.831  -0.046  1.00  0.00     0.015 C 
HETATM   21  C34 UNL     1      -2.690   1.544  -0.569  1.00  0.00     0.036 C 
ENDROOT
BRANCH   1  22
HETATM   22  C6  UNL     1       2.265  -1.319  -0.852  1.00  0.00     0.147 C 
BRANCH  22  23
HETATM   23  O3  UNL     1       3.543  -0.686  -1.165  1.00  0.00    -0.311 OA
BRANCH  23  24
HETATM   24  C5  UNL     1       3.902  -0.525  -2.492  1.00  0.00     0.283 C 
HETATM   25  O2  UNL     1       3.036  -0.955  -3.350  1.00  0.00    -0.260 OA
BRANCH  24  26
HETATM   26  C4  UNL     1       5.112   0.060  -2.969  1.00  0.00     0.081 C 
HETATM   27  C3  UNL     1       6.091   0.501  -2.280  1.00  0.00     0.013 C 
BRANCH  27  28
HETATM   28  C2  UNL     1       6.366   0.586  -0.853  1.00  0.00     0.169 C 
BRANCH  28  29
HETATM   29  O1  UNL     1       7.510  -0.164  -0.523  1.00  0.00    -0.385 OA
HETATM   30  C1  UNL     1       7.389  -0.917   0.612  1.00  0.00     0.202 C 
ENDBRANCH  28  29
BRANCH  28  31
HETATM   31  C35 UNL     1       6.696   2.079  -0.554  1.00  0.00     0.229 C 
BRANCH  31  32
HETATM   32  O7  UNL     1       7.017   2.226   0.779  1.00  0.00    -0.254 OA
BRANCH  32  33
HETATM   33  S1  UNL     1       7.378   3.835   1.080  1.00  0.00     0.251 S 
HETATM   34  O8  UNL     1       7.570   4.101   2.535  1.00  0.00    -0.572 OA
HETATM   35  O9  UNL     1       6.264   4.729   0.595  1.00  0.00    -0.572 OA
HETATM   36  O10 UNL     1       8.769   4.190   0.195  1.00  0.00    -0.572 OA
ENDBRANCH  32  33
ENDBRANCH  31  32
ENDBRANCH  28  31
ENDBRANCH  27  28
ENDBRANCH  24  26
ENDBRANCH  23  24
ENDBRANCH  22  23
BRANCH  22  37
HETATM   37  C7  UNL     1       2.665  -2.607  -0.195  1.00  0.00     0.081 C 
HETATM   38  C8  UNL     1       3.503  -3.372  -1.260  1.00  0.00     0.020 C 
BRANCH  37  39
HETATM   39  C9  UNL     1       3.553  -2.479   0.968  1.00  0.00     0.129 C 
HETATM   40  C10 UNL     1       4.031  -3.702   1.653  1.00  0.00     0.091 C 
HETATM   41  O4  UNL     1       3.893  -1.398   1.370  1.00  0.00    -0.298 OA
ENDBRANCH  37  39
ENDBRANCH  22  37
ENDBRANCH   1  22
BRANCH  17  42
HETATM   42  C27 UNL     1      -6.852   2.021   0.220  1.00  0.00    -0.026 A 
HETATM   43  C28 UNL     1      -7.661   2.809  -0.579  1.00  0.00     0.152 A 
HETATM   44  O5  UNL     1      -7.886   3.923   0.063  1.00  0.00    -0.300 OA
HETATM   45  C29 UNL     1      -7.299   3.957   1.229  1.00  0.00     0.183 A 
HETATM   46  C30 UNL     1      -6.621   2.744   1.364  1.00  0.00     0.073 A 
BRANCH  45  47
HETATM   47  O6  UNL     1      -7.311   4.970   2.188  1.00  0.00    -0.341 OA
ATOM     48  H6  UNL     1      -6.884   4.995   3.036  1.00  0.00     0.220 HD
ENDBRANCH  45  47
ENDBRANCH  17  42
TORSDOF 13
