REMARK  3 active torsions:
REMARK  status: ('A' for Active; 'I' for Inactive)
REMARK    1  A    between atoms: O1_2  and  C2_3 
REMARK    2  A    between atoms: C11_12  and  C13_15 
REMARK    3  A    between atoms: C13_15  and  O2_18 
ROOT
HETATM    1  C2  UNL     1      -1.692  -0.176   0.782  1.00  0.00     0.129 C 
HETATM    2  C3  UNL     1      -2.477   0.915   0.132  1.00  0.00     0.011 C 
HETATM    3  C4  UNL     1      -3.657   1.372   0.910  1.00  0.00     0.012 C 
HETATM    4  C5  UNL     1      -2.874   0.340  -1.235  1.00  0.00     0.008 C 
HETATM    5  C6  UNL     1      -1.601   0.356  -2.042  1.00  0.00     0.014 C 
HETATM    6  C7  UNL     1      -0.480  -0.420  -1.411  1.00  0.00    -0.021 C 
HETATM    7  C8  UNL     1      -0.723  -1.877  -1.873  1.00  0.00     0.020 C 
HETATM    8  C9  UNL     1       0.755  -0.021  -2.102  1.00  0.00    -0.019 C 
HETATM    9  C10 UNL     1       1.776   0.503  -1.530  1.00  0.00    -0.003 C 
HETATM   10  C11 UNL     1       1.853   0.778  -0.088  1.00  0.00     0.097 C 
HETATM   11  C12 UNL     1       2.254   2.209   0.021  1.00  0.00     0.076 C 
HETATM   12  N1  UNL     1       2.572   3.317   0.120  1.00  0.00    -0.196 NA
HETATM   13  C16 UNL     1       0.570   0.644   0.612  1.00  0.00     0.040 C 
HETATM   14  C17 UNL     1      -0.376  -0.378   0.043  1.00  0.00     0.029 C 
ENDROOT
BRANCH  10  15
HETATM   15  C13 UNL     1       2.987  -0.026   0.497  1.00  0.00     0.074 C 
HETATM   16  C14 UNL     1       4.315   0.330  -0.139  1.00  0.00     0.047 C 
HETATM   17  C15 UNL     1       3.135   0.120   1.972  1.00  0.00     0.047 C 
BRANCH  15  18
HETATM   18  O2  UNL     1       2.773  -1.385   0.223  1.00  0.00    -0.389 OA
ATOM     19  H2  UNL     1       3.487  -1.891   0.591  1.00  0.00     0.210 HD
ENDBRANCH  15  18
ENDBRANCH  10  15
BRANCH   1  20
HETATM   20  O1  UNL     1      -2.413  -1.342   0.808  1.00  0.00    -0.390 OA
HETATM   21  C1  UNL     1      -2.651  -1.788   2.101  1.00  0.00     0.202 C 
ENDBRANCH   1  20
TORSDOF 3
