REMARK  7 active torsions:
REMARK  status: ('A' for Active; 'I' for Inactive)
REMARK    1  A    between atoms: C4_4  and  N1_5 
REMARK    2  A    between atoms: N1_5  and  C5_7 
REMARK    3  A    between atoms: C5_7  and  C6_9 
REMARK    4  A    between atoms: C6_9  and  N2_10 
REMARK    5  A    between atoms: N2_10  and  C7_11 
REMARK    6  A    between atoms: N2_10  and  S2_23 
REMARK    7  A    between atoms: C7_11  and  C8_12 
ROOT
HETATM    1  N2  UNL     1      -1.864  -1.406   0.276  1.00  0.00    -0.279 N 
ENDROOT
BRANCH   1   2
HETATM    2  C6  UNL     1      -0.813  -1.625   1.173  1.00  0.00     0.145 C 
BRANCH   2   3
HETATM    3  C5  UNL     1       0.569  -1.437   0.732  1.00  0.00     0.117 C 
HETATM    4  S1  UNL     1       1.339  -2.774   0.210  1.00  0.00    -0.059 SA
BRANCH   3   5
HETATM    5  N1  UNL     1       1.224  -0.224   0.774  1.00  0.00    -0.346 N 
ATOM      6  H1  UNL     1       0.684   0.550   1.162  1.00  0.00     0.167 HD
BRANCH   5   7
HETATM    7  C4  UNL     1       2.529   0.102   0.360  1.00  0.00     0.034 A 
HETATM    8  C3  UNL     1       3.241  -0.515  -0.639  1.00  0.00     0.037 A 
HETATM    9  C2  UNL     1       4.552  -0.161  -0.982  1.00  0.00    -0.042 A 
HETATM   10  C1  UNL     1       5.256  -0.889  -2.086  1.00  0.00     0.049 C 
HETATM   11  C17 UNL     1       5.165   0.859  -0.287  1.00  0.00     0.022 A 
HETATM   12  C15 UNL     1       4.497   1.514   0.724  1.00  0.00    -0.042 A 
HETATM   13 BR1  UNL     1       6.958   1.339  -0.763  1.00  0.00    -0.050 Br
HETATM   14  C14 UNL     1       3.236   1.135   1.017  1.00  0.00     0.037 A 
HETATM   15  C16 UNL     1       5.203   2.605   1.439  1.00  0.00     0.049 C 
ENDBRANCH   5   7
ENDBRANCH   3   5
ENDBRANCH   2   3
ENDBRANCH   1   2
BRANCH   1  16
HETATM   16  C7  UNL     1      -1.931  -0.213  -0.474  1.00  0.00     0.187 C 
BRANCH  16  17
HETATM   17  C8  UNL     1      -3.118   0.633  -0.214  1.00  0.00     0.051 A 
HETATM   18  C9  UNL     1      -3.247   1.809  -0.952  1.00  0.00     0.023 A 
HETATM   19  C10 UNL     1      -2.209   2.139  -1.958  1.00  0.00     0.069 C 
HETATM   20  N3  UNL     1      -4.304   2.604  -0.730  1.00  0.00    -0.312 N 
HETATM   21  C11 UNL     1      -5.231   2.282   0.187  1.00  0.00     0.327 A 
ATOM     22  H3  UNL     1      -4.405   3.466  -1.266  1.00  0.00     0.170 HD
HETATM   23  O1  UNL     1      -6.222   3.061   0.371  1.00  0.00    -0.247 OA
HETATM   24  N4  UNL     1      -5.100   1.157   0.889  1.00  0.00    -0.275 N 
HETATM   25  C12 UNL     1      -4.052   0.293   0.722  1.00  0.00     0.259 A 
ATOM     26  H4  UNL     1      -5.813   0.930   1.582  1.00  0.00     0.173 HD
HETATM   27  O2  UNL     1      -3.978  -0.737   1.401  1.00  0.00    -0.267 OA
ENDBRANCH  16  17
ENDBRANCH   1  16
BRANCH   1  28
HETATM   28  S2  UNL     1      -2.370  -2.799  -0.589  1.00  0.00     0.228 S 
HETATM   29  C13 UNL     1      -2.966  -4.051   0.512  1.00  0.00     0.186 C 
HETATM   30  O3  UNL     1      -1.275  -3.391  -1.426  1.00  0.00    -0.206 OA
HETATM   31  O4  UNL     1      -3.493  -2.409  -1.502  1.00  0.00    -0.206 OA
ENDBRANCH   1  28
TORSDOF 7
