REMARK  6 active torsions:
REMARK  status: ('A' for Active; 'I' for Inactive)
REMARK    1  A    between atoms: O1_2  and  C2_3 
REMARK    2  A    between atoms: C2_3  and  C3_4 
REMARK    3  A    between atoms: C3_4  and  C4_5 
REMARK    4  A    between atoms: C4_5  and  O2_6 
REMARK    5  A    between atoms: O2_6  and  C5_7 
REMARK    6  A    between atoms: C26_29  and  C27_30 
ROOT
HETATM    1  C5  UNL     1       0.632  -0.098   0.433  1.00  0.00     0.131 C 
HETATM    2  C6  UNL     1      -0.521  -0.983   0.830  1.00  0.00     0.039 C 
HETATM    3  C7  UNL     1      -1.463  -1.409  -0.261  1.00  0.00     0.008 C 
HETATM    4  C8  UNL     1      -1.846  -2.832  -0.110  1.00  0.00    -0.043 C 
HETATM    5  C9  UNL     1      -0.874  -3.724  -0.875  1.00  0.00     0.015 C 
HETATM    6  C10 UNL     1      -1.763  -3.329   1.344  1.00  0.00     0.015 C 
HETATM    7  C11 UNL     1      -3.221  -3.187  -0.567  1.00  0.00     0.009 C 
HETATM    8  C12 UNL     1      -4.185  -2.307   0.160  1.00  0.00     0.002 C 
HETATM    9  C13 UNL     1      -3.851  -0.853   0.170  1.00  0.00     0.014 C 
HETATM   10  C14 UNL     1      -2.638  -0.460  -0.582  1.00  0.00    -0.015 C 
HETATM   11  C15 UNL     1      -2.984  -0.687  -2.065  1.00  0.00     0.020 C 
HETATM   12  C16 UNL     1      -2.119   0.887  -0.382  1.00  0.00    -0.050 C 
HETATM   13  C17 UNL     1      -1.214   1.247  -1.462  1.00  0.00     0.001 C 
HETATM   14  C18 UNL     1      -0.044   2.071  -1.436  1.00  0.00    -0.020 C 
HETATM   15  C19 UNL     1       1.079   2.020  -0.504  1.00  0.00     0.027 C 
HETATM   16  C20 UNL     1       1.571   3.400  -0.044  1.00  0.00    -0.039 C 
HETATM   17  C21 UNL     1       1.329   4.457  -1.137  1.00  0.00     0.015 C 
HETATM   18  C22 UNL     1       3.035   3.436   0.202  1.00  0.00     0.015 C 
HETATM   19  C23 UNL     1       0.683   3.598   1.138  1.00  0.00     0.022 C 
HETATM   20  C24 UNL     1      -0.140   2.324   1.320  1.00  0.00     0.069 C 
HETATM   21  C25 UNL     1      -1.465   2.721   0.828  1.00  0.00     0.150 C 
HETATM   22  O3  UNL     1      -1.742   3.863   1.113  1.00  0.00    -0.296 OA
HETATM   23  C26 UNL     1      -2.672   2.166   0.048  1.00  0.00     0.186 C 
HETATM   24  C28 UNL     1       0.721   1.300   0.819  1.00  0.00     0.000 C 
HETATM   25  C29 UNL     1       1.911   1.334   1.804  1.00  0.00     0.019 C 
ENDROOT
BRANCH   1  26
HETATM   26  O2  UNL     1       1.802  -0.794   0.837  1.00  0.00    -0.385 OA
BRANCH  26  27
HETATM   27  C4  UNL     1       2.506  -1.421  -0.115  1.00  0.00     0.170 C 
BRANCH  27  28
HETATM   28  C3  UNL     1       3.707  -2.103   0.507  1.00  0.00     0.052 C 
BRANCH  28  29
HETATM   29  C2  UNL     1       4.439  -2.781  -0.630  1.00  0.00     0.169 C 
BRANCH  29  30
HETATM   30  O1  UNL     1       5.566  -3.467  -0.264  1.00  0.00    -0.396 OA
HETATM   31  C1  UNL     1       6.559  -2.714   0.335  1.00  0.00     0.201 C 
ENDBRANCH  29  30
ENDBRANCH  28  29
ENDBRANCH  27  28
ENDBRANCH  26  27
ENDBRANCH   1  26
BRANCH  23  32
HETATM   32  C27 UNL     1      -3.763   2.257   0.997  1.00  0.00     0.188 C 
HETATM   33  O4  UNL     1      -3.633   2.432   2.259  1.00  0.00    -0.647 OA
HETATM   34  O5  UNL     1      -5.071   2.154   0.566  1.00  0.00    -0.647 OA
ENDBRANCH  23  32
TORSDOF 6
