REMARK  10 active torsions:
REMARK  status: ('A' for Active; 'I' for Inactive)
REMARK    1  A    between atoms: C5_5  and  N1_6 
REMARK    2  A    between atoms: N1_6  and  O1_7 
REMARK    3  A    between atoms: O1_7  and  C6_8 
REMARK    4  A    between atoms: C6_8  and  C7_9 
REMARK    5  A    between atoms: C7_9  and  N2_10 
REMARK    6  A    between atoms: C10_13  and  O2_14 
REMARK    7  A    between atoms: C10_13  and  C11_16 
REMARK    8  A    between atoms: C23_28  and  C24_29 
REMARK    9  A    between atoms: C30_38  and  N3_39 
REMARK   10  A    between atoms: N3_39  and  C31_41 
ROOT
HETATM    1  C1  UNL     1      -2.317  -0.588   2.130  1.00  0.00     0.016 C 
HETATM    2  C2  UNL     1      -2.989  -0.249   0.798  1.00  0.00    -0.036 C 
HETATM    3  C3  UNL     1      -2.495   1.003   0.182  1.00  0.00     0.017 C 
HETATM    4  C4  UNL     1      -0.974   1.013   0.294  1.00  0.00     0.072 C 
HETATM    5  C5  UNL     1      -0.355  -0.264  -0.152  1.00  0.00     0.095 C 
HETATM    6  C19 UNL     1      -1.132  -1.539  -0.204  1.00  0.00     0.076 C 
HETATM    7  C20 UNL     1      -2.581  -1.337  -0.220  1.00  0.00     0.000 C 
HETATM    8  C21 UNL     1      -3.416  -2.492   0.248  1.00  0.00     0.006 C 
HETATM    9  C22 UNL     1      -4.791  -1.796   0.217  1.00  0.00     0.006 C 
HETATM   10  C23 UNL     1      -4.440  -0.475   0.919  1.00  0.00    -0.001 C 
ENDROOT
BRANCH   5  11
HETATM   11  N1  UNL     1       0.813  -0.266  -0.487  1.00  0.00    -0.290 NA
BRANCH  11  12
HETATM   12  O1  UNL     1       2.002  -0.288  -0.833  1.00  0.00    -0.208 OA
BRANCH  12  13
HETATM   13  C6  UNL     1       2.791  -1.350  -1.341  1.00  0.00     0.248 C 
BRANCH  13  14
HETATM   14  C7  UNL     1       4.159  -0.889  -1.651  1.00  0.00     0.302 C 
BRANCH  14  15
HETATM   15  N2  UNL     1       4.932  -0.380  -0.513  1.00  0.00     0.090 N 
HETATM   16  C8  UNL     1       6.126   0.182  -1.147  1.00  0.00     0.276 C 
HETATM   17  C9  UNL     1       7.218  -0.847  -1.201  1.00  0.00     0.073 C 
HETATM   18  C10 UNL     1       7.729  -0.959   0.239  1.00  0.00     0.088 C 
HETATM   19  C17 UNL     1       6.569  -1.462   1.041  1.00  0.00     0.073 C 
HETATM   20  C18 UNL     1       5.262  -1.520   0.316  1.00  0.00     0.276 C 
BRANCH  18  21
HETATM   21  O2  UNL     1       8.811  -1.836   0.205  1.00  0.00    -0.385 OA
ATOM     22  H2  UNL     1       9.128  -1.905   1.098  1.00  0.00     0.211 HD
ENDBRANCH  18  21
BRANCH  18  23
HETATM   23  C11 UNL     1       8.250   0.360   0.629  1.00  0.00    -0.024 A 
HETATM   24  C12 UNL     1       7.853   1.107   1.701  1.00  0.00     0.010 A 
HETATM   25  C13 UNL     1       8.442   2.336   1.930  1.00  0.00     0.001 A 
HETATM   26  C14 UNL     1       9.425   2.836   1.104  1.00  0.00     0.000 A 
HETATM   27  C15 UNL     1       9.841   2.102   0.019  1.00  0.00     0.001 A 
HETATM   28  C16 UNL     1       9.252   0.878  -0.205  1.00  0.00     0.010 A 
ENDBRANCH  18  23
ENDBRANCH  14  15
ENDBRANCH  13  14
ENDBRANCH  12  13
ENDBRANCH  11  12
ENDBRANCH   5  11
BRANCH  10  29
HETATM   29  C24 UNL     1      -5.387   0.607   0.607  1.00  0.00     0.004 C 
HETATM   30  C25 UNL     1      -5.365   1.740   1.599  1.00  0.00     0.085 C 
HETATM   31  S1  UNL     1      -6.063   3.161   0.661  1.00  0.00    -0.126 SA
HETATM   32  C26 UNL     1      -7.608   2.501   0.030  1.00  0.00     0.048 A 
HETATM   33  C27 UNL     1      -8.603   3.360  -0.414  1.00  0.00     0.136 A 
HETATM   34  C32 UNL     1      -7.767   1.145   0.028  1.00  0.00    -0.008 A 
HETATM   35  F1  UNL     1      -8.336   4.665  -0.369  1.00  0.00    -0.205 F 
HETATM   36  C28 UNL     1      -9.784   2.821  -0.868  1.00  0.00     0.088 A 
HETATM   37  C29 UNL     1      -9.991   1.451  -0.887  1.00  0.00     0.146 A 
HETATM   38  F2  UNL     1     -11.179   0.953  -1.340  1.00  0.00    -0.204 F 
HETATM   39  C30 UNL     1      -8.989   0.621  -0.443  1.00  0.00     0.079 A 
HETATM   40  C33 UNL     1      -6.805   0.109   0.440  1.00  0.00     0.048 C 
BRANCH  39  41
HETATM   41  N3  UNL     1      -9.251  -0.773  -0.467  1.00  0.00    -0.354 N 
ATOM     42  H3  UNL     1      -9.594  -1.212   0.387  1.00  0.00     0.166 HD
BRANCH  41  43
HETATM   43  C31 UNL     1      -9.082  -1.510  -1.497  1.00  0.00     0.170 C 
HETATM   44  S2  UNL     1      -8.357  -2.740  -2.289  1.00  0.00    -0.074 SA
ENDBRANCH  41  43
ENDBRANCH  39  41
ENDBRANCH  10  29
TORSDOF 10
