REMARK  9 active torsions:
REMARK  status: ('A' for Active; 'I' for Inactive)
REMARK    1  A    between atoms: O1_2  and  C2_3 
REMARK    2  A    between atoms: C3_4  and  O2_5 
REMARK    3  A    between atoms: O2_5  and  C4_6 
REMARK    4  A    between atoms: C4_6  and  C5_7 
REMARK    5  A    between atoms: C5_7  and  N1_8 
REMARK    6  A    between atoms: C10_13  and  C11_14 
REMARK    7  A    between atoms: C11_14  and  N2_15 
REMARK    8  A    between atoms: N2_15  and  C12_17 
REMARK    9  A    between atoms: C24_35  and  C25_36 
ROOT
HETATM    1  C2  UNL     1       1.083   1.814  -1.388  1.00  0.00     0.115 A 
HETATM    2  C3  UNL     1       0.232   1.110  -0.542  1.00  0.00     0.111 A 
HETATM    3  C10 UNL     1       0.693  -0.056  -0.031  1.00  0.00    -0.004 A 
HETATM    4  C18 UNL     1       1.922  -0.623  -0.225  1.00  0.00     0.025 A 
HETATM    5  C19 UNL     1       2.787   0.078  -1.062  1.00  0.00    -0.007 A 
HETATM    6  C20 UNL     1       2.349   1.262  -1.620  1.00  0.00     0.040 A 
HETATM    7  C21 UNL     1       3.388   1.788  -2.515  1.00  0.00     0.067 A 
HETATM    8  N3  UNL     1       3.396   2.761  -3.336  1.00  0.00    -0.396 N 
ATOM      9  H31 UNL     1       4.118   3.126  -3.958  1.00  0.00     0.156 HD
ATOM     10  H32 UNL     1       2.603   3.402  -3.367  1.00  0.00     0.156 HD
HETATM   11  C22 UNL     1       4.532   0.864  -2.471  1.00  0.00     0.064 A 
HETATM   12  N4  UNL     1       5.623   0.973  -3.108  1.00  0.00    -0.397 N 
ATOM     13  H41 UNL     1       6.416   0.332  -3.077  1.00  0.00     0.156 HD
ATOM     14  H42 UNL     1       5.896   1.720  -3.747  1.00  0.00     0.156 HD
HETATM   15  C23 UNL     1       4.135  -0.223  -1.540  1.00  0.00     0.005 A 
HETATM   16  C24 UNL     1       4.928  -1.141  -1.118  1.00  0.00     0.029 C 
ENDROOT
BRANCH   3  17
HETATM   17  C11 UNL     1      -0.290  -0.903   0.781  1.00  0.00     0.156 C 
BRANCH  17  18
HETATM   18  N2  UNL     1      -0.182  -2.244   0.296  1.00  0.00    -0.413 N 
ATOM     19  H2  UNL     1       0.620  -2.562  -0.248  1.00  0.00     0.153 HD
BRANCH  18  20
HETATM   20  C12 UNL     1      -1.233  -3.079   0.612  1.00  0.00     0.076 C 
HETATM   21  C13 UNL     1      -2.575  -2.572   0.075  1.00  0.00     0.024 C 
HETATM   22  C14 UNL     1      -3.290  -3.877  -0.341  1.00  0.00     0.002 C 
HETATM   23  C15 UNL     1      -3.115  -4.890   0.770  1.00  0.00     0.000 C 
HETATM   24  C16 UNL     1      -2.791  -4.255   2.106  1.00  0.00     0.002 C 
HETATM   25  C17 UNL     1      -1.446  -3.521   2.028  1.00  0.00     0.024 C 
ENDBRANCH  18  20
ENDBRANCH  17  18
ENDBRANCH   3  17
BRANCH   2  26
HETATM   26  O2  UNL     1      -0.980   1.540  -0.229  1.00  0.00    -0.346 OA
BRANCH  26  27
HETATM   27  C4  UNL     1      -2.262   1.507  -0.711  1.00  0.00     0.206 C 
BRANCH  27  28
HETATM   28  C5  UNL     1      -3.215   2.181   0.289  1.00  0.00     0.299 C 
BRANCH  28  29
HETATM   29  N1  UNL     1      -2.851   3.575   0.520  1.00  0.00     0.090 N 
HETATM   30  C6  UNL     1      -3.698   4.051   1.622  1.00  0.00     0.272 C 
HETATM   31  C7  UNL     1      -3.996   5.491   1.348  1.00  0.00     0.032 C 
HETATM   32  C8  UNL     1      -3.741   5.676  -0.142  1.00  0.00     0.032 C 
HETATM   33  C9  UNL     1      -3.328   4.330  -0.636  1.00  0.00     0.272 C 
ENDBRANCH  28  29
ENDBRANCH  27  28
ENDBRANCH  26  27
ENDBRANCH   2  26
BRANCH   1  34
HETATM   34  O1  UNL     1       0.706   2.971  -1.970  1.00  0.00    -0.352 OA
HETATM   35  C1  UNL     1       0.800   4.259  -1.378  1.00  0.00     0.210 C 
ENDBRANCH   1  34
BRANCH  16  36
HETATM   36  C25 UNL     1       4.870  -2.137  -0.117  1.00  0.00     0.004 A 
HETATM   37  C26 UNL     1       4.543  -3.434  -0.362  1.00  0.00     0.045 A 
HETATM   38 CL1  UNL     1       3.886  -3.913  -1.942  1.00  0.00    -0.083 Cl
HETATM   39  C27 UNL     1       4.680  -4.399   0.639  1.00  0.00     0.025 A 
HETATM   40  C28 UNL     1       5.146  -4.051   1.886  1.00  0.00     0.003 A 
HETATM   41  C29 UNL     1       5.470  -2.763   2.130  1.00  0.00     0.020 A 
HETATM   42  C30 UNL     1       5.358  -1.734   1.182  1.00  0.00     0.022 A 
HETATM   43 BR1  UNL     1       5.863   0.022   1.582  1.00  0.00    -0.050 Br
ENDBRANCH  16  36
TORSDOF 9
