REMARK  10 active torsions:
REMARK  status: ('A' for Active; 'I' for Inactive)
REMARK    1  A    between atoms: N1_1  and  C1_4 
REMARK    2  A    between atoms: C2_7  and  S1_8 
REMARK    3  A    between atoms: S1_8  and  C3_9 
REMARK    4  A    between atoms: C4_13  and  N4_14 
REMARK    5  A    between atoms: N4_14  and  C5_16 
REMARK    6  A    between atoms: C5_16  and  N5_17 
REMARK    7  A    between atoms: C5_16  and  C6_21 
REMARK    8  A    between atoms: N5_17  and  O2_19 
REMARK    9  A    between atoms: C6_21  and  N6_22 
REMARK   10  A    between atoms: C6_21  and  N7_26 
ROOT
HETATM    1  N4  UNL     1      -0.474   0.160   0.204  1.00  0.00    -0.199 N 
ATOM      2  H4  UNL     1      -0.524   1.035   0.725  1.00  0.00     0.180 HD
ENDROOT
BRANCH   1   3
HETATM    3  C4  UNL     1       0.693  -0.268  -0.162  1.00  0.00     0.696 A 
HETATM    4  N3  UNL     1       1.819   0.418   0.134  1.00  0.00    -0.169 N 
HETATM    5  C2  UNL     1       3.016  -0.044  -0.255  1.00  0.00     0.181 A 
ATOM      6  H3  UNL     1       1.758   1.292   0.656  1.00  0.00     0.186 HD
HETATM    7  N2  UNL     1       3.126  -1.191  -0.944  1.00  0.00    -0.169 N 
HETATM    8  C1  UNL     1       2.017  -1.901  -1.255  1.00  0.00     0.692 A 
ATOM      9  H2  UNL     1       4.045  -1.527  -1.233  1.00  0.00     0.186 HD
HETATM   10  N8  UNL     1       0.816  -1.418  -0.853  1.00  0.00    -0.022 N 
ATOM     11  H8  UNL     1      -0.027  -1.945  -1.082  1.00  0.00     0.203 HD
BRANCH   5  12
HETATM   12  S1  UNL     1       4.481   0.901   0.161  1.00  0.00    -0.024 SA
BRANCH  12  13
HETATM   13  C3  UNL     1       4.078   2.366   1.066  1.00  0.00     0.312 C 
HETATM   14  O1  UNL     1       3.451   2.270   2.101  1.00  0.00    -0.295 OA
ENDBRANCH  12  13
ENDBRANCH   5  12
BRANCH   8  15
HETATM   15  N1  UNL     1       2.086  -3.007  -1.916  1.00  0.00    -0.234 N 
ATOM     16  H12 UNL     1       2.990  -3.370  -2.219  1.00  0.00     0.174 HD
ATOM     17  H11 UNL     1       1.250  -3.542  -2.150  1.00  0.00     0.174 HD
ENDBRANCH   8  15
ENDBRANCH   1   3
BRANCH   1  18
HETATM   18  C5  UNL     1      -1.694  -0.524  -0.081  1.00  0.00     0.278 C 
BRANCH  18  19
HETATM   19  N5  UNL     1      -2.063  -0.461  -1.451  1.00  0.00    -0.277 N 
ATOM     20  H5  UNL     1      -2.175  -1.300  -2.020  1.00  0.00     0.190 HD
BRANCH  19  21
HETATM   21  O2  UNL     1      -2.253   0.749  -1.945  1.00  0.00    -0.292 OA
ATOM     22  H2  UNL     1      -2.500   0.791  -2.861  1.00  0.00     0.244 HD
ENDBRANCH  19  21
ENDBRANCH  18  19
BRANCH  18  23
HETATM   23  C6  UNL     1      -2.756  -0.036   0.870  1.00  0.00     0.421 C 
BRANCH  23  24
HETATM   24  N6  UNL     1      -2.356  -0.305   2.239  1.00  0.00    -0.047 N 
ATOM     25  H63 UNL     1      -2.134  -1.290   2.386  1.00  0.00     0.276 HD
ATOM     26  H62 UNL     1      -1.440   0.088   2.454  1.00  0.00     0.276 HD
ATOM     27  H61 UNL     1      -3.075   0.025   2.883  1.00  0.00     0.276 HD
ENDBRANCH  23  24
BRANCH  23  28
HETATM   28  N7  UNL     1      -2.999   1.380   0.761  1.00  0.00    -0.047 N 
ATOM     29  H73 UNL     1      -2.134   1.908   0.878  1.00  0.00     0.276 HD
ATOM     30  H72 UNL     1      -3.223   1.639  -0.200  1.00  0.00     0.276 HD
ATOM     31  H71 UNL     1      -3.718   1.710   1.405  1.00  0.00     0.276 HD
ENDBRANCH  23  28
ENDBRANCH  18  23
ENDBRANCH   1  18
TORSDOF 10
