REMARK  11 active torsions:
REMARK  status: ('A' for Active; 'I' for Inactive)
REMARK    1  A    between atoms: C1_2  and  C2_4 
REMARK    2  A    between atoms: C3_7  and  C4_8 
REMARK    3  A    between atoms: C4_8  and  N3_9 
REMARK    4  A    between atoms: C4_8  and  N4_13 
REMARK    5  A    between atoms: C5_19  and  N6_20 
REMARK       I    between atoms: N6_20  and  C6_22 
REMARK       I    between atoms: C6_22  and  N7_23 
REMARK       I    between atoms: C6_22  and  N8_27 
REMARK    6  A    between atoms: C7_31  and  C8_32 
REMARK    7  A    between atoms: C8_32  and  N9_33 
REMARK    8  A    between atoms: C10_35  and  C11_36 
REMARK    9  A    between atoms: C15_41  and  C16_42 
REMARK   10  A    between atoms: C16_42  and  O3_43 
REMARK   11  A    between atoms: C16_42  and  O4_45 
ROOT
HETATM    1  C2  UNL     1      -2.611  -1.532   1.424  1.00  0.00     0.111 A 
HETATM    2  N2  UNL     1      -3.496  -1.852   0.413  1.00  0.00    -0.338 N 
ATOM      3  H2  UNL     1      -3.927  -2.777   0.431  1.00  0.00     0.167 HD
HETATM    4  C3  UNL     1      -3.822  -1.035  -0.579  1.00  0.00     0.142 A 
HETATM    5  N5  UNL     1      -3.246   0.172  -0.580  1.00  0.00    -0.329 N 
ATOM      6  H5  UNL     1      -3.481   0.821  -1.331  1.00  0.00     0.168 HD
HETATM    7  C5  UNL     1      -2.376   0.569   0.356  1.00  0.00     0.115 A 
HETATM    8  C7  UNL     1      -2.036  -0.289   1.388  1.00  0.00     0.037 A 
ENDROOT
BRANCH   8   9
HETATM    9  C8  UNL     1      -0.993   0.165   2.318  1.00  0.00     0.194 C 
BRANCH   9  10
HETATM   10  N9  UNL     1       0.337  -0.276   1.888  1.00  0.00    -0.282 N 
HETATM   11  C9  UNL     1       1.187   0.442   1.089  1.00  0.00     0.145 A 
HETATM   12  C10 UNL     1       2.360  -0.281   0.874  1.00  0.00     0.100 A 
HETATM   13  N10 UNL     1       2.172  -1.422   1.561  1.00  0.00    -0.282 N 
HETATM   14  N11 UNL     1       0.992  -1.378   2.132  1.00  0.00    -0.240 N 
ATOM     15  H10 UNL     1       2.836  -2.193   1.627  1.00  0.00     0.188 HD
ATOM     16  H11 UNL     1       0.622  -2.132   2.711  1.00  0.00     0.208 HD
BRANCH  12  17
HETATM   17  C11 UNL     1       3.517   0.121   0.083  1.00  0.00     0.109 A 
HETATM   18  C12 UNL     1       3.540   1.342  -0.555  1.00  0.00     0.094 A 
HETATM   19  C13 UNL     1       4.621   1.755  -1.313  1.00  0.00     0.177 A 
HETATM   20  O2  UNL     1       4.665   2.855  -1.900  1.00  0.00    -0.288 OA
HETATM   21  C14 UNL     1       5.683   0.845  -1.383  1.00  0.00     0.092 A 
HETATM   22  C15 UNL     1       5.625  -0.367  -0.731  1.00  0.00     0.112 A 
HETATM   23  O5  UNL     1       4.545  -0.649  -0.041  1.00  0.00    -0.307 OA
BRANCH  22  24
HETATM   24  C16 UNL     1       6.767  -1.324  -0.817  1.00  0.00     0.312 C 
BRANCH  24  25
HETATM   25  O3  UNL     1       7.952  -0.649  -0.641  1.00  0.00    -0.365 OA
ATOM     26  H3  UNL     1       8.679  -1.258  -0.696  1.00  0.00     0.213 HD
ENDBRANCH  24  25
BRANCH  24  27
HETATM   27  O4  UNL     1       6.751  -1.847  -2.116  1.00  0.00    -0.365 OA
ATOM     28  H4  UNL     1       7.478  -2.456  -2.171  1.00  0.00     0.213 HD
ENDBRANCH  24  27
ENDBRANCH  22  24
ENDBRANCH  12  17
ENDBRANCH   9  10
ENDBRANCH   8   9
BRANCH   1  29
HETATM   29  C1  UNL     1      -2.396  -2.524   2.466  1.00  0.00     0.282 C 
HETATM   30  N1  UNL     1      -1.903  -2.349   3.761  1.00  0.00    -0.056 NA
HETATM   31  O1  UNL     1      -2.707  -3.729   2.161  1.00  0.00    -0.269 OA
ENDBRANCH   1  29
BRANCH   7  32
HETATM   32  N6  UNL     1      -1.887   1.764   0.280  1.00  0.00    -0.327 N 
HETATM   33  C6  UNL     1      -2.194   2.723  -0.732  1.00  0.00     0.481 C 
HETATM   34  N7  UNL     1      -1.691   4.051  -0.397  1.00  0.00    -0.033 N 
HETATM   35  N8  UNL     1      -1.507   2.341  -1.960  1.00  0.00    -0.033 N 
ATOM     36  H73 UNL     1      -2.029   4.355   0.516  1.00  0.00     0.278 HD
ATOM     37  H72 UNL     1      -0.691   4.029  -0.199  1.00  0.00     0.278 HD
ATOM     38  H71 UNL     1      -1.910   4.736  -1.120  1.00  0.00     0.278 HD
ATOM     39  H83 UNL     1      -0.503   2.223  -1.825  1.00  0.00     0.278 HD
ATOM     40  H82 UNL     1      -1.723   1.387  -2.248  1.00  0.00     0.278 HD
ATOM     41  H81 UNL     1      -1.726   3.026  -2.683  1.00  0.00     0.278 HD
ATOM     42  H6  UNL     1      -1.226   2.045   1.004  1.00  0.00     0.164 HD
ENDBRANCH   7  32
BRANCH   4  43
HETATM   43  C4  UNL     1      -4.779  -1.405  -1.659  1.00  0.00     0.444 C 
BRANCH  43  44
HETATM   44  N3  UNL     1      -5.725  -0.341  -1.926  1.00  0.00    -0.043 N 
ATOM     45  H33 UNL     1      -6.214  -0.057  -1.077  1.00  0.00     0.277 HD
ATOM     46  H32 UNL     1      -5.248   0.536  -2.136  1.00  0.00     0.277 HD
ATOM     47  H31 UNL     1      -6.380  -0.594  -2.665  1.00  0.00     0.277 HD
ENDBRANCH  43  44
BRANCH  43  48
HETATM   48  N4  UNL     1      -5.403  -2.670  -1.427  1.00  0.00    -0.043 N 
ATOM     49  H43 UNL     1      -4.707  -3.402  -1.286  1.00  0.00     0.277 HD
ATOM     50  H42 UNL     1      -5.854  -2.695  -0.512  1.00  0.00     0.277 HD
ATOM     51  H41 UNL     1      -6.058  -2.923  -2.166  1.00  0.00     0.277 HD
ENDBRANCH  43  48
ENDBRANCH   4  43
TORSDOF 11
