REMARK  2 active torsions:
REMARK  status: ('A' for Active; 'I' for Inactive)
REMARK    1  A    between atoms: N1_1  and  N2_4 
REMARK       I    between atoms: N2_4  and  C1_6 
REMARK    2  A    between atoms: C1_6  and  C2_8 
REMARK       I    between atoms: C2_8  and  N3_10 
REMARK       I    between atoms: N3_10  and  C3_12 
ROOT
HETATM    1  N2  UNL     1       2.533  -0.087   0.463  1.00  0.00    -0.268 N 
ATOM      2  H2  UNL     1       2.677  -1.079   0.650  1.00  0.00     0.190 HD
HETATM    3  C1  UNL     1       1.239   0.396   0.172  1.00  0.00     0.327 C 
HETATM    4  O1  UNL     1       1.085   1.606  -0.054  1.00  0.00    -0.261 OA
ENDROOT
BRANCH   3   5
HETATM    5  C2  UNL     1       0.088  -0.494   0.131  1.00  0.00     0.318 C 
HETATM    6  O2  UNL     1       0.261  -1.712   0.361  1.00  0.00    -0.262 OA
HETATM    7  N3  UNL     1      -1.218   0.023  -0.168  1.00  0.00    -0.273 N 
HETATM    8  C3  UNL     1      -2.361  -0.790  -0.221  1.00  0.00     0.335 C 
ATOM      9  H3  UNL     1      -1.319   1.022  -0.349  1.00  0.00     0.173 HD
HETATM   10  N4  UNL     1      -3.610  -0.195  -0.523  1.00  0.00    -0.040 NA
HETATM   11  O3  UNL     1      -2.256  -2.030   0.002  1.00  0.00    -0.251 OA
ENDBRANCH   3   5
BRANCH   1  12
HETATM   12  N1  UNL     1       3.608   0.789   0.494  1.00  0.00    -0.342 N 
ATOM     13  H12 UNL     1       3.447   1.778   0.304  1.00  0.00     0.176 HD
ATOM     14  H11 UNL     1       4.543   0.440   0.704  1.00  0.00     0.176 HD
ENDBRANCH   1  12
TORSDOF 2
