REMARK  6 active torsions:
REMARK  status: ('A' for Active; 'I' for Inactive)
REMARK    1  A    between atoms: C2_2  and  C4_4 
REMARK    2  A    between atoms: C4_4  and  N1_5 
REMARK    3  A    between atoms: C4_4  and  C11_16 
REMARK       I    between atoms: N1_5  and  C5_7 
REMARK    4  A    between atoms: C5_7  and  C6_9 
REMARK    5  A    between atoms: C6_9  and  N2_10 
REMARK    6  A    between atoms: N2_10  and  C7_11 
ROOT
HETATM    1  C7  UNL     1      -3.394   0.659   0.871  1.00  0.00     0.361 C 
HETATM    2  C8  UNL     1      -4.480   1.119   0.002  1.00  0.00     0.087 C 
HETATM    3  N3  UNL     1      -5.363   1.487  -0.679  1.00  0.00    -0.196 NA
ENDROOT
BRANCH   1   4
HETATM    4  N2  UNL     1      -2.821  -0.519   0.253  1.00  0.00    -0.044 N 
HETATM    5  C9  UNL     1      -2.799  -1.763   0.952  1.00  0.00     0.267 A 
HETATM    6  C10 UNL     1      -3.829  -1.529  -0.080  1.00  0.00     0.267 A 
BRANCH   4   7
HETATM    7  C6  UNL     1      -1.795  -0.246  -0.733  1.00  0.00     0.340 C 
BRANCH   7   8
HETATM    8  C5  UNL     1      -0.507   0.132  -0.091  1.00  0.00     0.244 C 
HETATM    9  N1  UNL     1       0.654   0.448  -0.843  1.00  0.00    -0.345 N 
ATOM     10  H1  UNL     1       0.629   0.422  -1.862  1.00  0.00     0.163 HD
HETATM   11  O1  UNL     1      -0.458   0.171   1.157  1.00  0.00    -0.272 OA
BRANCH   9  12
HETATM   12  C4  UNL     1       1.872   0.807  -0.154  1.00  0.00     0.189 C 
BRANCH  12  13
HETATM   13  C2  UNL     1       2.985  -0.191  -0.449  1.00  0.00     0.010 C 
HETATM   14  C1  UNL     1       2.511  -1.559   0.026  1.00  0.00     0.012 C 
HETATM   15  C3  UNL     1       4.201   0.194   0.368  1.00  0.00     0.012 C 
ENDBRANCH  12  13
BRANCH  12  16
HETATM   16  C11 UNL     1       2.326   2.126  -0.647  1.00  0.00     0.197 C 
HETATM   17  O2  UNL     1       1.651   2.711  -1.526  1.00  0.00    -0.646 OA
HETATM   18  O3  UNL     1       3.470   2.764  -0.188  1.00  0.00    -0.646 OA
ENDBRANCH  12  16
ENDBRANCH   9  12
ENDBRANCH   7   8
ENDBRANCH   4   7
ENDBRANCH   1   4
TORSDOF 6
