REMARK  6 active torsions:
REMARK  status: ('A' for Active; 'I' for Inactive)
REMARK    1  A    between atoms: C2_2  and  C3_3 
REMARK       I    between atoms: C3_3  and  N1_5 
REMARK    2  A    between atoms: N1_5  and  C4_7 
REMARK    3  A    between atoms: C4_7  and  C5_8 
REMARK    4  A    between atoms: C5_8  and  C6_9 
REMARK    5  A    between atoms: C5_8  and  N2_12 
REMARK    6  A    between atoms: C8_14  and  C9_15 
ROOT
HETATM    1  C4  UNL     1       0.457   0.387  -0.729  1.00  0.00     0.169 C 
ENDROOT
BRANCH   1   2
HETATM    2  N1  UNL     1      -0.671  -0.001   0.049  1.00  0.00    -0.358 N 
HETATM    3  C3  UNL     1      -1.982   0.423  -0.355  1.00  0.00     0.226 C 
HETATM    4  O1  UNL     1      -2.082   1.129  -1.390  1.00  0.00    -0.273 OA
ATOM      5  H1  UNL     1      -0.549  -0.574   0.884  1.00  0.00     0.162 HD
BRANCH   3   6
HETATM    6  C2  UNL     1      -3.208   0.064   0.394  1.00  0.00     0.037 A 
HETATM    7  C1  UNL     1      -4.419   0.940   0.073  1.00  0.00     0.025 C 
HETATM    8  C10 UNL     1      -3.190  -0.584   1.705  1.00  0.00     0.020 A 
HETATM    9  C11 UNL     1      -3.576  -1.399   0.521  1.00  0.00     0.020 A 
ENDBRANCH   3   6
ENDBRANCH   1   2
BRANCH   1  10
HETATM   10  C5  UNL     1       1.792  -0.136  -0.211  1.00  0.00     0.341 C 
BRANCH  10  11
HETATM   11  C6  UNL     1       1.723  -1.617  -0.234  1.00  0.00     0.209 C 
HETATM   12  O2  UNL     1       2.484  -2.212  -1.076  1.00  0.00    -0.646 OA
HETATM   13  O3  UNL     1       0.898  -2.376   0.590  1.00  0.00    -0.646 OA
ENDBRANCH  10  11
BRANCH  10  14
HETATM   14  N2  UNL     1       2.785   0.312  -1.114  1.00  0.00     0.120 N 
HETATM   15  C7  UNL     1       4.134  -0.145  -1.146  1.00  0.00     0.317 A 
HETATM   16  C8  UNL     1       3.756   1.317  -0.874  1.00  0.00     0.313 A 
BRANCH  16  17
HETATM   17  C9  UNL     1       4.083   1.843   0.457  1.00  0.00     0.268 C 
HETATM   18  O4  UNL     1       4.032   1.157   1.450  1.00  0.00    -0.304 OA
ENDBRANCH  16  17
ENDBRANCH  10  14
ENDBRANCH   1  10
TORSDOF 6
