REMARK  3 active torsions:
REMARK  status: ('A' for Active; 'I' for Inactive)
REMARK    1  A    between atoms: C4_4  and  C5_5 
REMARK    2  A    between atoms: C11_18  and  N4_19 
REMARK    3  A    between atoms: C12_24  and  N6_25 
ROOT
HETATM    1  C5  UNL     1       2.062   0.059  -0.031  1.00  0.00     0.031 C 
HETATM    2  C6  UNL     1       0.999  -0.712  -0.069  1.00  0.00     0.052 A 
HETATM    3  N1  UNL     1       1.147  -2.123  -0.155  1.00  0.00    -0.351 N 
ATOM      4  H1  UNL     1       2.060  -2.577  -0.189  1.00  0.00     0.166 HD
HETATM    5  C7  UNL     1       0.032  -2.791  -0.187  1.00  0.00     0.181 A 
HETATM    6  N2  UNL     1      -1.257  -2.247  -0.143  1.00  0.00    -0.350 N 
ATOM      7  H2  UNL     1      -2.059  -2.876  -0.174  1.00  0.00     0.166 HD
HETATM    8  C8  UNL     1      -1.490  -0.812  -0.055  1.00  0.00     0.069 A 
HETATM    9  C9  UNL     1      -0.335  -0.086  -0.020  1.00  0.00     0.061 A 
HETATM   10  S1  UNL     1      -0.873   1.523   0.081  1.00  0.00    -0.066 SA
HETATM   11  C10 UNL     1      -2.556   1.245   0.078  1.00  0.00     0.107 A 
HETATM   12  N3  UNL     1      -3.645   2.063   0.136  1.00  0.00    -0.185 N 
ATOM     13  H3  UNL     1      -3.506   3.072   0.195  1.00  0.00     0.185 HD
HETATM   14  C11 UNL     1      -4.894   1.577   0.117  1.00  0.00     0.678 A 
HETATM   15  N5  UNL     1      -5.010   0.259   0.039  1.00  0.00    -0.176 N 
ATOM     16  H5  UNL     1      -5.953  -0.130   0.024  1.00  0.00     0.186 HD
HETATM   17  C12 UNL     1      -3.983  -0.604  -0.022  1.00  0.00     0.130 A 
HETATM   18  C13 UNL     1      -2.660  -0.114  -0.003  1.00  0.00     0.070 A 
ENDROOT
BRANCH   1  19
HETATM   19  C4  UNL     1       3.378  -0.513  -0.076  1.00  0.00     0.004 C 
HETATM   20  C2  UNL     1       4.492   0.206  -0.042  1.00  0.00    -0.088 C 
HETATM   21  C1  UNL     1       4.331   1.686   0.049  1.00  0.00     0.043 C 
HETATM   22  C3  UNL     1       5.815  -0.448  -0.092  1.00  0.00     0.043 C 
ENDBRANCH   1  19
BRANCH  17  23
HETATM   23  N6  UNL     1      -4.248  -1.863  -0.096  1.00  0.00    -0.384 N 
ATOM     24  H62 UNL     1      -5.204  -2.217  -0.110  1.00  0.00     0.157 HD
ATOM     25  H61 UNL     1      -3.468  -2.519  -0.142  1.00  0.00     0.157 HD
ENDBRANCH  17  23
BRANCH  14  26
HETATM   26  N4  UNL     1      -5.908   2.369   0.173  1.00  0.00    -0.234 N 
ATOM     27  H42 UNL     1      -5.819   3.383   0.233  1.00  0.00     0.174 HD
ATOM     28  H41 UNL     1      -6.858   1.999   0.159  1.00  0.00     0.174 HD
ENDBRANCH  14  26
TORSDOF 3
