REMARK  9 active torsions:
REMARK  status: ('A' for Active; 'I' for Inactive)
REMARK    1  A    between atoms: C3_3  and  N1_4 
REMARK    2  A    between atoms: C7_10  and  C8_11 
REMARK    3  A    between atoms: N3_15  and  N4_16 
REMARK    4  A    between atoms: N4_16  and  C11_18 
REMARK    5  A    between atoms: C13_23  and  C14_24 
REMARK       I    between atoms: C14_24  and  N6_26 
REMARK    6  A    between atoms: N6_26  and  N7_28 
REMARK    7  A    between atoms: C15_31  and  O4_32 
REMARK    8  A    between atoms: C16_34  and  N8_35 
REMARK    9  A    between atoms: C18_41  and  O6_42 
ROOT
HETATM    1  N4  UNL     1       2.163   0.892   1.796  1.00  0.00    -0.274 N 
ATOM      2  H4  UNL     1       1.993   1.491   2.604  1.00  0.00     0.189 HD
ENDROOT
BRANCH   1   3
HETATM    3  N3  UNL     1       1.106   0.130   1.240  1.00  0.00    -0.180 N 
HETATM    4  C10 UNL     1       0.917  -1.180   0.758  1.00  0.00     0.285 A 
HETATM    5  C9  UNL     1      -0.493  -0.909   0.437  1.00  0.00     0.105 A 
HETATM    6  O1  UNL     1       1.650  -2.210   0.634  1.00  0.00    -0.265 OA
HETATM    7  C8  UNL     1      -1.474  -1.650  -0.064  1.00  0.00     0.038 C 
HETATM    8  C17 UNL     1      -0.256   0.429   0.943  1.00  0.00     0.285 A 
HETATM    9  O5  UNL     1      -0.958   1.494   1.088  1.00  0.00    -0.265 OA
BRANCH   7  10
HETATM   10  C7  UNL     1      -2.798  -1.125  -0.289  1.00  0.00     0.014 A 
HETATM   11  C6  UNL     1      -2.954   0.075  -0.938  1.00  0.00     0.104 A 
HETATM   12  N2  UNL     1      -4.205   0.551  -1.114  1.00  0.00    -0.351 N 
HETATM   13  C3  UNL     1      -5.302  -0.114  -0.674  1.00  0.00     0.111 A 
ATOM     14  H2  UNL     1      -4.329   1.442  -1.595  1.00  0.00     0.166 HD
HETATM   15  C2  UNL     1      -5.153  -1.308  -0.029  1.00  0.00     0.016 A 
HETATM   16  C1  UNL     1      -6.388  -2.000   0.431  1.00  0.00     0.055 C 
HETATM   17  C18 UNL     1      -3.908  -1.836   0.177  1.00  0.00     0.086 A 
BRANCH  13  18
HETATM   18  N1  UNL     1      -6.538   0.514  -0.929  1.00  0.00    -0.376 N 
HETATM   19  C4  UNL     1      -7.384   0.905   0.161  1.00  0.00     0.150 C 
HETATM   20  C5  UNL     1      -6.946   0.760  -2.283  1.00  0.00     0.150 C 
ENDBRANCH  13  18
BRANCH  17  21
HETATM   21  O6  UNL     1      -3.754  -3.046   0.831  1.00  0.00    -0.359 OA
ATOM     22  H6  UNL     1      -2.889  -3.413   0.974  1.00  0.00     0.217 HD
ENDBRANCH  17  21
ENDBRANCH   7  10
ENDBRANCH   1   3
BRANCH   1  23
HETATM   23  C11 UNL     1       3.484   0.816   1.213  1.00  0.00     0.137 A 
HETATM   24  N5  UNL     1       4.479   0.755   2.015  1.00  0.00    -0.309 N 
HETATM   25  C12 UNL     1       5.838   0.675   1.595  1.00  0.00     0.265 A 
ATOM     26  H5  UNL     1       4.287   0.764   3.017  1.00  0.00     0.170 HD
HETATM   27  O2  UNL     1       6.770   0.618   2.423  1.00  0.00    -0.267 OA
HETATM   28  C13 UNL     1       6.133   0.661   0.170  1.00  0.00     0.133 A 
HETATM   29  C15 UNL     1       5.089   0.725  -0.647  1.00  0.00     0.102 A 
HETATM   30  C16 UNL     1       3.682   0.808  -0.236  1.00  0.00     0.309 A 
BRANCH  28  31
HETATM   31  C14 UNL     1       7.464   0.585  -0.392  1.00  0.00     0.277 C 
HETATM   32  O3  UNL     1       7.563   0.583  -1.681  1.00  0.00    -0.266 OA
HETATM   33  N6  UNL     1       8.689   0.510   0.283  1.00  0.00    -0.272 N 
ATOM     34  H6  UNL     1       8.689   0.506   1.303  1.00  0.00     0.189 HD
BRANCH  33  35
HETATM   35  N7  UNL     1       9.930   0.440  -0.400  1.00  0.00    -0.342 N 
ATOM     36  H72 UNL     1       9.912   0.446  -1.420  1.00  0.00     0.176 HD
ATOM     37  H71 UNL     1      10.822   0.385   0.092  1.00  0.00     0.176 HD
ENDBRANCH  33  35
ENDBRANCH  28  31
BRANCH  29  38
HETATM   38  O4  UNL     1       5.369   0.712  -2.029  1.00  0.00    -0.361 OA
ATOM     39  H4  UNL     1       4.622   0.758  -2.614  1.00  0.00     0.217 HD
ENDBRANCH  29  38
BRANCH  30  40
HETATM   40  N8  UNL     1       3.142   2.012  -0.865  1.00  0.00    -0.062 N 
ATOM     41  H83 UNL     1       2.160   2.147  -0.625  1.00  0.00     0.275 HD
ATOM     42  H82 UNL     1       3.528   2.856  -0.442  1.00  0.00     0.275 HD
ATOM     43  H81 UNL     1       3.280   2.006  -1.876  1.00  0.00     0.275 HD
ENDBRANCH  30  40
ENDBRANCH   1  23
TORSDOF 9
