REMARK  6 active torsions:
REMARK  status: ('A' for Active; 'I' for Inactive)
REMARK    1  A    between atoms: C2_2  and  O1_3 
REMARK    2  A    between atoms: O1_3  and  C3_4 
REMARK    3  A    between atoms: C3_4  and  C4_6 
REMARK    4  A    between atoms: C8_11  and  N1_12 
REMARK       I    between atoms: N1_12  and  C9_14 
REMARK    5  A    between atoms: C9_14  and  C10_16 
REMARK    6  A    between atoms: C11_17  and  C12_18 
ROOT
HETATM    1  C12 UNL     1      -1.012   1.694   2.117  1.00  0.00     0.165 C 
HETATM    2  C13 UNL     1      -1.169   1.017   3.415  1.00  0.00     0.063 C 
HETATM    3  N2  UNL     1      -1.312   0.493   4.448  1.00  0.00    -0.197 NA
ENDROOT
BRANCH   1   4
HETATM    4  C11 UNL     1      -1.700   1.054   1.018  1.00  0.00    -0.006 A 
HETATM    5  C10 UNL     1      -1.232  -0.012   0.265  1.00  0.00     0.060 A 
HETATM    6  C19 UNL     1      -2.053  -0.542  -0.754  1.00  0.00     0.048 A 
HETATM    7  C16 UNL     1      -3.287  -0.059  -1.039  1.00  0.00     0.051 A 
HETATM    8  S2  UNL     1      -1.898  -1.816  -1.866  1.00  0.00    -0.099 SA
HETATM    9  N3  UNL     1      -3.728   0.999  -0.281  1.00  0.00    -0.358 N 
HETATM   10  C17 UNL     1      -3.990  -0.656  -2.030  1.00  0.00     0.038 A 
HETATM   11  C14 UNL     1      -2.980   1.502   0.668  1.00  0.00     0.014 A 
ATOM     12  H3  UNL     1      -4.650   1.397  -0.460  1.00  0.00     0.166 HD
HETATM   13  C15 UNL     1      -3.501   2.653   1.477  1.00  0.00     0.068 C 
HETATM   14  C18 UNL     1      -3.393  -1.708  -2.666  1.00  0.00     0.053 A 
BRANCH   5  15
HETATM   15  C9  UNL     1       0.057  -0.581   0.499  1.00  0.00     0.258 C 
HETATM   16  N1  UNL     1       0.819  -1.371  -0.396  1.00  0.00    -0.321 N 
ATOM     17  H1  UNL     1       0.455  -1.583  -1.325  1.00  0.00     0.169 HD
HETATM   18  O3  UNL     1       0.617  -0.370   1.636  1.00  0.00    -0.267 OA
BRANCH  16  19
HETATM   19  C8  UNL     1       2.132  -1.885   0.013  1.00  0.00     0.064 A 
HETATM   20  C4  UNL     1       3.254  -1.140  -0.219  1.00  0.00     0.107 A 
HETATM   21  S1  UNL     1       4.505  -2.117   0.409  1.00  0.00    -0.093 SA
HETATM   22  C5  UNL     1       3.578  -3.436   0.946  1.00  0.00     0.059 A 
HETATM   23  C6  UNL     1       2.298  -3.078   0.618  1.00  0.00    -0.027 A 
HETATM   24  C7  UNL     1       1.127  -4.006   0.935  1.00  0.00     0.051 C 
BRANCH  20  25
HETATM   25  C3  UNL     1       3.344   0.190  -0.863  1.00  0.00     0.302 C 
HETATM   26  O2  UNL     1       4.457   0.735  -0.998  1.00  0.00    -0.259 OA
BRANCH  25  27
HETATM   27  O1  UNL     1       2.199   0.787  -1.294  1.00  0.00    -0.317 OA
BRANCH  27  28
HETATM   28  C2  UNL     1       2.148   2.052  -1.923  1.00  0.00     0.174 C 
HETATM   29  C1  UNL     1       2.704   3.069  -0.973  1.00  0.00     0.034 C 
ENDBRANCH  27  28
ENDBRANCH  25  27
ENDBRANCH  20  25
ENDBRANCH  16  19
ENDBRANCH   5  15
ENDBRANCH   1   4
TORSDOF 6
