REMARK  3 active torsions:
REMARK  status: ('A' for Active; 'I' for Inactive)
REMARK    1  A    between atoms: C5_5  and  C6_6 
REMARK    2  A    between atoms: C8_11  and  C10_13 
REMARK    3  A    between atoms: N1_17  and  O1_18 
ROOT
HETATM    1  C1  UNL     1       2.599  -0.056  -0.895  1.00  0.00     0.038 C 
HETATM    2  C2  UNL     1       1.353   0.170  -0.026  1.00  0.00     0.050 C 
HETATM    3  C3  UNL     1       1.869   0.546   1.342  1.00  0.00     0.038 C 
HETATM    4  C4  UNL     1       0.598   1.336  -0.543  1.00  0.00     0.011 C 
HETATM    5  C5  UNL     1      -0.667   1.462  -0.175  1.00  0.00     0.026 C 
HETATM    6  C7  UNL     1      -1.252   0.451   0.711  1.00  0.00     0.079 C 
HETATM    7  C8  UNL     1      -0.795  -0.930   0.306  1.00  0.00     0.137 C 
HETATM    8  C9  UNL     1      -1.732  -1.367  -0.834  1.00  0.00     0.045 C 
HETATM    9  N1  UNL     1       0.569  -1.001  -0.080  1.00  0.00    -0.169 NA
ENDROOT
BRANCH   7  10
HETATM   10  C10 UNL     1      -1.026  -1.949   1.407  1.00  0.00     0.409 C 
HETATM   11  F4  UNL     1      -0.567  -3.166   0.916  1.00  0.00    -0.169 F 
HETATM   12  F5  UNL     1      -2.397  -2.090   1.653  1.00  0.00    -0.169 F 
HETATM   13  F6  UNL     1      -0.358  -1.681   2.559  1.00  0.00    -0.169 F 
ENDBRANCH   7  10
BRANCH   9  14
HETATM   14  O1  UNL     1       0.621  -1.518  -1.342  1.00  0.00    -0.311 OA
ATOM     15  H1  UNL     1       0.093  -2.307  -1.378  1.00  0.00     0.237 HD
ENDBRANCH   9  14
BRANCH   5  16
HETATM   16  C6  UNL     1      -1.422   2.641  -0.700  1.00  0.00     0.413 C 
HETATM   17  F1  UNL     1      -0.626   3.427  -1.509  1.00  0.00    -0.166 F 
HETATM   18  F2  UNL     1      -2.481   2.205  -1.477  1.00  0.00    -0.166 F 
HETATM   19  F3  UNL     1      -1.858   3.353   0.407  1.00  0.00    -0.166 F 
ENDBRANCH   5  16
TORSDOF 3
