REMARK  6 active torsions:
REMARK  status: ('A' for Active; 'I' for Inactive)
REMARK    1  A    between atoms: C2_3  and  C9_25 
REMARK    2  A    between atoms: C3_4  and  C4_5 
REMARK    3  A    between atoms: C5_6  and  S1_7 
REMARK    4  A    between atoms: S1_7  and  N2_10 
REMARK       I    between atoms: N2_10  and  C6_12 
REMARK    5  A    between atoms: N4_15  and  N5_16 
REMARK       I    between atoms: C9_25  and  N7_27 
REMARK    6  A    between atoms: N7_27  and  N8_29 
ROOT
HETATM    1  N1  UNL     1       3.868  -1.247   0.936  1.00  0.00    -0.191 NA
HETATM    2  C1  UNL     1       3.078  -0.411   0.680  1.00  0.00     0.105 C 
HETATM    3  C2  UNL     1       2.133   0.627   0.335  1.00  0.00     0.114 C 
HETATM    4  C3  UNL     1       0.835   0.444   0.403  1.00  0.00     0.048 C 
ENDROOT
BRANCH   3   5
HETATM    5  C9  UNL     1       2.694   1.933  -0.098  1.00  0.00     0.280 C 
HETATM    6  O6  UNL     1       1.893   2.845  -0.388  1.00  0.00    -0.265 OA
HETATM    7  N7  UNL     1       4.096   2.072  -0.157  1.00  0.00    -0.272 N 
ATOM      8  H7  UNL     1       4.668   1.267   0.100  1.00  0.00     0.189 HD
BRANCH   7   9
HETATM    9  N8  UNL     1       4.747   3.239  -0.544  1.00  0.00    -0.342 N 
ATOM     10  H82 UNL     1       4.159   4.033  -0.797  1.00  0.00     0.176 HD
ATOM     11  H81 UNL     1       5.761   3.340  -0.587  1.00  0.00     0.176 HD
ENDBRANCH   7   9
ENDBRANCH   3   5
BRANCH   4  12
HETATM   12  C4  UNL     1       0.097  -0.715   0.804  1.00  0.00     0.076 A 
HETATM   13  C5  UNL     1      -0.829  -1.242  -0.110  1.00  0.00     0.191 A 
HETATM   14  N4  UNL     1      -1.563  -2.313   0.227  1.00  0.00    -0.198 N 
HETATM   15  C7  UNL     1      -1.407  -2.879   1.444  1.00  0.00     0.349 A 
HETATM   16  O4  UNL     1      -2.114  -3.896   1.740  1.00  0.00    -0.245 OA
HETATM   17  N6  UNL     1      -0.524  -2.379   2.320  1.00  0.00    -0.273 N 
HETATM   18  C8  UNL     1       0.252  -1.295   2.044  1.00  0.00     0.262 A 
ATOM     19  H6  UNL     1      -0.430  -2.829   3.230  1.00  0.00     0.173 HD
HETATM   20  O5  UNL     1       1.063  -0.856   2.899  1.00  0.00    -0.267 OA
BRANCH  13  21
HETATM   21  S1  UNL     1      -1.009  -0.490  -1.668  1.00  0.00     0.285 S 
HETATM   22  O1  UNL     1      -1.461  -1.503  -2.696  1.00  0.00    -0.199 OA
HETATM   23  O2  UNL     1       0.249   0.198  -2.128  1.00  0.00    -0.199 OA
BRANCH  21  24
HETATM   24  N2  UNL     1      -2.220   0.721  -1.573  1.00  0.00    -0.233 N 
HETATM   25  C6  UNL     1      -2.957   1.012  -0.404  1.00  0.00     0.342 C 
HETATM   26  N3  UNL     1      -3.952   2.032  -0.403  1.00  0.00    -0.039 NA
HETATM   27  O3  UNL     1      -2.785   0.402   0.685  1.00  0.00    -0.250 OA
ATOM     28  H2  UNL     1      -2.420   1.264  -2.413  1.00  0.00     0.183 HD
ENDBRANCH  21  24
ENDBRANCH  13  21
BRANCH  14  29
HETATM   29  N5  UNL     1      -2.469  -2.817  -0.707  1.00  0.00    -0.333 N 
ATOM     30  H52 UNL     1      -2.587  -2.390  -1.626  1.00  0.00     0.177 HD
ATOM     31  H51 UNL     1      -3.027  -3.631  -0.451  1.00  0.00     0.177 HD
ENDBRANCH  14  29
ENDBRANCH   4  12
TORSDOF 6
