REMARK  11 active torsions:
REMARK  status: ('A' for Active; 'I' for Inactive)
REMARK    1  A    between atoms: O1_2  and  C2_3 
REMARK    2  A    between atoms: C2_3  and  O2_7 
REMARK    3  A    between atoms: O2_7  and  C3_8 
REMARK    4  A    between atoms: C3_8  and  C4_9 
REMARK    5  A    between atoms: C4_9  and  O3_10 
REMARK    6  A    between atoms: C6_14  and  C7_15 
REMARK    7  A    between atoms: C7_15  and  O4_16 
REMARK    8  A    between atoms: C7_15  and  C8_18 
REMARK    9  A    between atoms: C8_18  and  O5_19 
REMARK   10  A    between atoms: C10_22  and  O6_23 
REMARK   11  A    between atoms: C11_25  and  O7_26 
ROOT
HETATM    1  C3  UNL     1       1.915  -0.431   0.853  1.00  0.00     0.204 C 
HETATM    2  C5  UNL     1       1.166  -0.607   2.166  1.00  0.00     0.148 C 
HETATM    3  S1  UNL     1       0.106  -2.009   1.609  1.00  0.00    -0.129 SA
HETATM    4  C6  UNL     1       0.358  -1.730  -0.172  1.00  0.00     0.221 C 
HETATM    5  O9  UNL     1       1.066  -0.574  -0.186  1.00  0.00    -0.333 OA
ENDROOT
BRANCH   4   6
HETATM    6  C7  UNL     1      -0.916  -1.709  -0.931  1.00  0.00     0.219 C 
BRANCH   6   7
HETATM    7  O4  UNL     1      -0.672  -1.425  -2.269  1.00  0.00    -0.387 OA
ATOM      8  H4  UNL     1      -1.488  -1.412  -2.755  1.00  0.00     0.210 HD
ENDBRANCH   6   7
BRANCH   6   9
HETATM    9  C8  UNL     1      -2.005  -0.840  -0.433  1.00  0.00     0.193 C 
HETATM   10  C9  UNL     1      -1.774   0.634  -0.603  1.00  0.00     0.105 C 
HETATM   11  C10 UNL     1      -2.850   1.402   0.134  1.00  0.00     0.154 C 
HETATM   12  C11 UNL     1      -4.070   0.587   0.414  1.00  0.00     0.170 C 
HETATM   13  C12 UNL     1      -3.739  -0.757   0.977  1.00  0.00     0.205 C 
HETATM   14  O8  UNL     1      -2.389  -1.086   0.871  1.00  0.00    -0.350 OA
BRANCH   9  15
HETATM   15  O5  UNL     1      -3.139  -1.139  -1.234  1.00  0.00    -0.363 OA
ATOM     16  H5  UNL     1      -3.838  -0.581  -0.914  1.00  0.00     0.213 HD
ENDBRANCH   9  15
BRANCH  11  17
HETATM   17  O6  UNL     1      -2.374   1.888   1.354  1.00  0.00    -0.393 OA
ATOM     18  H6  UNL     1      -3.049   2.370   1.817  1.00  0.00     0.210 HD
ENDBRANCH  11  17
BRANCH  12  19
HETATM   19  O7  UNL     1      -4.804   1.278   1.404  1.00  0.00    -0.391 OA
ATOM     20  H7  UNL     1      -5.580   0.760   1.582  1.00  0.00     0.210 HD
ENDBRANCH  12  19
ENDBRANCH   6   9
ENDBRANCH   4   6
BRANCH   1  21
HETATM   21  O2  UNL     1       2.312   0.958   0.856  1.00  0.00    -0.276 OA
BRANCH  21  22
HETATM   22  C2  UNL     1       3.060   1.473  -0.194  1.00  0.00     0.260 C 
HETATM   23  N1  UNL     1       2.875   0.984  -1.359  1.00  0.00    -0.359 N 
ATOM     24  H12 UNL     1       3.425   1.362  -2.130  1.00  0.00     0.160 HD
ATOM     25  H11 UNL     1       2.203   0.237  -1.535  1.00  0.00     0.160 HD
BRANCH  22  26
HETATM   26  O1  UNL     1       3.976   2.490   0.046  1.00  0.00    -0.322 OA
HETATM   27  C1  UNL     1       4.797   2.897  -1.041  1.00  0.00     0.213 C 
ENDBRANCH  22  26
ENDBRANCH  21  22
ENDBRANCH   1  21
BRANCH   1  28
HETATM   28  C4  UNL     1       3.164  -1.273   0.823  1.00  0.00     0.234 C 
BRANCH  28  29
HETATM   29  O3  UNL     1       2.939  -2.632   0.830  1.00  0.00    -0.395 OA
ATOM     30  H3  UNL     1       3.727  -3.163   0.811  1.00  0.00     0.209 HD
ENDBRANCH  28  29
ENDBRANCH   1  28
TORSDOF 11
