REMARK  9 active torsions:
REMARK  status: ('A' for Active; 'I' for Inactive)
REMARK    1  A    between atoms: O1_2  and  C2_3 
REMARK    2  A    between atoms: C3_4  and  N1_5 
REMARK    3  A    between atoms: C5_10  and  O2_11 
REMARK    4  A    between atoms: C6_13  and  O3_14 
REMARK    5  A    between atoms: O3_14  and  C7_15 
REMARK    6  A    between atoms: C9_20  and  O4_21 
REMARK    7  A    between atoms: C10_23  and  O5_24 
REMARK    8  A    between atoms: C11_26  and  O6_27 
REMARK    9  A    between atoms: O6_27  and  S1_28 
ROOT
HETATM    1  C7  UNL     1       0.805  -0.634  -0.431  1.00  0.00     0.354 C 
HETATM    2  N2  UNL     1       0.642  -1.213  -1.744  1.00  0.00    -0.044 N 
ATOM      3  H21 UNL     1       0.632  -0.487  -2.460  1.00  0.00     0.280 HD
ATOM      4  H22 UNL     1      -0.302  -1.580  -1.862  1.00  0.00     0.280 HD
HETATM    5  C8  UNL     1       1.621  -2.218  -2.052  1.00  0.00     0.269 C 
HETATM    6  C9  UNL     1       3.010  -1.838  -1.619  1.00  0.00     0.175 C 
HETATM    7  C10 UNL     1       3.134  -0.350  -1.373  1.00  0.00     0.183 C 
HETATM    8  C11 UNL     1       2.094   0.124  -0.392  1.00  0.00     0.232 C 
ENDROOT
BRANCH   1   9
HETATM    9  O3  UNL     1      -0.235   0.285  -0.281  1.00  0.00    -0.346 OA
BRANCH   9  10
HETATM   10  C6  UNL     1      -1.080  -0.011   0.754  1.00  0.00     0.184 C 
HETATM   11  C2  UNL     1      -2.527  -0.102   0.308  1.00  0.00     0.182 C 
HETATM   12  C3  UNL     1      -3.345   0.319   1.498  1.00  0.00     0.217 C 
HETATM   13  C4  UNL     1      -2.430   1.049   2.453  1.00  0.00     0.070 C 
HETATM   14  C5  UNL     1      -1.140   1.189   1.671  1.00  0.00     0.151 C 
BRANCH  11  15
HETATM   15  O1  UNL     1      -2.865  -1.340  -0.176  1.00  0.00    -0.386 OA
HETATM   16  C1  UNL     1      -3.272  -1.324  -1.505  1.00  0.00     0.202 C 
ENDBRANCH  11  15
BRANCH  12  17
HETATM   17  N1  UNL     1      -4.479   1.133   1.102  1.00  0.00    -0.072 N 
ATOM     18  H13 UNL     1      -4.186   1.937   0.547  1.00  0.00     0.274 HD
ATOM     19  H12 UNL     1      -5.052   0.660   0.403  1.00  0.00     0.274 HD
ATOM     20  H11 UNL     1      -5.034   1.418   1.909  1.00  0.00     0.274 HD
ENDBRANCH  12  17
BRANCH  14  21
HETATM   21  O2  UNL     1      -1.320   2.307   0.822  1.00  0.00    -0.393 OA
ATOM     22  H2  UNL     1      -0.511   2.395   0.332  1.00  0.00     0.210 HD
ENDBRANCH  14  21
ENDBRANCH   9  10
ENDBRANCH   1   9
BRANCH   8  23
HETATM   23  O6  UNL     1       2.588   0.191   0.905  1.00  0.00    -0.244 OA
BRANCH  23  24
HETATM   24  S1  UNL     1       2.854   1.694   1.505  1.00  0.00     0.252 S 
HETATM   25  O7  UNL     1       2.492   1.873   2.947  1.00  0.00    -0.572 OA
HETATM   26  O8  UNL     1       2.045   2.684   0.714  1.00  0.00    -0.572 OA
HETATM   27  O9  UNL     1       4.474   2.126   1.234  1.00  0.00    -0.572 OA
ENDBRANCH  23  24
ENDBRANCH   8  23
BRANCH   7  28
HETATM   28  O5  UNL     1       2.925   0.327  -2.572  1.00  0.00    -0.390 OA
ATOM     29  H5  UNL     1       3.003   1.261  -2.418  1.00  0.00     0.210 HD
ENDBRANCH   7  28
BRANCH   6  30
HETATM   30  O4  UNL     1       3.407  -2.594  -0.522  1.00  0.00    -0.391 OA
ATOM     31  H4  UNL     1       4.285  -2.354  -0.248  1.00  0.00     0.210 HD
ENDBRANCH   6  30
TORSDOF 9
