REMARK  10 active torsions:
REMARK  status: ('A' for Active; 'I' for Inactive)
REMARK    1  A    between atoms: C2_2  and  C4_4 
REMARK    2  A    between atoms: C2_2  and  O2_6 
REMARK    3  A    between atoms: O2_6  and  C5_7 
REMARK    4  A    between atoms: C6_8  and  O3_9 
REMARK    5  A    between atoms: C7_11  and  O4_12 
REMARK    6  A    between atoms: C8_14  and  O5_15 
REMARK    7  A    between atoms: C9_17  and  O6_18 
REMARK    8  A    between atoms: O6_18  and  S1_19 
REMARK    9  A    between atoms: S1_19  and  N1_22 
REMARK   10  A    between atoms: C11_26  and  O9_27 
ROOT
HETATM    1  N1  UNL     1       4.538   2.052  -0.036  1.00  0.00    -0.198 N 
ATOM      2  H1  UNL     1       4.054   2.939  -0.173  1.00  0.00     0.193 HD
HETATM    3  C10 UNL     1       5.708   2.036   0.729  1.00  0.00     0.193 C 
HETATM    4  N2  UNL     1       6.678   2.030   1.368  1.00  0.00    -0.171 NA
ENDROOT
BRANCH   1   5
HETATM    5  S1  UNL     1       3.877   0.622  -0.761  1.00  0.00     0.370 S 
HETATM    6  O7  UNL     1       5.048  -0.325  -0.963  1.00  0.00    -0.175 OA
HETATM    7  O8  UNL     1       3.271   0.980  -2.076  1.00  0.00    -0.175 OA
BRANCH   5   8
HETATM    8  O6  UNL     1       2.817  -0.113   0.277  1.00  0.00    -0.248 OA
BRANCH   8   9
HETATM    9  C9  UNL     1       1.618  -0.501  -0.361  1.00  0.00     0.206 C 
HETATM   10  C8  UNL     1       1.446  -1.966  -0.137  1.00  0.00     0.182 C 
HETATM   11  C7  UNL     1       0.072  -2.457  -0.470  1.00  0.00     0.180 C 
HETATM   12  C6  UNL     1      -0.826  -1.364  -0.968  1.00  0.00     0.181 C 
HETATM   13  C5  UNL     1      -0.850  -0.172  -0.015  1.00  0.00     0.185 C 
HETATM   14  C11 UNL     1       0.528   0.328   0.279  1.00  0.00     0.182 C 
BRANCH  10  15
HETATM   15  O5  UNL     1       1.715  -2.274   1.206  1.00  0.00    -0.390 OA
ATOM     16  H5  UNL     1       2.587  -1.962   1.417  1.00  0.00     0.210 HD
ENDBRANCH  10  15
BRANCH  11  17
HETATM   17  O4  UNL     1       0.188  -3.402  -1.491  1.00  0.00    -0.390 OA
ATOM     18  H4  UNL     1       0.757  -4.094  -1.176  1.00  0.00     0.210 HD
ENDBRANCH  11  17
BRANCH  12  19
HETATM   19  O3  UNL     1      -0.461  -0.990  -2.259  1.00  0.00    -0.390 OA
ATOM     20  H3  UNL     1      -0.446  -1.732  -2.852  1.00  0.00     0.210 HD
ENDBRANCH  12  19
BRANCH  13  21
HETATM   21  O2  UNL     1      -1.717   0.794  -0.432  1.00  0.00    -0.363 OA
BRANCH  21  22
HETATM   22  C2  UNL     1      -2.835   1.031   0.284  1.00  0.00     0.107 C 
HETATM   23  C1  UNL     1      -3.589   2.158  -0.443  1.00  0.00     0.053 C 
HETATM   24  C3  UNL     1      -3.810  -0.123   0.343  1.00  0.00     0.053 C 
BRANCH  22  25
HETATM   25  C4  UNL     1      -2.662   1.518   1.670  1.00  0.00     0.268 C 
HETATM   26  O1  UNL     1      -1.608   1.730   2.231  1.00  0.00    -0.304 OA
ENDBRANCH  22  25
ENDBRANCH  21  22
ENDBRANCH  13  21
BRANCH  14  27
HETATM   27  O9  UNL     1       0.740   1.637  -0.213  1.00  0.00    -0.390 OA
ATOM     28  H9  UNL     1       1.616   1.955  -0.026  1.00  0.00     0.210 HD
ENDBRANCH  14  27
ENDBRANCH   8   9
ENDBRANCH   5   8
ENDBRANCH   1   5
TORSDOF 10
