REMARK  7 active torsions:
REMARK  status: ('A' for Active; 'I' for Inactive)
REMARK    1  A    between atoms: N1_2  and  C3_4 
REMARK    2  A    between atoms: C4_5  and  O1_6 
REMARK    3  A    between atoms: N3_13  and  C7_14 
REMARK    4  A    between atoms: C7_14  and  C8_15 
REMARK       I    between atoms: C8_15  and  N4_17 
REMARK    5  A    between atoms: N4_17  and  C9_19 
REMARK    6  A    between atoms: C9_19  and  C10_20 
REMARK       I    between atoms: C10_20  and  N5_22 
REMARK    7  A    between atoms: N5_22  and  N6_24 
ROOT
HETATM    1  C3  UNL     1      -3.784   0.268   0.323  1.00  0.00     0.143 A 
HETATM    2  C4  UNL     1      -3.570   0.664   1.629  1.00  0.00     0.163 A 
HETATM    3  C5  UNL     1      -2.362   0.482   2.268  1.00  0.00     0.239 A 
HETATM    4  O2  UNL     1      -2.166   0.840   3.452  1.00  0.00    -0.283 OA
HETATM    5  C6  UNL     1      -1.326  -0.118   1.580  1.00  0.00     0.134 A 
HETATM    6  N2  UNL     1      -0.055  -0.447   1.870  1.00  0.00    -0.289 N 
ATOM      7  H2  UNL     1       0.392  -0.277   2.771  1.00  0.00     0.187 HD
HETATM    8  N3  UNL     1       0.540  -1.019   0.838  1.00  0.00    -0.246 N 
HETATM    9  C11 UNL     1      -0.365  -1.068  -0.156  1.00  0.00     0.291 A 
HETATM   10  O5  UNL     1      -0.204  -1.541  -1.322  1.00  0.00    -0.264 OA
HETATM   11  C12 UNL     1      -1.557  -0.506   0.279  1.00  0.00     0.138 A 
HETATM   12  N7  UNL     1      -2.762  -0.314  -0.330  1.00  0.00    -0.329 N 
HETATM   13  C13 UNL     1      -2.920  -0.753  -1.700  1.00  0.00     0.158 C 
ENDROOT
BRANCH   8  14
HETATM   14  C7  UNL     1       1.907  -1.497   0.804  1.00  0.00     0.255 C 
BRANCH  14  15
HETATM   15  C8  UNL     1       2.807  -0.394   0.337  1.00  0.00     0.237 C 
HETATM   16  O3  UNL     1       2.319   0.724   0.053  1.00  0.00    -0.272 OA
HETATM   17  N4  UNL     1       4.200  -0.603   0.215  1.00  0.00    -0.351 N 
ATOM     18  H4  UNL     1       4.609  -1.509   0.444  1.00  0.00     0.163 HD
BRANCH  17  19
HETATM   19  C9  UNL     1       5.034   0.481  -0.237  1.00  0.00     0.227 C 
BRANCH  19  20
HETATM   20  C10 UNL     1       6.462   0.100  -0.310  1.00  0.00     0.253 C 
HETATM   21  O4  UNL     1       6.796  -1.083   0.016  1.00  0.00    -0.270 OA
HETATM   22  N5  UNL     1       7.455   1.018  -0.731  1.00  0.00    -0.275 N 
ATOM     23  H5  UNL     1       7.190   1.968  -0.992  1.00  0.00     0.189 HD
BRANCH  22  24
HETATM   24  N6  UNL     1       8.794   0.630  -0.790  1.00  0.00    -0.343 N 
ATOM     25  H62 UNL     1       9.042  -0.323  -0.525  1.00  0.00     0.176 HD
ATOM     26  H61 UNL     1       9.509   1.291  -1.093  1.00  0.00     0.176 HD
ENDBRANCH  22  24
ENDBRANCH  19  20
ENDBRANCH  17  19
ENDBRANCH  14  15
ENDBRANCH   8  14
BRANCH   2  27
HETATM   27  O1  UNL     1      -4.636   1.261   2.282  1.00  0.00    -0.354 OA
ATOM     28  H1  UNL     1      -4.489   1.533   3.180  1.00  0.00     0.218 HD
ENDBRANCH   2  27
BRANCH   1  29
HETATM   29  N1  UNL     1      -5.031   0.456  -0.336  1.00  0.00    -0.373 N 
HETATM   30  C1  UNL     1      -5.224   1.698  -1.060  1.00  0.00     0.150 C 
HETATM   31  C2  UNL     1      -6.101  -0.506  -0.326  1.00  0.00     0.150 C 
ENDBRANCH   1  29
TORSDOF 7
