REMARK  10 active torsions:
REMARK  status: ('A' for Active; 'I' for Inactive)
REMARK    1  A    between atoms: C2_2  and  O1_3 
REMARK    2  A    between atoms: C2_2  and  C3_5 
REMARK    3  A    between atoms: C3_5  and  N1_6 
REMARK    4  A    between atoms: C4_7  and  C5_8 
REMARK    5  A    between atoms: C6_9  and  N2_10 
REMARK    6  A    between atoms: N2_10  and  N3_11 
REMARK    7  A    between atoms: N2_10  and  O2_14 
REMARK    8  A    between atoms: C8_19  and  C9_20 
REMARK    9  A    between atoms: N5_21  and  N6_23 
REMARK   10  A    between atoms: N6_23  and  C10_25 
ROOT
HETATM    1  N1  UNL     1       1.337  -0.032  -0.546  1.00  0.00    -0.301 N 
HETATM    2  C4  UNL     1       1.741   1.134  -0.032  1.00  0.00     0.109 A 
HETATM    3  C7  UNL     1       0.803   2.161   0.174  1.00  0.00     0.128 A 
HETATM    4  N4  UNL     1      -0.494   1.996  -0.136  1.00  0.00    -0.357 N 
ATOM      5  H4  UNL     1      -1.166   2.748   0.018  1.00  0.00     0.165 HD
HETATM    6  C8  UNL     1      -0.888   0.821  -0.652  1.00  0.00     0.118 A 
HETATM    7  C13 UNL     1       0.039  -0.181  -0.850  1.00  0.00     0.277 A 
HETATM    8  O3  UNL     1      -0.361  -1.258  -1.331  1.00  0.00    -0.265 OA
ENDROOT
BRANCH   6   9
HETATM    9  C9  UNL     1      -2.297   0.657  -0.984  1.00  0.00     0.142 C 
HETATM   10  N5  UNL     1      -3.154   1.591  -0.798  1.00  0.00    -0.308 N 
ATOM     11  H5  UNL     1      -2.860   2.486  -0.406  1.00  0.00     0.186 HD
BRANCH  10  12
HETATM   12  N6  UNL     1      -4.486   1.379  -1.133  1.00  0.00    -0.288 N 
ATOM     13  H6  UNL     1      -4.929   1.969  -1.837  1.00  0.00     0.188 HD
BRANCH  12  14
HETATM   14  C10 UNL     1      -5.245   0.338  -0.498  1.00  0.00     0.119 C 
HETATM   15  N7  UNL     1      -6.170   0.504   0.382  1.00  0.00    -0.354 N 
HETATM   16  C11 UNL     1      -6.726  -0.767   0.809  1.00  0.00     0.356 C 
ATOM     17  H7  UNL     1      -6.473   1.412   0.734  1.00  0.00     0.162 HD
HETATM   18  N8  UNL     1      -6.309  -1.728  -0.209  1.00  0.00    -0.053 N 
HETATM   19  C12 UNL     1      -5.115  -1.112  -0.726  1.00  0.00     0.311 C 
ATOM     20  H82 UNL     1      -6.194  -2.686   0.122  1.00  0.00     0.279 HD
ATOM     21  H81 UNL     1      -7.017  -1.953  -0.908  1.00  0.00     0.279 HD
ENDBRANCH  12  14
ENDBRANCH  10  12
ENDBRANCH   6   9
BRANCH   1  22
HETATM   22  C3  UNL     1       2.234  -1.117  -0.741  1.00  0.00     0.164 C 
BRANCH  22  23
HETATM   23  C2  UNL     1       2.303  -2.146   0.326  1.00  0.00     0.132 C 
HETATM   24  C1  UNL     1       2.706  -1.681   1.682  1.00  0.00     0.041 C 
BRANCH  23  25
HETATM   25  O1  UNL     1       3.289  -3.082  -0.083  1.00  0.00    -0.394 OA
ATOM     26  H1  UNL     1       3.032  -3.379  -0.948  1.00  0.00     0.210 HD
ENDBRANCH  23  25
ENDBRANCH  22  23
ENDBRANCH   1  22
BRANCH   2  27
HETATM   27  C5  UNL     1       3.118   1.404   0.291  1.00  0.00    -0.020 C 
HETATM   28  C6  UNL     1       4.274   1.642   0.540  1.00  0.00     0.066 C 
BRANCH  28  29
HETATM   29  N2  UNL     1       5.618   1.906   0.848  1.00  0.00    -0.123 N 
BRANCH  29  30
HETATM   30  N3  UNL     1       6.145   3.171   0.984  1.00  0.00    -0.311 N 
ATOM     31  H32 UNL     1       5.538   3.981   0.856  1.00  0.00     0.180 HD
ATOM     32  H31 UNL     1       7.121   3.363   1.208  1.00  0.00     0.180 HD
ENDBRANCH  29  30
BRANCH  29  33
HETATM   33  O2  UNL     1       6.422   0.833   1.018  1.00  0.00    -0.261 OA
ATOM     34  H2  UNL     1       7.331   1.012   1.226  1.00  0.00     0.247 HD
ENDBRANCH  29  33
ENDBRANCH  28  29
ENDBRANCH   2  27
TORSDOF 10
