REMARK  3 active torsions:
REMARK  status: ('A' for Active; 'I' for Inactive)
REMARK    1  A    between atoms: C4_12  and  C5_13 
REMARK    2  A    between atoms: C5_13  and  O3_14 
REMARK    3  A    between atoms: C5_13  and  N4_16 
ROOT
HETATM    1  O1  UNL     1      -2.862   2.549   0.957  1.00  0.00    -0.247 OA
HETATM    2  C1  UNL     1      -2.440   1.439   0.537  1.00  0.00     0.327 A 
HETATM    3  N1  UNL     1      -3.319   0.427   0.515  1.00  0.00    -0.273 N 
ATOM      4  H1  UNL     1      -4.277   0.581   0.830  1.00  0.00     0.173 HD
HETATM    5  C2  UNL     1      -2.946  -0.795   0.079  1.00  0.00     0.280 A 
HETATM    6  O2  UNL     1      -3.754  -1.750   0.052  1.00  0.00    -0.265 OA
HETATM    7  C3  UNL     1      -1.643  -0.969  -0.341  1.00  0.00     0.145 A 
HETATM    8  N2  UNL     1      -0.997  -2.026  -0.811  1.00  0.00    -0.293 N 
ATOM      9  H2  UNL     1      -1.395  -2.955  -0.948  1.00  0.00     0.187 HD
HETATM   10  N3  UNL     1       0.248  -1.675  -1.072  1.00  0.00    -0.298 N 
ATOM     11  H3  UNL     1       0.960  -2.303  -1.445  1.00  0.00     0.187 HD
HETATM   12  C4  UNL     1       0.452  -0.378  -0.780  1.00  0.00     0.099 A 
HETATM   13  C7  UNL     1      -0.757   0.086  -0.310  1.00  0.00     0.098 A 
HETATM   14  N6  UNL     1      -1.159   1.295   0.131  1.00  0.00    -0.304 N 
ATOM     15  H6  UNL     1      -0.511   2.083   0.158  1.00  0.00     0.171 HD
ENDROOT
BRANCH  12  16
HETATM   16  C5  UNL     1       1.726   0.374  -0.942  1.00  0.00     0.264 C 
BRANCH  16  17
HETATM   17  O3  UNL     1       2.237   0.029  -2.204  1.00  0.00    -0.374 OA
ATOM     18  H3  UNL     1       3.050   0.509  -2.307  1.00  0.00     0.212 HD
ENDBRANCH  16  17
BRANCH  16  19
HETATM   19  N4  UNL     1       2.632  -0.054   0.075  1.00  0.00    -0.184 NA
HETATM   20  C6  UNL     1       2.412   0.049   1.433  1.00  0.00     0.241 A 
HETATM   21  N5  UNL     1       3.454   0.824   0.746  1.00  0.00    -0.145 NA
ENDBRANCH  16  19
ENDBRANCH  12  16
TORSDOF 3
