REMARK  5 active torsions:
REMARK  status: ('A' for Active; 'I' for Inactive)
REMARK    1  A    between atoms: O1_1  and  C1_3 
REMARK    2  A    between atoms: C1_3  and  C2_4 
REMARK    3  A    between atoms: C1_3  and  C8_11 
REMARK    4  A    between atoms: C2_4  and  N1_5 
REMARK    5  A    between atoms: C8_11  and  N2_12 
ROOT
HETATM    1  C1  UNL     1      -0.626   0.307   0.580  1.00  0.00     0.184 C 
ENDROOT
BRANCH   1   2
HETATM    2  O1  UNL     1      -1.343   1.079   1.530  1.00  0.00    -0.389 OA
ATOM      3  H1  UNL     1      -2.181   0.642   1.626  1.00  0.00     0.210 HD
ENDBRANCH   1   2
BRANCH   1   4
HETATM    4  C2  UNL     1       0.699   0.998   0.429  1.00  0.00     0.309 C 
BRANCH   4   5
HETATM    5  N1  UNL     1       1.605   0.337  -0.507  1.00  0.00     0.091 N 
HETATM    6  C3  UNL     1       2.687   1.241  -0.765  1.00  0.00     0.272 C 
HETATM    7  C4  UNL     1       4.052   0.726  -0.890  1.00  0.00     0.030 C 
HETATM    8  C5  UNL     1       4.406  -0.480  -0.082  1.00  0.00     0.003 C 
HETATM    9  C6  UNL     1       3.310  -0.700   0.942  1.00  0.00     0.030 C 
HETATM   10  C7  UNL     1       2.042  -0.899   0.108  1.00  0.00     0.272 C 
ENDBRANCH   4   5
ENDBRANCH   1   4
BRANCH   1  11
HETATM   11  C8  UNL     1      -1.295   0.399  -0.775  1.00  0.00     0.091 C 
BRANCH  11  12
HETATM   12  N2  UNL     1      -2.616  -0.047  -0.880  1.00  0.00    -0.391 N 
HETATM   13  C9  UNL     1      -3.653   0.681  -0.251  1.00  0.00     0.122 C 
HETATM   14  C10 UNL     1      -4.522  -0.297   0.516  1.00  0.00     0.021 C 
HETATM   15  C11 UNL     1      -3.761  -1.603   0.476  1.00  0.00     0.021 C 
HETATM   16  C12 UNL     1      -2.854  -1.435  -0.729  1.00  0.00     0.122 C 
ENDBRANCH  11  12
ENDBRANCH   1  11
TORSDOF 5
