REMARK  5 active torsions:
REMARK  status: ('A' for Active; 'I' for Inactive)
REMARK    1  A    between atoms: O1_1  and  C1_3 
REMARK    2  A    between atoms: N1_6  and  C4_7 
REMARK    3  A    between atoms: C4_7  and  C5_8 
REMARK    4  A    between atoms: C5_8  and  C6_9 
REMARK    5  A    between atoms: C6_9  and  N2_10 
ROOT
HETATM    1  C1  UNL     1      -4.339  -0.024   0.089  1.00  0.00     0.121 C 
HETATM    2  C2  UNL     1      -3.491   1.219   0.377  1.00  0.00     0.062 C 
HETATM    3  C3  UNL     1      -2.361   1.149  -0.623  1.00  0.00     0.275 C 
HETATM    4  N1  UNL     1      -1.372   0.204  -0.097  1.00  0.00     0.088 N 
HETATM    5  C11 UNL     1      -2.060  -0.855   0.642  1.00  0.00     0.275 C 
HETATM    6  C12 UNL     1      -3.366  -1.161  -0.066  1.00  0.00     0.062 C 
ENDROOT
BRANCH   4   7
HETATM    7  C4  UNL     1      -0.634  -0.399  -1.199  1.00  0.00     0.274 C 
BRANCH   7   8
HETATM    8  C5  UNL     1       0.628  -0.995  -0.594  1.00  0.00     0.060 C 
BRANCH   8   9
HETATM    9  C6  UNL     1       1.417   0.142   0.052  1.00  0.00     0.274 C 
BRANCH   9  10
HETATM   10  N2  UNL     1       2.614  -0.401   0.623  1.00  0.00     0.088 N 
HETATM   11  C7  UNL     1       3.570  -0.871  -0.346  1.00  0.00     0.272 C 
HETATM   12  C8  UNL     1       4.751   0.046  -0.353  1.00  0.00     0.032 C 
HETATM   13  C9  UNL     1       4.298   1.233   0.446  1.00  0.00     0.032 C 
HETATM   14  C10 UNL     1       3.320   0.602   1.418  1.00  0.00     0.272 C 
ENDBRANCH   9  10
ENDBRANCH   8   9
ENDBRANCH   7   8
ENDBRANCH   4   7
BRANCH   1  15
HETATM   15  O1  UNL     1      -5.228  -0.323   1.099  1.00  0.00    -0.395 OA
ATOM     16  H1  UNL     1      -5.754  -1.094   0.920  1.00  0.00     0.210 HD
ENDBRANCH   1  15
TORSDOF 5
