REMARK  7 active torsions:
REMARK  status: ('A' for Active; 'I' for Inactive)
REMARK    1  A    between atoms: C3_3  and  C4_5 
REMARK    2  A    between atoms: C6_7  and  C7_8 
REMARK    3  A    between atoms: C8_9  and  C9_10 
REMARK    4  A    between atoms: C11_12  and  C12_13 
REMARK    5  A    between atoms: C12_13  and  O2_15 
REMARK    6  A    between atoms: O2_15  and  C14_16 
REMARK    7  A    between atoms: C18_22  and  C19_23 
ROOT
HETATM    1  C1  UNL     1       9.880  -2.693   0.619  1.00  0.00     0.021 C 
HETATM    2  C2  UNL     1       8.775  -2.361   0.276  1.00  0.00    -0.035 C 
HETATM    3  C3  UNL     1       7.420  -1.944  -0.118  1.00  0.00     0.230 C 
HETATM    4  O1  UNL     1       7.083  -2.379  -1.238  1.00  0.00    -0.278 OA
ENDROOT
BRANCH   3   5
HETATM    5  C4  UNL     1       6.623  -1.120   0.750  1.00  0.00    -0.003 C 
HETATM    6  C5  UNL     1       7.283  -0.731   2.065  1.00  0.00     0.053 C 
HETATM    7  C6  UNL     1       5.410  -0.663   0.555  1.00  0.00     0.011 C 
BRANCH   7   8
HETATM    8  C7  UNL     1       4.546  -0.855  -0.567  1.00  0.00     0.001 C 
HETATM    9  C8  UNL     1       3.360  -0.457  -0.853  1.00  0.00     0.006 C 
BRANCH   9  10
HETATM   10  C9  UNL     1       2.384   0.354  -0.170  1.00  0.00    -0.063 C 
HETATM   11  C10 UNL     1       2.632   0.937   1.152  1.00  0.00     0.048 C 
HETATM   12  C11 UNL     1       1.203   0.573  -0.790  1.00  0.00     0.011 C 
BRANCH  12  13
HETATM   13  C12 UNL     1       0.114   1.363  -0.246  1.00  0.00     0.144 C 
HETATM   14  C13 UNL     1       0.529   2.840  -0.387  1.00  0.00     0.044 C 
BRANCH  13  15
HETATM   15  O2  UNL     1      -1.111   1.159  -0.881  1.00  0.00    -0.348 OA
BRANCH  15  16
HETATM   16  C14 UNL     1      -2.146   0.896  -0.040  1.00  0.00     0.300 C 
HETATM   17  O3  UNL     1      -3.016   2.037  -0.119  1.00  0.00    -0.286 OA
HETATM   18  C15 UNL     1      -4.188   2.250   0.557  1.00  0.00     0.261 C 
HETATM   19  O4  UNL     1      -4.516   3.481   0.668  1.00  0.00    -0.265 OA
HETATM   20  C16 UNL     1      -5.128   1.326   1.172  1.00  0.00     0.112 C 
HETATM   21  C17 UNL     1      -4.689  -0.070   1.204  1.00  0.00     0.019 C 
HETATM   22  C18 UNL     1      -4.246  -0.747  -0.036  1.00  0.00     0.022 C 
HETATM   23  C22 UNL     1      -2.880  -0.310  -0.468  1.00  0.00    -0.030 C 
HETATM   24  C23 UNL     1      -2.261  -1.081  -1.322  1.00  0.00     0.020 C 
BRANCH  22  25
HETATM   25  C19 UNL     1      -5.188  -0.847  -1.162  1.00  0.00    -0.014 C 
HETATM   26  C20 UNL     1      -6.449  -1.597  -0.704  1.00  0.00     0.010 C 
HETATM   27  C21 UNL     1      -5.604   0.360  -1.895  1.00  0.00     0.010 C 
ENDBRANCH  22  25
ENDBRANCH  15  16
ENDBRANCH  13  15
ENDBRANCH  12  13
ENDBRANCH   9  10
ENDBRANCH   7   8
ENDBRANCH   3   5
TORSDOF 7
