REMARK  8 active torsions:
REMARK  status: ('A' for Active; 'I' for Inactive)
REMARK    1  A    between atoms: C2_2  and  O1_4 
REMARK    2  A    between atoms: C2_2  and  C4_6 
REMARK    3  A    between atoms: C4_6  and  C5_7 
REMARK    4  A    between atoms: C7_11  and  N2_12 
REMARK    5  A    between atoms: N2_12  and  C8_14 
REMARK    6  A    between atoms: C8_14  and  C9_15 
REMARK    7  A    between atoms: C9_15  and  N3_16 
REMARK    8  A    between atoms: C15_22  and  C16_23 
ROOT
HETATM    1  C5  UNL     1      -3.105   0.324   0.374  1.00  0.00     0.028 A 
HETATM    2  C6  UNL     1      -2.050   1.176   0.127  1.00  0.00     0.114 A 
HETATM    3  N1  UNL     1      -0.817   0.657   0.144  1.00  0.00    -0.349 N 
ATOM      4  H1  UNL     1      -0.018   1.266  -0.036  1.00  0.00     0.167 HD
HETATM    5  C7  UNL     1      -0.601  -0.670   0.397  1.00  0.00     0.130 A 
HETATM    6  C15 UNL     1      -1.635  -1.530   0.645  1.00  0.00     0.103 A 
HETATM    7  N5  UNL     1      -2.888  -0.982   0.623  1.00  0.00    -0.353 N 
ATOM      8  H5  UNL     1      -3.690  -1.586   0.802  1.00  0.00     0.166 HD
ENDROOT
BRANCH   5   9
HETATM    9  N2  UNL     1       0.606  -1.110   0.398  1.00  0.00    -0.373 N 
ATOM     10  H2  UNL     1       0.796  -2.095   0.585  1.00  0.00     0.161 HD
BRANCH   9  11
HETATM   11  C8  UNL     1       1.690  -0.197   0.132  1.00  0.00     0.151 C 
BRANCH  11  12
HETATM   12  C9  UNL     1       2.968  -1.002   0.197  1.00  0.00     0.292 C 
BRANCH  12  13
HETATM   13  N3  UNL     1       4.144  -0.224  -0.050  1.00  0.00     0.090 N 
HETATM   14  C10 UNL     1       4.239   0.246  -1.417  1.00  0.00     0.272 C 
HETATM   15  C11 UNL     1       5.711   0.527  -1.673  1.00  0.00     0.030 C 
HETATM   16  C12 UNL     1       6.126   1.614  -0.720  1.00  0.00     0.003 C 
HETATM   17  C13 UNL     1       5.824   1.276   0.719  1.00  0.00     0.030 C 
HETATM   18  C14 UNL     1       4.372   0.829   0.902  1.00  0.00     0.272 C 
ENDBRANCH  12  13
ENDBRANCH  11  12
ENDBRANCH   9  11
ENDBRANCH   5   9
BRANCH   6  19
HETATM   19  C16 UNL     1      -1.486  -2.955   0.921  1.00  0.00     0.064 A 
HETATM   20  C17 UNL     1      -0.379  -3.711   0.993  1.00  0.00     0.052 A 
HETATM   21  C18 UNL     1      -0.696  -5.052   1.285  1.00  0.00     0.028 A 
HETATM   22 BR1  UNL     1       0.493  -6.514   1.495  1.00  0.00    -0.050 Br
HETATM   23  C19 UNL     1      -2.067  -5.054   1.383  1.00  0.00     0.107 A 
HETATM   24  N4  UNL     1      -2.523  -3.818   1.168  1.00  0.00    -0.363 N 
ATOM     25  H4  UNL     1      -3.508  -3.552   1.185  1.00  0.00     0.165 HD
ENDBRANCH   6  19
BRANCH   1  26
HETATM   26  C4  UNL     1      -4.521   0.727   0.378  1.00  0.00     0.095 C 
BRANCH  26  27
HETATM   27  C2  UNL     1      -4.831   2.116   0.009  1.00  0.00     0.056 C 
HETATM   28  C1  UNL     1      -6.368   2.254   0.122  1.00  0.00     0.045 C 
HETATM   29  C3  UNL     1      -4.575   2.343  -1.484  1.00  0.00     0.045 C 
BRANCH  27  30
HETATM   30  O1  UNL     1      -4.332   3.110   0.808  1.00  0.00    -0.390 OA
ATOM     31  H1  UNL     1      -3.388   3.025   0.739  1.00  0.00     0.210 HD
ENDBRANCH  27  30
ENDBRANCH  26  27
ENDBRANCH   1  26
TORSDOF 8
