REMARK  4 active torsions:
REMARK  status: ('A' for Active; 'I' for Inactive)
REMARK    1  A    between atoms: N1_2  and  N2_4 
REMARK    2  A    between atoms: N2_4  and  C2_6 
REMARK    3  A    between atoms: C4_12  and  N5_13 
REMARK    4  A    between atoms: N5_13  and  O1_14 
REMARK       I    between atoms: N5_13  and  C5_16 
REMARK       I    between atoms: C5_16  and  N6_17 
REMARK       I    between atoms: C5_16  and  N7_21 
ROOT
HETATM    1  C2  UNL     1       0.726   0.516  -0.678  1.00  0.00     0.162 A 
HETATM    2  N3  UNL     1       0.982   1.616  -1.440  1.00  0.00    -0.335 N 
ATOM      3  H3  UNL     1       1.751   1.713  -2.103  1.00  0.00     0.168 HD
HETATM    4  C3  UNL     1       0.058   2.550  -1.175  1.00  0.00     0.183 A 
HETATM    5  N4  UNL     1      -0.780   2.079  -0.257  1.00  0.00    -0.338 N 
ATOM      6  H4  UNL     1      -1.580   2.576   0.135  1.00  0.00     0.167 HD
HETATM    7  C4  UNL     1      -0.384   0.813   0.070  1.00  0.00     0.157 A 
ENDROOT
BRANCH   7   8
HETATM    8  N5  UNL     1      -1.112   0.056   1.021  1.00  0.00    -0.088 NA
HETATM    9  C5  UNL     1      -1.931  -0.950   0.405  1.00  0.00     0.485 C 
HETATM   10  N6  UNL     1      -2.856  -1.533   1.349  1.00  0.00    -0.035 N 
HETATM   11  N7  UNL     1      -2.678  -0.344  -0.668  1.00  0.00    -0.035 N 
ATOM     12  H63 UNL     1      -2.371  -1.898   2.169  1.00  0.00     0.278 HD
ATOM     13  H62 UNL     1      -3.423  -0.818   1.805  1.00  0.00     0.278 HD
ATOM     14  H61 UNL     1      -3.438  -2.248   0.911  1.00  0.00     0.278 HD
ATOM     15  H73 UNL     1      -3.218   0.464  -0.360  1.00  0.00     0.278 HD
ATOM     16  H72 UNL     1      -2.078   0.136  -1.339  1.00  0.00     0.278 HD
ATOM     17  H71 UNL     1      -3.260  -1.059  -1.106  1.00  0.00     0.278 HD
BRANCH   8  18
HETATM   18  O1  UNL     1      -0.301  -0.429   1.991  1.00  0.00    -0.303 OA
ATOM     19  H1  UNL     1      -0.789  -0.937   2.629  1.00  0.00     0.237 HD
ENDBRANCH   8  18
ENDBRANCH   7   8
BRANCH   1  20
HETATM   20  N2  UNL     1       1.455  -0.685  -0.631  1.00  0.00    -0.287 N 
ATOM     21  H2  UNL     1       0.917  -1.551  -0.617  1.00  0.00     0.188 HD
BRANCH  20  22
HETATM   22  N1  UNL     1       2.807  -0.802  -0.603  1.00  0.00    -0.339 N 
HETATM   23  C1  UNL     1       3.535  -0.115   0.401  1.00  0.00     0.167 C 
ATOM     24  H1  UNL     1       3.292  -1.375  -1.294  1.00  0.00     0.179 HD
ENDBRANCH  20  22
ENDBRANCH   1  20
TORSDOF 4
