REMARK  6 active torsions:
REMARK  status: ('A' for Active; 'I' for Inactive)
REMARK    1  A    between atoms: C2_2  and  C3_3 
REMARK    2  A    between atoms: C3_3  and  C4_4 
REMARK    3  A    between atoms: C4_4  and  C5_5 
REMARK    4  A    between atoms: C5_5  and  N1_6 
REMARK    5  A    between atoms: N1_6  and  C6_9 
REMARK    6  A    between atoms: C6_9  and  C7_10 
ROOT
HETATM    1  N1  UNL     1      -0.073   0.253  -0.908  1.00  0.00    -0.071 N 
ATOM      2  H11 UNL     1      -0.327  -0.539  -1.499  1.00  0.00     0.277 HD
ATOM      3  H12 UNL     1      -0.458   1.014  -1.468  1.00  0.00     0.277 HD
ENDROOT
BRANCH   1   4
HETATM    4  C5  UNL     1       1.353   0.372  -0.804  1.00  0.00     0.233 C 
BRANCH   4   5
HETATM    5  C4  UNL     1       1.986  -0.878  -0.275  1.00  0.00     0.031 C 
BRANCH   5   6
HETATM    6  C3  UNL     1       3.481  -0.808  -0.157  1.00  0.00     0.028 C 
BRANCH   6   7
HETATM    7  C2  UNL     1       3.966   0.266   0.739  1.00  0.00    -0.037 C 
HETATM    8  C1  UNL     1       4.761   1.247   0.304  1.00  0.00     0.007 C 
ENDBRANCH   6   7
ENDBRANCH   5   6
ENDBRANCH   4   5
ENDBRANCH   1   4
BRANCH   1   9
HETATM    9  C6  UNL     1      -0.736   0.171   0.361  1.00  0.00     0.270 C 
BRANCH   9  10
HETATM   10  C7  UNL     1      -2.192   0.062   0.274  1.00  0.00    -0.033 A 
HETATM   11  C8  UNL     1      -2.993   1.148   0.562  1.00  0.00     0.009 A 
HETATM   12  C9  UNL     1      -4.384   1.066   0.484  1.00  0.00     0.001 A 
HETATM   13  C10 UNL     1      -4.968  -0.133   0.109  1.00  0.00     0.000 A 
HETATM   14  C11 UNL     1      -4.185  -1.227  -0.183  1.00  0.00     0.001 A 
HETATM   15  C12 UNL     1      -2.814  -1.109  -0.095  1.00  0.00     0.009 A 
ENDBRANCH   9  10
ENDBRANCH   1   9
TORSDOF 6
