REMARK  17 active torsions:
REMARK  status: ('A' for Active; 'I' for Inactive)
REMARK    1  A    between atoms: C2_2  and  C3_3 
REMARK    2  A    between atoms: C3_3  and  C4_4 
REMARK    3  A    between atoms: C4_4  and  N1_5 
REMARK    4  A    between atoms: N1_5  and  C5_6 
REMARK    5  A    between atoms: N1_5  and  C8_9 
REMARK    6  A    between atoms: C5_6  and  C6_7 
REMARK    7  A    between atoms: C8_9  and  C9_10 
REMARK    8  A    between atoms: C9_10  and  N2_11 
REMARK    9  A    between atoms: N2_11  and  C10_12 
REMARK   10  A    between atoms: N2_11  and  C16_25 
REMARK   11  A    between atoms: C10_12  and  C11_13 
REMARK   12  A    between atoms: C11_13  and  N3_14 
REMARK       I    between atoms: N3_14  and  C12_16 
REMARK   13  A    between atoms: C12_16  and  C13_18 
REMARK   14  A    between atoms: C16_25  and  O2_26 
REMARK   15  A    between atoms: C16_25  and  C17_28 
REMARK   16  A    between atoms: C24_38  and  N7_39 
REMARK   17  A    between atoms: C25_44  and  N9_45 
ROOT
HETATM    1  N2  UNL     1      -0.120  -0.421  -0.707  1.00  0.00    -0.358 N 
ENDROOT
BRANCH   1   2
HETATM    2  C9  UNL     1      -1.439  -1.169  -0.864  1.00  0.00     0.155 C 
BRANCH   2   3
HETATM    3  C8  UNL     1      -2.203  -1.192   0.364  1.00  0.00     0.292 C 
BRANCH   3   4
HETATM    4  N1  UNL     1      -3.453  -1.896   0.464  1.00  0.00     0.090 N 
BRANCH   4   5
HETATM    5  C4  UNL     1      -3.965  -1.598   1.780  1.00  0.00     0.272 C 
BRANCH   5   6
HETATM    6  C3  UNL     1      -4.813  -2.531   2.499  1.00  0.00     0.030 C 
BRANCH   6   7
HETATM    7  C2  UNL     1      -6.154  -2.935   2.088  1.00  0.00    -0.003 C 
HETATM    8  C1  UNL     1      -7.164  -1.811   2.010  1.00  0.00     0.005 C 
ENDBRANCH   6   7
ENDBRANCH   5   6
ENDBRANCH   4   5
BRANCH   4   9
HETATM    9  C5  UNL     1      -4.370  -1.847  -0.574  1.00  0.00     0.272 C 
BRANCH   9  10
HETATM   10  C6  UNL     1      -3.996  -2.580  -1.860  1.00  0.00     0.026 C 
HETATM   11  C7  UNL     1      -3.741  -4.046  -1.578  1.00  0.00     0.007 C 
ENDBRANCH   9  10
ENDBRANCH   4   9
ENDBRANCH   3   4
ENDBRANCH   2   3
ENDBRANCH   1   2
BRANCH   1  12
HETATM   12  C10 UNL     1      -0.084   0.960  -1.026  1.00  0.00     0.144 C 
BRANCH  12  13
HETATM   13  C11 UNL     1      -0.290   1.923   0.100  1.00  0.00     0.143 C 
BRANCH  13  14
HETATM   14  N3  UNL     1      -0.176   3.277  -0.393  1.00  0.00    -0.353 N 
HETATM   15  C12 UNL     1      -1.000   3.878  -1.351  1.00  0.00     0.285 C 
HETATM   16  O1  UNL     1      -1.957   3.256  -1.875  1.00  0.00    -0.264 OA
ATOM     17  H3  UNL     1       0.576   3.848  -0.006  1.00  0.00     0.162 HD
BRANCH  15  18
HETATM   18  C13 UNL     1      -0.804   5.250  -1.799  1.00  0.00     0.174 A 
HETATM   19  N4  UNL     1      -1.541   5.938  -2.683  1.00  0.00    -0.346 N 
HETATM   20  C14 UNL     1      -1.026   7.173  -2.833  1.00  0.00     0.107 A 
ATOM     21  H4  UNL     1      -2.365   5.581  -3.167  1.00  0.00     0.167 HD
HETATM   22  C15 UNL     1       0.074   7.260  -2.011  1.00  0.00     0.107 A 
HETATM   23  N5  UNL     1       0.184   6.071  -1.394  1.00  0.00    -0.346 N 
ATOM     24  H5  UNL     1       0.909   5.827  -0.719  1.00  0.00     0.167 HD
ENDBRANCH  15  18
ENDBRANCH  13  14
ENDBRANCH  12  13
ENDBRANCH   1  12
BRANCH   1  25
HETATM   25  C16 UNL     1       0.927  -1.227  -0.289  1.00  0.00     0.148 C 
BRANCH  25  26
HETATM   26  O2  UNL     1       0.581  -2.515  -0.097  1.00  0.00    -0.346 OA
ATOM     27  H2  UNL     1       1.299  -3.068   0.190  1.00  0.00     0.219 HD
ENDBRANCH  25  26
BRANCH  25  28
HETATM   28  C17 UNL     1       2.318  -1.036  -0.001  1.00  0.00     0.017 A 
HETATM   29  C18 UNL     1       3.101  -2.119   0.456  1.00  0.00     0.017 A 
HETATM   30  C19 UNL     1       4.444  -1.983   0.727  1.00  0.00     0.016 A 
HETATM   31  C20 UNL     1       5.075  -0.777   0.560  1.00  0.00     0.016 A 
HETATM   32  C21 UNL     1       4.365   0.312   0.118  1.00  0.00     0.090 A 
HETATM   33  C26 UNL     1       6.382  -0.316   0.737  1.00  0.00     0.073 A 
HETATM   34  C22 UNL     1       2.994   0.152  -0.152  1.00  0.00     0.054 A 
HETATM   35  O3  UNL     1       5.151   1.352   0.028  1.00  0.00    -0.291 OA
HETATM   36  C23 UNL     1       6.380   1.030   0.390  1.00  0.00     0.178 A 
HETATM   37  N6  UNL     1       7.523   1.722   0.469  1.00  0.00    -0.169 N 
HETATM   38  C24 UNL     1       8.651   1.127   0.876  1.00  0.00     0.679 A 
ATOM     39  H6  UNL     1       7.535   2.710   0.217  1.00  0.00     0.186 HD
HETATM   40  N8  UNL     1       8.681  -0.157   1.215  1.00  0.00    -0.176 N 
HETATM   41  C25 UNL     1       7.541  -0.927   1.156  1.00  0.00     0.130 A 
ATOM     42  H8  UNL     1       9.558  -0.577   1.522  1.00  0.00     0.186 HD
BRANCH  38  43
HETATM   43  N7  UNL     1       9.758   1.826   0.944  1.00  0.00    -0.234 N 
ATOM     44  H72 UNL     1       9.735   2.812   0.684  1.00  0.00     0.174 HD
ATOM     45  H71 UNL     1      10.617   1.373   1.254  1.00  0.00     0.174 HD
ENDBRANCH  38  43
BRANCH  41  46
HETATM   46  N9  UNL     1       7.592  -2.125   1.473  1.00  0.00    -0.384 N 
ATOM     47  H92 UNL     1       8.451  -2.578   1.784  1.00  0.00     0.157 HD
ATOM     48  H91 UNL     1       6.748  -2.695   1.429  1.00  0.00     0.157 HD
ENDBRANCH  41  46
ENDBRANCH  25  28
ENDBRANCH   1  25
TORSDOF 17
