REMARK  13 active torsions:
REMARK  status: ('A' for Active; 'I' for Inactive)
REMARK    1  A    between atoms: C2_3  and  C3_4 
REMARK    2  A    between atoms: N3_9  and  C6_11 
REMARK    3  A    between atoms: C6_11  and  C7_12 
REMARK    4  A    between atoms: C7_12  and  C8_13 
REMARK    5  A    between atoms: C8_13  and  N4_14 
REMARK       I    between atoms: N4_14  and  C9_16 
REMARK    6  A    between atoms: C10_21  and  S1_22 
REMARK    7  A    between atoms: S1_22  and  C11_23 
REMARK    8  A    between atoms: C11_23  and  C12_24 
REMARK    9  A    between atoms: C12_24  and  N7_25 
REMARK   10  A    between atoms: C17_35  and  O1_36 
REMARK   11  A    between atoms: O1_36  and  C18_37 
REMARK   12  A    between atoms: C18_37  and  C19_38 
REMARK   13  A    between atoms: C19_38  and  C20_39 
ROOT
HETATM    1  C3  UNL     1      -1.567  -0.032   1.034  1.00  0.00     0.025 A 
HETATM    2  C4  UNL     1      -2.362   0.343   2.117  1.00  0.00     0.105 A 
HETATM    3  N2  UNL     1      -3.700   0.386   2.066  1.00  0.00    -0.351 N 
ATOM      4  H2  UNL     1      -4.215   0.669   2.900  1.00  0.00     0.166 HD
HETATM    5  C5  UNL     1      -4.389   0.070   0.957  1.00  0.00     0.118 A 
HETATM    6  N3  UNL     1      -5.698   0.094   0.939  1.00  0.00    -0.375 N 
ATOM      7  H3  UNL     1      -6.201  -0.150   0.086  1.00  0.00     0.161 HD
HETATM    8  C10 UNL     1      -3.654  -0.301  -0.130  1.00  0.00     0.045 A 
HETATM    9  C13 UNL     1      -2.248  -0.354  -0.098  1.00  0.00     0.039 A 
ENDROOT
BRANCH   1  10
HETATM   10  C2  UNL     1      -0.109  -0.028   1.199  1.00  0.00     0.120 A 
HETATM   11  N1  UNL     1       0.879  -0.418   0.393  1.00  0.00    -0.335 N 
HETATM   12  C1  UNL     1       0.775  -0.976  -0.919  1.00  0.00     0.158 C 
HETATM   13  C26 UNL     1       2.085  -0.220   1.018  1.00  0.00     0.065 A 
HETATM   14  C14 UNL     1       1.828   0.311   2.256  1.00  0.00     0.061 A 
HETATM   15  C25 UNL     1       3.382  -0.449   0.630  1.00  0.00     0.068 A 
HETATM   16  N8  UNL     1       0.512   0.416   2.341  1.00  0.00    -0.340 N 
HETATM   17  C15 UNL     1       2.896   0.611   3.102  1.00  0.00     0.035 A 
ATOM     18  H8  UNL     1       0.019   0.782   3.155  1.00  0.00     0.167 HD
HETATM   19  C16 UNL     1       4.203   0.392   2.740  1.00  0.00     0.039 A 
HETATM   20  C17 UNL     1       4.444  -0.143   1.491  1.00  0.00     0.071 A 
BRANCH  20  21
HETATM   21  O1  UNL     1       5.729  -0.390   1.058  1.00  0.00    -0.351 OA
BRANCH  21  22
HETATM   22  C18 UNL     1       6.891  -0.141   1.795  1.00  0.00     0.176 C 
BRANCH  22  23
HETATM   23  C19 UNL     1       8.145  -0.516   1.051  1.00  0.00     0.031 C 
BRANCH  23  24
HETATM   24  C20 UNL     1       8.306   0.242  -0.245  1.00  0.00    -0.009 C 
HETATM   25  C21 UNL     1       9.614  -0.233  -0.891  1.00  0.00     0.032 C 
HETATM   26  C22 UNL     1       9.897   0.747  -2.010  1.00  0.00     0.232 C 
HETATM   27  N9  UNL     1       8.734   0.953  -2.847  1.00  0.00    -0.075 N 
HETATM   28  C23 UNL     1       7.737  -0.083  -2.646  1.00  0.00     0.232 C 
ATOM     29  H92 UNL     1       8.337   1.883  -2.710  1.00  0.00     0.277 HD
ATOM     30  H91 UNL     1       8.993   1.034  -3.830  1.00  0.00     0.277 HD
HETATM   31  C24 UNL     1       7.212  -0.086  -1.222  1.00  0.00     0.032 C 
ENDBRANCH  23  24
ENDBRANCH  22  23
ENDBRANCH  21  22
ENDBRANCH  20  21
ENDBRANCH   1  10
BRANCH   8  32
HETATM   32  S1  UNL     1      -4.428  -0.735  -1.666  1.00  0.00    -0.124 SA
BRANCH  32  33
HETATM   33  C11 UNL     1      -4.502   0.609  -2.831  1.00  0.00     0.106 C 
BRANCH  33  34
HETATM   34  C12 UNL     1      -5.363   1.761  -2.478  1.00  0.00     0.240 C 
BRANCH  34  35
HETATM   35  N7  UNL     1      -6.753   1.399  -2.321  1.00  0.00    -0.079 N 
ATOM     36  H73 UNL     1      -7.102   0.925  -3.154  1.00  0.00     0.274 HD
ATOM     37  H72 UNL     1      -6.859   0.644  -1.643  1.00  0.00     0.274 HD
ATOM     38  H71 UNL     1      -7.346   2.192  -2.078  1.00  0.00     0.274 HD
ENDBRANCH  34  35
ENDBRANCH  33  34
ENDBRANCH  32  33
ENDBRANCH   8  32
BRANCH   6  39
HETATM   39  C6  UNL     1      -6.424   0.464   2.121  1.00  0.00     0.123 C 
BRANCH  39  40
HETATM   40  C7  UNL     1      -7.894   0.221   2.064  1.00  0.00     0.039 C 
BRANCH  40  41
HETATM   41  C8  UNL     1      -8.306  -1.195   1.892  1.00  0.00     0.123 C 
BRANCH  41  42
HETATM   42  N4  UNL     1      -7.885  -1.847   0.690  1.00  0.00    -0.365 N 
HETATM   43  C9  UNL     1      -8.420  -1.509  -0.598  1.00  0.00     0.181 C 
HETATM   44  N5  UNL     1      -8.004  -2.072  -1.671  1.00  0.00    -0.374 N 
HETATM   45  N6  UNL     1      -9.443  -0.529  -0.685  1.00  0.00    -0.064 NA
ATOM     46  H52 UNL     1      -7.269  -2.776  -1.608  1.00  0.00     0.158 HD
ATOM     47  H51 UNL     1      -8.384  -1.832  -2.586  1.00  0.00     0.158 HD
ATOM     48  H4  UNL     1      -7.178  -2.580   0.751  1.00  0.00     0.162 HD
ENDBRANCH  41  42
ENDBRANCH  40  41
ENDBRANCH  39  40
ENDBRANCH   6  39
TORSDOF 13
