REMARK  1 active torsions:
REMARK  status: ('A' for Active; 'I' for Inactive)
REMARK    1  A    between atoms: C4_9  and  O2_10 
ROOT
HETATM    1  N1  UNL     1      -2.120   1.244   0.124  1.00  0.00    -0.395 N 
ATOM      2  H11 UNL     1      -2.922   0.662  -0.115  1.00  0.00     0.156 HD
ATOM      3  H12 UNL     1      -2.385   2.224   0.223  1.00  0.00     0.156 HD
HETATM    4  C1  UNL     1      -0.953   0.797   0.276  1.00  0.00     0.073 C 
HETATM    5  S1  UNL     1       0.465   1.826   0.699  1.00  0.00    -0.088 SA
HETATM    6  C2  UNL     1       1.853   0.709   0.229  1.00  0.00     0.248 C 
HETATM    7  O1  UNL     1       1.476   0.107  -0.936  1.00  0.00    -0.378 OA
HETATM    8  C3  UNL     1       0.525  -0.855  -0.848  1.00  0.00     0.207 C 
HETATM    9  C4  UNL     1      -0.565  -0.635   0.131  1.00  0.00     0.198 C 
ENDROOT
BRANCH   9  10
HETATM   10  O2  UNL     1      -1.684  -1.359  -0.289  1.00  0.00    -0.387 OA
ATOM     11  H2  UNL     1      -1.437  -2.272  -0.381  1.00  0.00     0.210 HD
ENDBRANCH   9  10
TORSDOF 1
