REMARK  1 active torsions:
REMARK  status: ('A' for Active; 'I' for Inactive)
REMARK    1  A    between atoms: O1_1  and  C1_3 
ROOT
HETATM    1  C1  UNL     1      -0.784   0.061   0.912  1.00  0.00     0.183 C 
HETATM    2  C2  UNL     1      -1.841   0.457  -0.123  1.00  0.00     0.267 C 
HETATM    3  N1  UNL     1      -1.880  -0.766  -0.930  1.00  0.00    -0.070 N 
ATOM      4  H11 UNL     1      -2.378  -0.661  -1.814  1.00  0.00     0.277 HD
ATOM      5  H12 UNL     1      -2.478  -1.496  -0.544  1.00  0.00     0.277 HD
HETATM    6  C3  UNL     1      -0.496  -1.162  -1.081  1.00  0.00     0.276 C 
HETATM    7  C4  UNL     1       0.283  -0.518   0.019  1.00  0.00     0.149 C 
HETATM    8  C5  UNL     1       1.130   0.649  -0.478  1.00  0.00     0.075 C 
HETATM    9  C6  UNL     1       2.399   0.390   0.347  1.00  0.00     0.213 C 
HETATM   10  O2  UNL     1       2.374  -1.025   0.351  1.00  0.00    -0.240 OA
HETATM   11  O3  UNL     1       1.160  -1.347   0.665  1.00  0.00    -0.225 OA
ENDROOT
BRANCH   1  12
HETATM   12  O1  UNL     1      -0.383   1.200   1.581  1.00  0.00    -0.391 OA
ATOM     13  H1  UNL     1       0.273   0.954   2.223  1.00  0.00     0.210 HD
ENDBRANCH   1  12
TORSDOF 1
