REMARK  5 active torsions:
REMARK  status: ('A' for Active; 'I' for Inactive)
REMARK    1  A    between atoms: C2_4  and  C3_5 
REMARK    2  A    between atoms: C3_5  and  N2_6 
REMARK    3  A    between atoms: N2_6  and  C4_9 
REMARK    4  A    between atoms: C4_9  and  C5_10 
REMARK    5  A    between atoms: C5_10  and  C6_11 
ROOT
HETATM    1  N2  UNL     1       1.758   0.379  -0.860  1.00  0.00    -0.068 N 
ATOM      2  H21 UNL     1       2.302   0.715  -1.654  1.00  0.00     0.277 HD
ATOM      3  H22 UNL     1       1.867   1.174  -0.230  1.00  0.00     0.277 HD
ENDROOT
BRANCH   1   4
HETATM    4  C3  UNL     1       2.359  -0.805  -0.295  1.00  0.00     0.309 C 
BRANCH   4   5
HETATM    5  C2  UNL     1       3.783  -0.481   0.035  1.00  0.00     0.122 A 
HETATM    6  N1  UNL     1       4.868  -0.644  -0.739  1.00  0.00    -0.339 N 
HETATM    7  C1  UNL     1       5.932  -0.219  -0.038  1.00  0.00     0.198 A 
ATOM      8  H1  UNL     1       4.882  -1.022  -1.686  1.00  0.00     0.168 HD
HETATM    9  N5  UNL     1       5.532   0.213   1.173  1.00  0.00    -0.295 N 
HETATM   10  N4  UNL     1       4.222   0.043   1.193  1.00  0.00    -0.287 N 
ATOM     11  H5  UNL     1       6.117   0.592   1.918  1.00  0.00     0.187 HD
ATOM     12  H4  UNL     1       3.622   0.278   1.984  1.00  0.00     0.188 HD
ENDBRANCH   4   5
ENDBRANCH   1   4
BRANCH   1  13
HETATM   13  C4  UNL     1       0.381   0.207  -1.226  1.00  0.00     0.235 C 
BRANCH  13  14
HETATM   14  C5  UNL     1      -0.427   0.035   0.025  1.00  0.00     0.061 C 
BRANCH  14  15
HETATM   15  C6  UNL     1      -1.919  -0.154  -0.282  1.00  0.00     0.148 C 
HETATM   16  C7  UNL     1      -2.581  -0.311   1.083  1.00  0.00     0.264 C 
HETATM   17  N3  UNL     1      -3.989  -0.514   0.972  1.00  0.00    -0.071 N 
HETATM   18  C8  UNL     1      -4.490   0.102  -0.224  1.00  0.00     0.258 C 
ATOM     19  H32 UNL     1      -4.236  -1.502   1.022  1.00  0.00     0.277 HD
ATOM     20  H31 UNL     1      -4.486  -0.192   1.802  1.00  0.00     0.277 HD
HETATM   21  C9  UNL     1      -3.675   1.312  -0.609  1.00  0.00     0.195 C 
HETATM   22  O1  UNL     1      -2.393   0.939  -0.978  1.00  0.00    -0.383 OA
ENDBRANCH  14  15
ENDBRANCH  13  14
ENDBRANCH   1  13
TORSDOF 5
