REMARK  8 active torsions:
REMARK  status: ('A' for Active; 'I' for Inactive)
REMARK    1  A    between atoms: C5_5  and  C6_6 
REMARK    2  A    between atoms: C6_6  and  O1_7 
REMARK    3  A    between atoms: O1_7  and  C7_8 
REMARK    4  A    between atoms: C10_11  and  C11_12 
REMARK    5  A    between atoms: C21_22  and  O2_23 
REMARK    6  A    between atoms: C22_25  and  C23_26 
REMARK    7  A    between atoms: C23_26  and  O3_27 
REMARK    8  A    between atoms: C23_26  and  O4_29 
ROOT
HETATM    1  C7  UNL     1       1.636  -0.423   0.516  1.00  0.00     0.082 A 
HETATM    2  C8  UNL     1       1.163   0.827   0.227  1.00  0.00     0.038 A 
HETATM    3  C9  UNL     1      -0.188   1.020   0.067  1.00  0.00     0.013 A 
HETATM    4  C10 UNL     1      -1.127   0.037   0.176  1.00  0.00    -0.015 A 
HETATM    5  C21 UNL     1      -0.638  -1.258   0.476  1.00  0.00     0.086 A 
HETATM    6  C22 UNL     1       0.697  -1.496   0.644  1.00  0.00     0.063 A 
ENDROOT
BRANCH   4   7
HETATM    7  C11 UNL     1      -2.581   0.296   0.012  1.00  0.00    -0.009 C 
HETATM    8  C12 UNL     1      -3.377  -0.009   1.243  1.00  0.00     0.019 C 
HETATM    9  C13 UNL     1      -4.816   0.420   1.054  1.00  0.00    -0.013 C 
HETATM   10  C14 UNL     1      -5.377  -0.421  -0.068  1.00  0.00     0.009 C 
HETATM   11  C18 UNL     1      -4.911   1.901   0.780  1.00  0.00     0.009 C 
HETATM   12  C15 UNL     1      -4.604  -0.112  -1.310  1.00  0.00    -0.013 C 
HETATM   13  C16 UNL     1      -4.794   1.331  -1.645  1.00  0.00     0.009 C 
HETATM   14  C20 UNL     1      -3.134  -0.411  -1.213  1.00  0.00     0.019 C 
HETATM   15  C17 UNL     1      -4.206   2.153  -0.517  1.00  0.00    -0.013 C 
HETATM   16  C19 UNL     1      -2.737   1.777  -0.293  1.00  0.00     0.019 C 
ENDBRANCH   4   7
BRANCH   5  17
HETATM   17  O2  UNL     1      -1.542  -2.246   0.589  1.00  0.00    -0.359 OA
ATOM     18  H2  UNL     1      -1.214  -3.115   0.790  1.00  0.00     0.217 HD
ENDBRANCH   5  17
BRANCH   6  19
HETATM   19  C23 UNL     1       1.331  -2.778   0.956  1.00  0.00     0.296 C 
BRANCH  19  20
HETATM   20  O3  UNL     1       2.293  -2.584   1.987  1.00  0.00    -0.367 OA
ATOM     21  H3  UNL     1       2.704  -3.416   2.189  1.00  0.00     0.213 HD
ENDBRANCH  19  20
BRANCH  19  22
HETATM   22  O4  UNL     1       0.496  -3.761   1.400  1.00  0.00    -0.362 OA
HETATM   23  C24 UNL     1       0.738  -4.964   0.710  1.00  0.00     0.205 C 
ENDBRANCH  19  22
ENDBRANCH   6  19
BRANCH   1  24
HETATM   24  O1  UNL     1       2.958  -0.705   0.693  1.00  0.00    -0.350 OA
BRANCH  24  25
HETATM   25  C6  UNL     1       4.109  -0.013   0.649  1.00  0.00     0.185 C 
BRANCH  25  26
HETATM   26  C5  UNL     1       4.534   0.634  -0.637  1.00  0.00     0.042 A 
HETATM   27  C3  UNL     1       5.884   1.338  -0.453  1.00  0.00    -0.077 A 
HETATM   28  C2  UNL     1       7.154   1.304  -0.135  1.00  0.00    -0.028 C 
HETATM   29  C4  UNL     1       4.652   2.042  -0.902  1.00  0.00     0.045 A 
HETATM   30  C1  UNL     1       7.944   2.558  -0.204  1.00  0.00     0.036 C 
ENDBRANCH  25  26
ENDBRANCH  24  25
ENDBRANCH   1  24
TORSDOF 8
