REMARK  7 active torsions:
REMARK  status: ('A' for Active; 'I' for Inactive)
REMARK    1  A    between atoms: C3_3  and  C4_4 
REMARK    2  A    between atoms: C4_4  and  C5_5 
REMARK    3  A    between atoms: C5_5  and  C6_6 
REMARK    4  A    between atoms: C6_6  and  C7_7 
REMARK    5  A    between atoms: C7_7  and  C8_8 
REMARK    6  A    between atoms: C8_8  and  C9_9 
REMARK    7  A    between atoms: C9_9  and  N1_10 
ROOT
HETATM    1  C1  UNL     1      -4.468   1.042   3.870  1.00  0.00     0.112 C 
HETATM    2  C2  UNL     1      -3.455   0.744   2.845  1.00  0.00    -0.111 C 
HETATM    3  C3  UNL     1      -2.631   0.498   1.984  1.00  0.00    -0.104 C 
ENDROOT
BRANCH   3   4
HETATM    4  C4  UNL     1      -1.658   0.197   0.939  1.00  0.00     0.132 C 
BRANCH   4   5
HETATM    5  C5  UNL     1      -2.296  -0.229  -0.341  1.00  0.00     0.071 C 
HETATM    6  C17 UNL     1      -3.248  -1.376  -0.151  1.00  0.00     0.041 C 
HETATM    7  C18 UNL     1      -4.487  -0.941  -0.873  1.00  0.00     0.029 C 
HETATM    8  C19 UNL     1      -4.045   0.256  -1.652  1.00  0.00     0.169 C 
HETATM    9  O1  UNL     1      -3.072   0.826  -0.865  1.00  0.00    -0.379 OA
BRANCH   5  10
HETATM   10  C6  UNL     1      -1.259  -0.538  -1.399  1.00  0.00     0.039 C 
BRANCH  10  11
HETATM   11  C7  UNL     1      -0.401   0.661  -1.705  1.00  0.00     0.004 C 
BRANCH  11  12
HETATM   12  C8  UNL     1       0.648   0.423  -2.748  1.00  0.00     0.020 C 
BRANCH  12  13
HETATM   13  C9  UNL     1       1.623  -0.592  -2.346  1.00  0.00     0.124 C 
BRANCH  13  14
HETATM   14  N1  UNL     1       2.430  -0.370  -1.199  1.00  0.00    -0.367 N 
HETATM   15  C10 UNL     1       3.446   0.665  -1.096  1.00  0.00     0.161 C 
HETATM   16  C11 UNL     1       3.581   1.227   0.303  1.00  0.00     0.227 C 
HETATM   17  C12 UNL     1       4.891   0.870   0.895  1.00  0.00     0.003 C 
HETATM   18  N2  UNL     1       2.575   0.752   1.197  1.00  0.00    -0.055 N 
HETATM   19  C13 UNL     1       5.011  -0.259   1.555  1.00  0.00    -0.026 C 
HETATM   20  C14 UNL     1       3.895  -1.237   1.756  1.00  0.00     0.068 C 
HETATM   21  C15 UNL     1       2.566  -0.686   1.284  1.00  0.00     0.256 C 
HETATM   22  C16 UNL     1       2.295  -1.211  -0.076  1.00  0.00     0.104 C 
HETATM   23  N3  UNL     1       1.954  -2.451  -0.185  1.00  0.00    -0.387 N 
ATOM     24  H32 UNL     1       1.768  -2.812  -1.121  1.00  0.00     0.157 HD
ATOM     25  H31 UNL     1       1.856  -3.060   0.628  1.00  0.00     0.157 HD
ATOM     26  H22 UNL     1       2.668   1.178   2.119  1.00  0.00     0.279 HD
ATOM     27  H21 UNL     1       1.655   1.113   0.945  1.00  0.00     0.279 HD
ENDBRANCH  13  14
ENDBRANCH  12  13
ENDBRANCH  11  12
ENDBRANCH  10  11
ENDBRANCH   5  10
ENDBRANCH   4   5
ENDBRANCH   3   4
TORSDOF 7
