REMARK  3 active torsions:
REMARK  status: ('A' for Active; 'I' for Inactive)
REMARK    1  A    between atoms: C4_5  and  O1_6 
REMARK    2  A    between atoms: C5_8  and  C6_9 
REMARK       I    between atoms: C6_9  and  N1_11 
REMARK    3  A    between atoms: N1_11  and  C7_13 
ROOT
HETATM    1  C6  UNL     1       1.273   0.401  -0.199  1.00  0.00     0.255 C 
HETATM    2  O2  UNL     1       1.029   1.528  -0.725  1.00  0.00    -0.268 OA
HETATM    3  N1  UNL     1       0.172  -0.357   0.205  1.00  0.00    -0.352 N 
ATOM      4  H1  UNL     1       0.295  -1.274   0.635  1.00  0.00     0.163 HD
ENDROOT
BRANCH   1   5
HETATM    5  C5  UNL     1       2.651  -0.052  -0.039  1.00  0.00     0.078 A 
HETATM    6  C2  UNL     1       3.667   0.789  -0.479  1.00  0.00    -0.003 A 
HETATM    7  C1  UNL     1       3.590   2.130  -1.114  1.00  0.00     0.057 C 
HETATM    8  S1  UNL     1       5.089  -0.068  -0.128  1.00  0.00    -0.103 SA
HETATM    9  C3  UNL     1       4.409  -1.461   0.561  1.00  0.00     0.087 A 
HETATM   10  C4  UNL     1       3.057  -1.213   0.497  1.00  0.00     0.088 A 
BRANCH  10  11
HETATM   11  O1  UNL     1       2.208  -2.222   1.011  1.00  0.00    -0.359 OA
ATOM     12  H1  UNL     1       1.275  -2.051   0.967  1.00  0.00     0.217 HD
ENDBRANCH  10  11
ENDBRANCH   1   5
BRANCH   3  13
HETATM   13  C7  UNL     1      -1.185   0.212  -0.011  1.00  0.00     0.084 C 
HETATM   14  C8  UNL     1      -1.864  -0.724  -0.973  1.00  0.00     0.025 C 
HETATM   15  C9  UNL     1      -3.355  -0.652  -0.939  1.00  0.00     0.002 C 
HETATM   16  C10 UNL     1      -3.805   0.538  -0.133  1.00  0.00     0.000 C 
HETATM   17  C11 UNL     1      -3.331   0.333   1.285  1.00  0.00     0.002 C 
HETATM   18  C12 UNL     1      -1.828   0.258   1.340  1.00  0.00     0.025 C 
ENDBRANCH   3  13
TORSDOF 3
