REMARK  5 active torsions:
REMARK  status: ('A' for Active; 'I' for Inactive)
REMARK    1  A    between atoms: C2_2  and  O1_3 
REMARK    2  A    between atoms: C2_2  and  C9_10 
REMARK    3  A    between atoms: C2_2  and  C28_36 
REMARK    4  A    between atoms: O1_3  and  C3_4 
REMARK       I    between atoms: C9_10  and  N1_12 
REMARK    5  A    between atoms: N1_12  and  C10_14 
ROOT
HETATM    1  C10 UNL     1      -0.232  -0.874  -0.852  1.00  0.00     0.081 C 
HETATM    2  C11 UNL     1       0.239  -1.921  -1.512  1.00  0.00     0.113 C 
HETATM    3  C12 UNL     1      -0.863  -2.575  -2.243  1.00  0.00     0.288 C 
HETATM    4  O3  UNL     1      -0.819  -3.591  -2.967  1.00  0.00    -0.260 OA
HETATM    5  O4  UNL     1      -1.911  -1.820  -1.943  1.00  0.00    -0.273 OA
HETATM    6  C13 UNL     1      -1.691  -0.797  -0.985  1.00  0.00     0.225 C 
HETATM    7  O5  UNL     1      -2.219   0.324  -1.550  1.00  0.00    -0.342 OA
HETATM    8  C14 UNL     1      -3.564   0.355  -1.695  1.00  0.00     0.142 C 
HETATM    9  C15 UNL     1      -4.233  -0.932  -2.196  1.00  0.00     0.034 C 
HETATM   10  C16 UNL     1      -4.262  -2.046  -1.208  1.00  0.00     0.009 C 
HETATM   11  C17 UNL     1      -3.914  -1.404   0.133  1.00  0.00     0.005 C 
HETATM   12  C18 UNL     1      -4.875  -0.311   0.210  1.00  0.00     0.009 C 
HETATM   13  C19 UNL     1      -5.470   0.319   1.345  1.00  0.00     0.013 C 
HETATM   14  C20 UNL     1      -6.224   1.456   0.618  1.00  0.00     0.079 C 
HETATM   15  C21 UNL     1      -5.559   1.581  -0.739  1.00  0.00     0.138 C 
HETATM   16  O6  UNL     1      -5.985   2.097  -1.737  1.00  0.00    -0.297 OA
HETATM   17  C22 UNL     1      -4.243   0.891  -0.495  1.00  0.00     0.051 C 
HETATM   18  C23 UNL     1      -3.485   1.802   0.375  1.00  0.00     0.020 C 
HETATM   19  C24 UNL     1      -2.512   1.277   1.317  1.00  0.00     0.002 C 
HETATM   20  C25 UNL     1      -2.209  -0.145   1.383  1.00  0.00     0.015 C 
HETATM   21  C26 UNL     1      -2.451  -1.077   0.276  1.00  0.00     0.023 C 
HETATM   22  C27 UNL     1      -1.829  -2.404   0.789  1.00  0.00     0.022 C 
ENDROOT
BRANCH   1  23
HETATM   23  N1  UNL     1       0.662  -0.077  -0.086  1.00  0.00    -0.323 N 
HETATM   24  C9  UNL     1       2.004  -0.280   0.247  1.00  0.00     0.266 C 
HETATM   25  O2  UNL     1       2.562  -1.321  -0.155  1.00  0.00    -0.269 OA
ATOM     26  H1  UNL     1       0.257   0.785   0.281  1.00  0.00     0.169 HD
BRANCH  24  27
HETATM   27  C2  UNL     1       2.832   0.637   1.034  1.00  0.00     0.236 C 
HETATM   28  C1  UNL     1       2.756   2.055   0.433  1.00  0.00     0.066 C 
BRANCH  27  29
HETATM   29  O1  UNL     1       4.132   0.349   1.207  1.00  0.00    -0.357 OA
BRANCH  29  30
HETATM   30  C3  UNL     1       5.041   0.321   0.219  1.00  0.00     0.123 C 
HETATM   31  C4  UNL     1       5.863  -0.940   0.320  1.00  0.00     0.032 C 
HETATM   32  C5  UNL     1       7.058  -0.953  -0.614  1.00  0.00     0.002 C 
HETATM   33  C6  UNL     1       7.929   0.254  -0.340  1.00  0.00     0.000 C 
HETATM   34  C7  UNL     1       7.047   1.458  -0.680  1.00  0.00     0.002 C 
HETATM   35  C8  UNL     1       6.021   1.537   0.416  1.00  0.00     0.032 C 
ENDBRANCH  29  30
ENDBRANCH  27  29
BRANCH  27  36
HETATM   36  C28 UNL     1       2.299   0.852   2.471  1.00  0.00     0.427 C 
HETATM   37  F1  UNL     1       1.038   1.353   2.502  1.00  0.00    -0.167 F 
HETATM   38  F2  UNL     1       2.441  -0.313   3.201  1.00  0.00    -0.167 F 
HETATM   39  F3  UNL     1       3.137   1.786   3.061  1.00  0.00    -0.167 F 
ENDBRANCH  27  36
ENDBRANCH  24  27
ENDBRANCH   1  23
TORSDOF 5
