REMARK  6 active torsions:
REMARK  status: ('A' for Active; 'I' for Inactive)
REMARK    1  A    between atoms: C2_2  and  O2_4 
REMARK    2  A    between atoms: O2_4  and  C3_5 
REMARK    3  A    between atoms: C3_5  and  C4_6 
REMARK    4  A    between atoms: C12_17  and  C13_19 
REMARK    5  A    between atoms: C15_21  and  O6_22 
REMARK    6  A    between atoms: C21_31  and  C22_32 
ROOT
HETATM    1  C4  UNL     1       3.589  -0.502  -1.325  1.00  0.00     0.011 C 
HETATM    2  C5  UNL     1       2.509   0.095  -0.897  1.00  0.00    -0.006 C 
HETATM    3  C6  UNL     1       1.892   1.125  -1.847  1.00  0.00     0.194 C 
HETATM    4  O3  UNL     1       2.430   1.963  -2.540  1.00  0.00    -0.289 OA
HETATM    5  C7  UNL     1       0.424   0.803  -1.681  1.00  0.00     0.169 C 
HETATM    6  C8  UNL     1       0.257  -0.507  -2.374  1.00  0.00     0.053 C 
HETATM    7  C9  UNL     1      -1.129  -1.004  -2.196  1.00  0.00     0.048 C 
HETATM    8  C10 UNL     1      -1.992   0.194  -1.861  1.00  0.00     0.133 C 
HETATM    9  C11 UNL     1      -3.309  -0.114  -2.592  1.00  0.00     0.053 C 
HETATM   10  O4  UNL     1      -1.500   1.263  -2.591  1.00  0.00    -0.225 OA
HETATM   11  O5  UNL     1      -0.386   1.772  -2.245  1.00  0.00    -0.220 OA
HETATM   12  C12 UNL     1      -2.145   0.430  -0.393  1.00  0.00     0.187 C 
HETATM   13  F1  UNL     1      -2.519   1.825  -0.407  1.00  0.00    -0.235 F 
HETATM   14  C19 UNL     1      -0.915   0.479   0.428  1.00  0.00     0.207 C 
HETATM   15  F2  UNL     1      -0.677  -0.638   1.192  1.00  0.00    -0.226 F 
HETATM   16 BR1  UNL     1      -1.185   1.933   1.759  1.00  0.00    -0.044 Br
HETATM   17  C20 UNL     1       0.356   0.844  -0.225  1.00  0.00     0.095 C 
HETATM   18  C21 UNL     1       1.595   0.063   0.245  1.00  0.00     0.037 C 
ENDROOT
BRANCH  12  19
HETATM   19  C13 UNL     1      -3.370  -0.169   0.229  1.00  0.00     0.039 C 
HETATM   20  C14 UNL     1      -4.661   0.518  -0.141  1.00  0.00     0.040 C 
HETATM   21  C15 UNL     1      -5.393   0.768   1.163  1.00  0.00     0.119 C 
HETATM   22  C16 UNL     1      -4.882  -0.300   2.049  1.00  0.00     0.036 C 
HETATM   23  C17 UNL     1      -3.431  -0.580   1.614  1.00  0.00    -0.009 C 
HETATM   24  C18 UNL     1      -3.301  -2.107   1.845  1.00  0.00     0.010 C 
BRANCH  21  25
HETATM   25  O6  UNL     1      -6.758   0.639   0.895  1.00  0.00    -0.396 OA
ATOM     26  H6  UNL     1      -7.217   0.796   1.712  1.00  0.00     0.210 HD
ENDBRANCH  21  25
ENDBRANCH  12  19
BRANCH  18  27
HETATM   27  C22 UNL     1       2.051   0.556   1.567  1.00  0.00    -0.014 C 
HETATM   28  C23 UNL     1       2.555   1.951   1.638  1.00  0.00     0.010 C 
HETATM   29  C24 UNL     1       2.864  -0.413   2.336  1.00  0.00     0.010 C 
ENDBRANCH  18  27
BRANCH   1  30
HETATM   30  C3  UNL     1       4.442  -1.518  -0.711  1.00  0.00     0.207 C 
BRANCH  30  31
HETATM   31  O2  UNL     1       5.780  -1.193  -0.543  1.00  0.00    -0.318 OA
BRANCH  31  32
HETATM   32  C2  UNL     1       6.377  -0.141   0.004  1.00  0.00     0.255 C 
HETATM   33  C1  UNL     1       7.872   0.025   0.113  1.00  0.00     0.126 C 
HETATM   34  O1  UNL     1       5.716   0.803   0.475  1.00  0.00    -0.266 OA
ENDBRANCH  31  32
ENDBRANCH  30  31
ENDBRANCH   1  30
TORSDOF 6
