REMARK  3 active torsions:
REMARK  status: ('A' for Active; 'I' for Inactive)
REMARK    1  A    between atoms: C2_2  and  O1_4 
REMARK    2  A    between atoms: O1_4  and  N1_5 
REMARK    3  A    between atoms: N2_13  and  O2_15 
ROOT
HETATM    1  N1  UNL     1       1.203   1.096  -0.381  1.00  0.00    -0.267 N 
ATOM      2  H1  UNL     1       1.530   1.994  -0.738  1.00  0.00     0.194 HD
HETATM    3  C4  UNL     1      -0.007   0.969   0.045  1.00  0.00     0.085 C 
HETATM    4  C5  UNL     1      -0.638  -0.262   0.592  1.00  0.00     0.078 C 
HETATM    5  C6  UNL     1      -2.106  -0.083   0.370  1.00  0.00     0.006 C 
HETATM    6  C7  UNL     1      -2.428  -0.371  -1.090  1.00  0.00     0.022 C 
HETATM    7  C8  UNL     1      -2.950  -0.929   1.266  1.00  0.00     0.022 C 
HETATM    8  C9  UNL     1      -2.297   1.374   0.584  1.00  0.00     0.092 C 
HETATM    9  N2  UNL     1      -3.298   2.020   1.079  1.00  0.00    -0.269 N 
ATOM     10  H2  UNL     1      -3.277   3.036   1.161  1.00  0.00     0.194 HD
HETATM   11  C10 UNL     1      -1.046   1.991   0.094  1.00  0.00     0.221 C 
HETATM   12  O3  UNL     1      -0.939   3.207  -0.220  1.00  0.00    -0.284 OA
ENDROOT
BRANCH   1  13
HETATM   13  O1  UNL     1       2.036   0.031  -0.351  1.00  0.00    -0.276 OA
BRANCH  13  14
HETATM   14  C2  UNL     1       3.377   0.013  -0.712  1.00  0.00     0.144 C 
HETATM   15  C1  UNL     1       3.567  -0.898  -1.908  1.00  0.00     0.042 C 
HETATM   16  C3  UNL     1       4.297  -0.457   0.403  1.00  0.00     0.042 C 
ENDBRANCH  13  14
ENDBRANCH   1  13
BRANCH   9  17
HETATM   17  O2  UNL     1      -4.395   1.299   1.493  1.00  0.00    -0.290 OA
ATOM     18  H2  UNL     1      -5.132   1.775   1.858  1.00  0.00     0.244 HD
ENDBRANCH   9  17
TORSDOF 3
