REMARK  6 active torsions:
REMARK  status: ('A' for Active; 'I' for Inactive)
REMARK    1  A    between atoms: C2_2  and  S1_3 
REMARK    2  A    between atoms: S1_3  and  C3_4 
REMARK    3  A    between atoms: C3_4  and  N1_6 
REMARK    4  A    between atoms: N1_6  and  C4_8 
REMARK    5  A    between atoms: C5_9  and  C6_10 
REMARK    6  A    between atoms: C6_10  and  O2_12 
ROOT
HETATM    1  C4  UNL     1      -0.926  -0.011   0.478  1.00  0.00     0.064 A 
HETATM    2  C5  UNL     1      -2.024   0.443  -0.210  1.00  0.00     0.107 A 
HETATM    3  S3  UNL     1      -3.295   0.322   0.920  1.00  0.00    -0.086 SA
HETATM    4  C8  UNL     1      -2.419  -0.299   2.237  1.00  0.00    -0.012 A 
HETATM    5  C9  UNL     1      -2.915  -0.661   3.617  1.00  0.00     0.057 C 
HETATM    6  C10 UNL     1      -1.145  -0.399   1.765  1.00  0.00    -0.021 A 
HETATM    7  C11 UNL     1      -0.033  -0.928   2.668  1.00  0.00     0.052 C 
ENDROOT
BRANCH   1   8
HETATM    8  N1  UNL     1       0.379  -0.053  -0.187  1.00  0.00    -0.340 N 
ATOM      9  H1  UNL     1       0.998   0.756  -0.139  1.00  0.00     0.167 HD
BRANCH   8  10
HETATM   10  C3  UNL     1       0.786  -1.204  -0.893  1.00  0.00     0.139 C 
HETATM   11  S2  UNL     1      -0.244  -2.495  -0.945  1.00  0.00    -0.053 SA
BRANCH  10  12
HETATM   12  S1  UNL     1       2.326  -1.365  -1.729  1.00  0.00    -0.101 SA
BRANCH  12  13
HETATM   13  C2  UNL     1       3.398   0.056  -1.618  1.00  0.00     0.077 C 
HETATM   14  C1  UNL     1       3.922   0.341  -0.241  1.00  0.00     0.016 C 
ENDBRANCH  12  13
ENDBRANCH  10  12
ENDBRANCH   8  10
ENDBRANCH   1   8
BRANCH   2  15
HETATM   15  C6  UNL     1      -2.071   0.923  -1.614  1.00  0.00     0.302 C 
HETATM   16  O1  UNL     1      -3.146   1.300  -2.084  1.00  0.00    -0.259 OA
BRANCH  15  17
HETATM   17  O2  UNL     1      -0.925   0.945  -2.374  1.00  0.00    -0.322 OA
HETATM   18  C7  UNL     1      -0.888   1.388  -3.720  1.00  0.00     0.213 C 
ENDBRANCH  15  17
ENDBRANCH   2  15
TORSDOF 6
