REMARK  4 active torsions:
REMARK  status: ('A' for Active; 'I' for Inactive)
REMARK    1  A    between atoms: C2_2  and  C4_10 
REMARK    2  A    between atoms: N1_3  and  O1_5 
REMARK    3  A    between atoms: O1_5  and  C3_6 
REMARK    4  A    between atoms: C5_12  and  C6_13 
ROOT
HETATM    1  C4  UNL     1       1.639  -0.438  -0.127  1.00  0.00     0.112 A 
HETATM    2  O2  UNL     1       0.604   0.167   0.454  1.00  0.00    -0.306 OA
HETATM    3  C5  UNL     1      -0.496  -0.107  -0.124  1.00  0.00     0.098 A 
HETATM    4  C11 UNL     1      -0.176  -0.964  -1.184  1.00  0.00     0.052 A 
HETATM    5  S1  UNL     1      -0.742  -1.850  -2.521  1.00  0.00    -0.098 SA
HETATM    6  C12 UNL     1       0.736  -2.493  -3.094  1.00  0.00     0.051 A 
HETATM    7  C13 UNL     1       1.646  -1.981  -2.203  1.00  0.00     0.023 A 
HETATM    8  C14 UNL     1       1.177  -1.196  -1.219  1.00  0.00     0.020 A 
ENDROOT
BRANCH   1   9
HETATM    9  C2  UNL     1       2.974  -0.282   0.385  1.00  0.00     0.063 C 
HETATM   10  C1  UNL     1       4.121  -1.004  -0.210  1.00  0.00     0.073 C 
HETATM   11  N1  UNL     1       3.236   0.444   1.436  1.00  0.00    -0.262 N 
ATOM     12  H1  UNL     1       2.502   0.977   1.903  1.00  0.00     0.194 HD
BRANCH  11  13
HETATM   13  O1  UNL     1       4.523   0.469   1.892  1.00  0.00    -0.234 OA
BRANCH  13  14
HETATM   14  C3  UNL     1       5.184   1.650   2.271  1.00  0.00     0.252 C 
HETATM   15  N2  UNL     1       4.459   2.231   3.267  1.00  0.00    -0.388 N 
ATOM     16  H22 UNL     1       3.592   1.862   3.658  1.00  0.00     0.157 HD
ATOM     17  H21 UNL     1       4.939   3.088   3.542  1.00  0.00     0.157 HD
ENDBRANCH  13  14
ENDBRANCH  11  13
ENDBRANCH   1   9
BRANCH   3  18
HETATM   18  C6  UNL     1      -1.885   0.280   0.132  1.00  0.00    -0.019 C 
HETATM   19  C7  UNL     1      -2.452   1.365  -0.708  1.00  0.00     0.040 C 
HETATM   20  C8  UNL     1      -3.609   2.031  -0.005  1.00  0.00     0.032 C 
HETATM   21  C9  UNL     1      -4.127   1.193   1.115  1.00  0.00     0.233 C 
HETATM   22  N3  UNL     1      -4.151  -0.217   0.841  1.00  0.00    -0.071 N 
HETATM   23  C10 UNL     1      -2.832  -0.780   0.544  1.00  0.00     0.269 C 
ATOM     24  H32 UNL     1      -4.596  -0.725   1.606  1.00  0.00     0.277 HD
ATOM     25  H31 UNL     1      -4.810  -0.427   0.091  1.00  0.00     0.277 HD
ENDBRANCH   3  18
TORSDOF 4
