REMARK  7 active torsions:
REMARK  status: ('A' for Active; 'I' for Inactive)
REMARK    1  A    between atoms: C2_2  and  N1_3 
REMARK    2  A    between atoms: C3_4  and  O1_5 
REMARK    3  A    between atoms: C5_9  and  N2_10 
REMARK    4  A    between atoms: N2_10  and  N3_12 
REMARK    5  A    between atoms: C6_14  and  C7_15 
REMARK    6  A    between atoms: C7_15  and  C8_16 
REMARK    7  A    between atoms: C7_15  and  C11_19 
ROOT
HETATM    1  N2  UNL     1       1.692  -0.502   0.285  1.00  0.00    -0.280 N 
ATOM      2  H2  UNL     1       1.951  -1.454   0.025  1.00  0.00     0.189 HD
ENDROOT
BRANCH   1   3
HETATM    3  C5  UNL     1       2.571   0.478   0.240  1.00  0.00     0.167 A 
HETATM    4  N1  UNL     1       3.850   0.405  -0.122  1.00  0.00    -0.307 N 
HETATM    5  C3  UNL     1       4.569   1.493  -0.103  1.00  0.00     0.150 A 
HETATM    6  C4  UNL     1       3.959   2.655   0.293  1.00  0.00     0.109 A 
HETATM    7  S1  UNL     1       2.370   2.126   0.621  1.00  0.00    -0.060 SA
BRANCH   4   8
HETATM    8  C2  UNL     1       4.414  -0.907  -0.535  1.00  0.00     0.129 C 
HETATM    9  C1  UNL     1       4.976  -1.637   0.654  1.00  0.00     0.027 C 
ENDBRANCH   4   8
BRANCH   5  10
HETATM   10  O1  UNL     1       5.949   1.548  -0.467  1.00  0.00    -0.346 OA
ATOM     11  H1  UNL     1       6.473   2.340  -0.453  1.00  0.00     0.219 HD
ENDBRANCH   5  10
ENDBRANCH   1   3
BRANCH   1  12
HETATM   12  N3  UNL     1       0.415  -0.200   0.693  1.00  0.00    -0.313 N 
HETATM   13  C6  UNL     1      -0.570  -0.242  -0.113  1.00  0.00     0.086 C 
ATOM     14  H3  UNL     1       0.252   0.064   1.665  1.00  0.00     0.185 HD
BRANCH  13  15
HETATM   15  C7  UNL     1      -1.963   0.095   0.359  1.00  0.00     0.036 C 
BRANCH  15  16
HETATM   16  C8  UNL     1      -2.445   1.209  -0.502  1.00  0.00    -0.013 C 
HETATM   17  C9  UNL     1      -1.464   2.373  -0.299  1.00  0.00     0.010 C 
HETATM   18  C10 UNL     1      -3.803   1.727  -0.198  1.00  0.00     0.010 C 
ENDBRANCH  15  16
BRANCH  15  19
HETATM   19  C11 UNL     1      -2.748  -1.166   0.310  1.00  0.00    -0.043 C 
HETATM   20  C12 UNL     1      -2.830  -1.766  -1.075  1.00  0.00     0.015 C 
HETATM   21  C13 UNL     1      -1.937  -2.189   1.130  1.00  0.00     0.015 C 
HETATM   22  C14 UNL     1      -4.089  -1.095   0.997  1.00  0.00     0.015 C 
ENDBRANCH  15  19
ENDBRANCH  13  15
ENDBRANCH   1  12
TORSDOF 7
