REMARK  4 active torsions:
REMARK  status: ('A' for Active; 'I' for Inactive)
REMARK    1  A    between atoms: C2_2  and  C3_3 
REMARK    2  A    between atoms: C3_3  and  N1_4 
REMARK    3  A    between atoms: N1_4  and  C4_6 
REMARK    4  A    between atoms: C6_13  and  C7_14 
ROOT
HETATM    1  C4  UNL     1       0.299   0.034   0.183  1.00  0.00     0.138 A 
HETATM    2  N2  UNL     1      -0.014  -1.036   0.954  1.00  0.00    -0.293 N 
ATOM      3  H2  UNL     1      -0.858  -1.156   1.514  1.00  0.00     0.172 HD
HETATM    4  C5  UNL     1       1.002  -1.908   0.839  1.00  0.00     0.326 A 
HETATM    5  O1  UNL     1       1.071  -3.032   1.416  1.00  0.00    -0.247 OA
HETATM    6  N3  UNL     1       1.933  -1.414   0.025  1.00  0.00    -0.301 N 
ATOM      7  H3  UNL     1       2.804  -1.881  -0.227  1.00  0.00     0.171 HD
HETATM    8  C6  UNL     1       1.537  -0.182  -0.420  1.00  0.00     0.146 A 
ENDROOT
BRANCH   1   9
HETATM    9  N1  UNL     1      -0.486   1.180   0.045  1.00  0.00    -0.371 N 
ATOM     10  H1  UNL     1      -0.114   1.938  -0.527  1.00  0.00     0.161 HD
BRANCH   9  11
HETATM   11  C3  UNL     1      -1.762   1.374   0.639  1.00  0.00     0.148 C 
BRANCH  11  12
HETATM   12  C2  UNL     1      -2.873   0.590   0.068  1.00  0.00    -0.018 C 
HETATM   13  C1  UNL     1      -3.592  -0.237   0.786  1.00  0.00     0.008 C 
ENDBRANCH  11  12
ENDBRANCH   9  11
ENDBRANCH   1   9
BRANCH   8  14
HETATM   14  C7  UNL     1       2.300   0.661  -1.332  1.00  0.00     0.285 C 
HETATM   15  N4  UNL     1       3.560   0.194  -1.807  1.00  0.00    -0.056 NA
HETATM   16  O2  UNL     1       1.893   1.752  -1.699  1.00  0.00    -0.269 OA
ENDBRANCH   8  14
TORSDOF 4
