REMARK  4 active torsions:
REMARK  status: ('A' for Active; 'I' for Inactive)
REMARK       I    between atoms: C1_4  and  N3_6 
REMARK    1  A    between atoms: N3_6  and  C2_8 
REMARK    2  A    between atoms: C5_11  and  C6_12 
REMARK    3  A    between atoms: C6_12  and  N4_13 
REMARK    4  A    between atoms: N4_13  and  C7_16 
ROOT
HETATM    1  C2  UNL     1      -0.725  -0.364   0.391  1.00  0.00     0.089 C 
HETATM    2  C3  UNL     1      -1.150  -1.573   1.198  1.00  0.00     0.026 C 
HETATM    3  C4  UNL     1       0.346  -1.881   1.347  1.00  0.00     0.010 C 
HETATM    4  C5  UNL     1       0.541  -1.161   0.030  1.00  0.00     0.034 C 
ENDROOT
BRANCH   4   5
HETATM    5  C6  UNL     1       1.777  -0.281   0.034  1.00  0.00     0.241 C 
BRANCH   5   6
HETATM    6  N4  UNL     1       1.628   0.779  -0.919  1.00  0.00    -0.049 N 
ATOM      7  H42 UNL     1       1.440   0.429  -1.859  1.00  0.00     0.280 HD
ATOM      8  H41 UNL     1       0.763   1.302  -0.783  1.00  0.00     0.280 HD
BRANCH   6   9
HETATM    9  C7  UNL     1       2.796   1.633  -0.876  1.00  0.00     0.322 A 
HETATM   10  C8  UNL     1       4.123   1.119  -1.217  1.00  0.00     0.111 A 
HETATM   11  N5  UNL     1       3.775   1.269   0.103  1.00  0.00    -0.368 N 
ATOM     12  H5  UNL     1       4.032   1.182   1.086  1.00  0.00     0.161 HD
ENDBRANCH   6   9
ENDBRANCH   5   6
ENDBRANCH   4   5
BRANCH   1  13
HETATM   13  N3  UNL     1      -1.553  -0.018  -0.726  1.00  0.00    -0.360 N 
HETATM   14  C1  UNL     1      -2.901   0.322  -0.497  1.00  0.00     0.182 C 
HETATM   15  N1  UNL     1      -3.879  -0.498  -0.589  1.00  0.00    -0.374 N 
HETATM   16  N2  UNL     1      -3.207   1.677  -0.135  1.00  0.00    -0.064 NA
ATOM     17  H12 UNL     1      -4.855  -0.252  -0.423  1.00  0.00     0.158 HD
ATOM     18  H11 UNL     1      -3.662  -1.461  -0.846  1.00  0.00     0.158 HD
ATOM     19  H3  UNL     1      -1.172  -0.018  -1.672  1.00  0.00     0.162 HD
ENDBRANCH   1  13
TORSDOF 4
