REMARK  5 active torsions:
REMARK  status: ('A' for Active; 'I' for Inactive)
REMARK    1  A    between atoms: C2_2  and  N1_3 
REMARK       I    between atoms: N1_3  and  C3_4 
REMARK       I    between atoms: C3_4  and  N2_6 
REMARK    2  A    between atoms: N2_6  and  N3_8 
REMARK    3  A    between atoms: N3_8  and  C4_10 
REMARK    4  A    between atoms: C4_10  and  N4_12 
REMARK    5  A    between atoms: N4_12  and  O2_14 
ROOT
HETATM    1  N3  UNL     1      -0.700  -2.193   0.339  1.00  0.00    -0.270 N 
ATOM      2  H3  UNL     1      -0.537  -3.192   0.467  1.00  0.00     0.189 HD
ENDROOT
BRANCH   1   3
HETATM    3  N2  UNL     1       0.248  -1.256   0.755  1.00  0.00    -0.237 N 
HETATM    4  C3  UNL     1       1.370  -0.847  -0.088  1.00  0.00     0.411 C 
HETATM    5  N1  UNL     1       2.242   0.080   0.307  1.00  0.00    -0.368 NA
HETATM    6  O1  UNL     1       1.335  -1.511  -1.205  1.00  0.00    -0.228 OA
ATOM      7  H2  UNL     1       0.154  -0.841   1.682  1.00  0.00     0.193 HD
BRANCH   5   8
HETATM    8  C2  UNL     1       3.139   1.033   0.713  1.00  0.00     0.156 C 
HETATM    9  C1  UNL     1       3.132   2.246  -0.213  1.00  0.00     0.071 C 
ENDBRANCH   5   8
ENDBRANCH   1   3
BRANCH   1  10
HETATM   10  C4  UNL     1      -1.907  -1.720  -0.272  1.00  0.00     0.210 C 
HETATM   11  S1  UNL     1      -3.036  -2.749  -0.779  1.00  0.00    -0.037 SA
BRANCH  10  12
HETATM   12  N4  UNL     1      -2.095  -0.334  -0.431  1.00  0.00    -0.240 N 
ATOM     13  H4  UNL     1      -1.342   0.263  -0.088  1.00  0.00     0.197 HD
BRANCH  12  14
HETATM   14  O2  UNL     1      -3.135   0.292  -0.974  1.00  0.00    -0.283 OA
HETATM   15  C5  UNL     1      -4.301   0.266  -0.260  1.00  0.00     0.237 C 
ENDBRANCH  12  14
ENDBRANCH  10  12
ENDBRANCH   1  10
TORSDOF 5
