REMARK  4 active torsions:
REMARK  status: ('A' for Active; 'I' for Inactive)
REMARK    1  A    between atoms: N1_2  and  C2_5 
REMARK    2  A    between atoms: C2_5  and  C3_6 
REMARK    3  A    between atoms: C5_8  and  N2_9 
REMARK       I    between atoms: N2_9  and  C6_11 
REMARK    4  A    between atoms: C8_16  and  N4_17 
ROOT
HETATM    1  C3  UNL     1      -1.121   0.211  -0.032  1.00  0.00     0.055 A 
HETATM    2  C4  UNL     1       0.036  -0.304  -0.602  1.00  0.00     0.076 A 
HETATM    3  C5  UNL     1       1.261   0.305  -0.420  1.00  0.00     0.125 A 
HETATM    4  N3  UNL     1       1.268   1.417   0.336  1.00  0.00    -0.177 N 
ATOM      5  H3  UNL     1       2.152   1.899   0.497  1.00  0.00     0.185 HD
HETATM    6  C8  UNL     1       0.131   1.921   0.894  1.00  0.00     0.677 A 
HETATM    7  N5  UNL     1      -1.061   1.325   0.715  1.00  0.00    -0.194 N 
ATOM      8  H5  UNL     1      -1.904   1.712   1.139  1.00  0.00     0.184 HD
ENDROOT
BRANCH   1   9
HETATM    9  C2  UNL     1      -2.402  -0.469  -0.252  1.00  0.00     0.289 C 
BRANCH   9  10
HETATM   10  N1  UNL     1      -2.702  -1.475   0.746  1.00  0.00    -0.074 N 
HETATM   11  C1  UNL     1      -4.003  -2.048   0.377  1.00  0.00     0.267 C 
ATOM     12  H12 UNL     1      -2.673  -1.119   1.701  1.00  0.00     0.277 HD
ATOM     13  H11 UNL     1      -1.967  -2.174   0.850  1.00  0.00     0.277 HD
ENDBRANCH   9  10
ENDBRANCH   1   9
BRANCH   3  14
HETATM   14  N2  UNL     1       2.338  -0.178  -0.953  1.00  0.00    -0.313 N 
HETATM   15  C6  UNL     1       3.609   0.404  -0.798  1.00  0.00     0.219 C 
HETATM   16  C7  UNL     1       4.675  -0.333  -0.051  1.00  0.00     0.117 C 
HETATM   17  O1  UNL     1       3.890   1.553  -1.277  1.00  0.00    -0.274 OA
ATOM     18  H2  UNL     1       2.260  -1.026  -1.515  1.00  0.00     0.170 HD
ENDBRANCH   3  14
BRANCH   6  19
HETATM   19  N4  UNL     1       0.199   2.983   1.604  1.00  0.00    -0.234 N 
ATOM     20  H42 UNL     1       1.103   3.435   1.740  1.00  0.00     0.174 HD
ATOM     21  H41 UNL     1      -0.652   3.360   2.022  1.00  0.00     0.174 HD
ENDBRANCH   6  19
TORSDOF 4
