REMARK  2 active torsions:
REMARK  status: ('A' for Active; 'I' for Inactive)
REMARK    1  A    between atoms: C5_5  and  C6_6 
REMARK       I    between atoms: C6_6  and  N1_8 
REMARK    2  A    between atoms: N1_8  and  N2_10 
REMARK       I    between atoms: N2_10  and  C7_12 
ROOT
HETATM    1  C6  UNL     1       0.932   0.748  -0.200  1.00  0.00     0.270 C 
HETATM    2  O1  UNL     1       1.332   1.315  -1.272  1.00  0.00    -0.266 OA
HETATM    3  N1  UNL     1       1.886   0.403   0.754  1.00  0.00    -0.263 N 
ATOM      4  H1  UNL     1       1.563  -0.049   1.609  1.00  0.00     0.190 HD
ENDROOT
BRANCH   1   5
HETATM    5  C5  UNL     1      -0.482   0.478   0.003  1.00  0.00     0.033 A 
HETATM    6  C4  UNL     1      -0.968  -0.167   1.106  1.00  0.00     0.017 A 
HETATM    7  C3  UNL     1      -2.326  -0.413   1.277  1.00  0.00     0.007 A 
HETATM    8  C2  UNL     1      -3.205   0.002   0.313  1.00  0.00    -0.062 A 
HETATM    9  C1  UNL     1      -4.672  -0.248   0.468  1.00  0.00     0.048 C 
HETATM   10  C9  UNL     1      -2.742   0.655  -0.810  1.00  0.00     0.007 A 
HETATM   11  C8  UNL     1      -1.399   0.893  -0.968  1.00  0.00     0.017 A 
ENDBRANCH   1   5
BRANCH   3  12
HETATM   12  N2  UNL     1       3.259   0.636   0.617  1.00  0.00    -0.271 N 
HETATM   13  C7  UNL     1       3.881   0.135  -0.557  1.00  0.00     0.200 C 
HETATM   14  N3  UNL     1       3.644  -1.015  -1.083  1.00  0.00    -0.372 N 
HETATM   15  N4  UNL     1       4.833   0.983  -1.184  1.00  0.00    -0.062 NA
ATOM     16  H32 UNL     1       2.961  -1.624  -0.633  1.00  0.00     0.158 HD
ATOM     17  H31 UNL     1       4.091  -1.375  -1.926  1.00  0.00     0.158 HD
ATOM     18  H2  UNL     1       3.788   1.142   1.327  1.00  0.00     0.189 HD
ENDBRANCH   3  12
TORSDOF 2
