REMARK  4 active torsions:
REMARK  status: ('A' for Active; 'I' for Inactive)
REMARK    1  A    between atoms: N1_1  and  C1_4 
REMARK    2  A    between atoms: C5_13  and  C6_14 
REMARK    3  A    between atoms: C6_14  and  C7_15 
REMARK    4  A    between atoms: C7_15  and  N4_16 
ROOT
HETATM    1  C1  UNL     1      -3.102   0.700   0.135  1.00  0.00     0.115 A 
HETATM    2  N2  UNL     1      -3.906  -0.372   0.342  1.00  0.00    -0.294 N 
ATOM      3  H2  UNL     1      -4.919  -0.268   0.291  1.00  0.00     0.172 HD
HETATM    4  C2  UNL     1      -3.370  -1.564   0.612  1.00  0.00     0.326 A 
HETATM    5  O1  UNL     1      -4.163  -2.535   0.798  1.00  0.00    -0.247 OA
HETATM    6  N3  UNL     1      -2.032  -1.733   0.686  1.00  0.00    -0.308 N 
ATOM      7  H3  UNL     1      -1.661  -2.660   0.896  1.00  0.00     0.170 HD
HETATM    8  C3  UNL     1      -1.176  -0.718   0.492  1.00  0.00     0.050 A 
HETATM    9  C4  UNL     1       0.187  -0.884   0.565  1.00  0.00     0.037 A 
HETATM   10  C5  UNL     1       1.057   0.157   0.367  1.00  0.00    -0.054 A 
HETATM   11  C8  UNL     1       0.490   1.384   0.088  1.00  0.00     0.008 A 
HETATM   12  C9  UNL     1      -0.888   1.570   0.010  1.00  0.00     0.018 A 
HETATM   13  C10 UNL     1      -1.728   0.521   0.211  1.00  0.00     0.034 A 
ENDROOT
BRANCH  10  14
HETATM   14  C6  UNL     1       2.520   0.049   0.430  1.00  0.00     0.066 C 
BRANCH  14  15
HETATM   15  C7  UNL     1       3.157  -0.285  -0.895  1.00  0.00     0.234 C 
BRANCH  15  16
HETATM   16  N4  UNL     1       4.606  -0.353  -0.646  1.00  0.00    -0.079 N 
ATOM     17  H43 UNL     1       4.984   0.490  -0.215  1.00  0.00     0.274 HD
ATOM     18  H42 UNL     1       4.860  -0.999   0.101  1.00  0.00     0.274 HD
ATOM     19  H41 UNL     1       5.037  -0.579  -1.542  1.00  0.00     0.274 HD
ENDBRANCH  15  16
ENDBRANCH  14  15
ENDBRANCH  10  14
BRANCH   1  20
HETATM   20  N1  UNL     1      -3.651   1.811  -0.118  1.00  0.00    -0.385 N 
ATOM     21  H12 UNL     1      -4.661   1.943  -0.174  1.00  0.00     0.157 HD
ATOM     22  H11 UNL     1      -3.046   2.617  -0.274  1.00  0.00     0.157 HD
ENDBRANCH   1  20
TORSDOF 4
