REMARK  11 active torsions:
REMARK  status: ('A' for Active; 'I' for Inactive)
REMARK    1  A    between atoms: O1_1  and  C1_3 
REMARK    2  A    between atoms: C4_6  and  C5_7 
REMARK    3  A    between atoms: C5_7  and  N1_8 
REMARK    4  A    between atoms: N1_8  and  C6_10 
REMARK    5  A    between atoms: C6_10  and  C7_11 
REMARK    6  A    between atoms: C7_11  and  C8_12 
REMARK    7  A    between atoms: C8_12  and  C9_13 
REMARK    8  A    between atoms: C9_13  and  C10_14 
REMARK    9  A    between atoms: N2_15  and  C11_17 
REMARK   10  A    between atoms: C11_17  and  C12_18 
REMARK   11  A    between atoms: C21_27  and  C22_28 
ROOT
HETATM    1  N1  UNL     1      -0.877   0.219   1.085  1.00  0.00    -0.398 N 
ATOM      2  H1  UNL     1      -0.810   0.458   2.074  1.00  0.00     0.158 HD
ENDROOT
BRANCH   1   3
HETATM    3  C5  UNL     1      -1.925  -0.654   0.604  1.00  0.00     0.158 C 
BRANCH   3   4
HETATM    4  C4  UNL     1      -2.876  -0.016  -0.325  1.00  0.00    -0.023 A 
HETATM    5  C3  UNL     1      -2.452   0.446  -1.544  1.00  0.00     0.013 A 
HETATM    6  C2  UNL     1      -3.388   0.977  -2.432  1.00  0.00     0.038 A 
HETATM    7  C1  UNL     1      -4.687   1.023  -2.070  1.00  0.00     0.073 A 
HETATM    8  C19 UNL     1      -5.150   0.565  -0.835  1.00  0.00    -0.006 A 
HETATM    9  C18 UNL     1      -4.225   0.041   0.016  1.00  0.00     0.018 A 
HETATM   10  C20 UNL     1      -6.513   0.607  -0.314  1.00  0.00     0.058 C 
HETATM   11  S1  UNL     1      -5.090  -0.459   1.468  1.00  0.00    -0.123 SA
HETATM   12  C21 UNL     1      -6.732  -0.566   0.620  1.00  0.00     0.061 C 
BRANCH   7  13
HETATM   13  O1  UNL     1      -5.565   1.551  -2.999  1.00  0.00    -0.360 OA
ATOM     14  H1  UNL     1      -6.480   1.583  -2.744  1.00  0.00     0.217 HD
ENDBRANCH   7  13
BRANCH  12  15
HETATM   15  C22 UNL     1      -7.879  -0.446   1.545  1.00  0.00    -0.000 A 
HETATM   16  C23 UNL     1      -9.264  -0.566   0.875  1.00  0.00     0.006 A 
HETATM   17  C24 UNL     1      -8.831   0.703   1.460  1.00  0.00     0.006 A 
ENDBRANCH  12  15
ENDBRANCH   3   4
ENDBRANCH   1   3
BRANCH   1  18
HETATM   18  C6  UNL     1       0.047   0.730   0.157  1.00  0.00     0.056 C 
BRANCH  18  19
HETATM   19  C7  UNL     1       0.972  -0.186  -0.485  1.00  0.00     0.044 C 
BRANCH  19  20
HETATM   20  C8  UNL     1       2.165  -0.720   0.220  1.00  0.00     0.010 C 
BRANCH  20  21
HETATM   21  C9  UNL     1       3.127   0.509   0.376  1.00  0.00     0.044 C 
BRANCH  21  22
HETATM   22  C10 UNL     1       4.454   0.040  -0.066  1.00  0.00     0.056 C 
HETATM   23  N2  UNL     1       5.210  -0.943   0.484  1.00  0.00    -0.398 N 
ATOM     24  H2  UNL     1       5.165  -1.895   0.122  1.00  0.00     0.158 HD
BRANCH  23  25
HETATM   25  C11 UNL     1       6.091  -0.615   1.606  1.00  0.00     0.157 C 
BRANCH  25  26
HETATM   26  C12 UNL     1       7.435  -0.477   0.803  1.00  0.00    -0.041 A 
HETATM   27  C13 UNL     1       7.565  -1.224  -0.341  1.00  0.00     0.009 A 
HETATM   28  C14 UNL     1       8.632  -1.049  -1.223  1.00  0.00     0.001 A 
HETATM   29  C15 UNL     1       9.554  -0.104  -0.921  1.00  0.00     0.000 A 
HETATM   30  C16 UNL     1       9.413   0.648   0.241  1.00  0.00     0.001 A 
HETATM   31  C17 UNL     1       8.348   0.470   1.112  1.00  0.00     0.009 A 
ENDBRANCH  25  26
ENDBRANCH  23  25
ENDBRANCH  21  22
ENDBRANCH  20  21
ENDBRANCH  19  20
ENDBRANCH  18  19
ENDBRANCH   1  18
TORSDOF 11
