REMARK  11 active torsions:
REMARK  status: ('A' for Active; 'I' for Inactive)
REMARK    1  A    between atoms: C2_2  and  C3_3 
REMARK    2  A    between atoms: C3_3  and  S1_4 
REMARK    3  A    between atoms: S1_4  and  N1_7 
REMARK    4  A    between atoms: N2_9  and  C4_11 
REMARK       I    between atoms: N3_15  and  C7_17 
REMARK       I    between atoms: C7_17  and  N4_19 
REMARK    5  A    between atoms: N4_19  and  S2_21 
REMARK    6  A    between atoms: S2_21  and  C8_24 
REMARK    7  A    between atoms: N6_32  and  C13_33 
REMARK    8  A    between atoms: C13_33  and  C14_34 
REMARK    9  A    between atoms: C14_34  and  C15_35 
REMARK   10  A    between atoms: C15_35  and  C16_36 
REMARK   11  A    between atoms: C16_36  and  C17_37 
ROOT
HETATM    1  C4  UNL     1      -1.213  -0.566   1.452  1.00  0.00     0.142 A 
HETATM    2  C5  UNL     1      -0.110  -0.600   0.725  1.00  0.00     0.112 A 
HETATM    3 CL1  UNL     1       0.656  -2.118   0.294  1.00  0.00    -0.078 Cl
HETATM    4  C6  UNL     1       0.326   0.736   0.372  1.00  0.00     0.139 A 
HETATM    5  N3  UNL     1       1.324   1.108  -0.294  1.00  0.00    -0.292 N 
ATOM      6  H3  UNL     1       1.433   2.114  -0.418  1.00  0.00     0.172 HD
HETATM    7  C7  UNL     1       2.306   0.299  -0.887  1.00  0.00     0.335 C 
HETATM    8  O3  UNL     1       2.268   0.131  -2.155  1.00  0.00    -0.246 OA
HETATM    9  N4  UNL     1       3.346  -0.339  -0.160  1.00  0.00    -0.232 N 
ATOM     10  H4  UNL     1       3.388  -0.224   0.853  1.00  0.00     0.183 HD
HETATM   11  N6  UNL     1      -0.614   1.647   0.949  1.00  0.00    -0.297 N 
HETATM   12  C18 UNL     1      -1.577   0.847   1.625  1.00  0.00     0.279 A 
HETATM   13  O8  UNL     1      -2.555   1.320   2.249  1.00  0.00    -0.265 OA
ENDROOT
BRANCH  11  14
HETATM   14  C13 UNL     1      -0.614   3.107   0.882  1.00  0.00     0.134 C 
BRANCH  14  15
HETATM   15  C14 UNL     1      -1.383   3.590  -0.304  1.00  0.00     0.021 C 
BRANCH  15  16
HETATM   16  C15 UNL     1      -1.448   5.072  -0.451  1.00  0.00     0.012 C 
BRANCH  16  17
HETATM   17  C16 UNL     1      -0.060   5.636  -0.604  1.00  0.00     0.113 C 
BRANCH  17  18
HETATM   18  C17 UNL     1      -0.146   7.109  -0.752  1.00  0.00     0.172 C 
HETATM   19  O6  UNL     1      -1.270   7.655  -0.728  1.00  0.00    -0.648 OA
HETATM   20  O7  UNL     1       0.993   7.880  -0.913  1.00  0.00    -0.648 OA
ENDBRANCH  17  18
ENDBRANCH  16  17
ENDBRANCH  15  16
ENDBRANCH  14  15
ENDBRANCH  11  14
BRANCH   1  21
HETATM   21  N2  UNL     1      -1.942  -1.641   1.989  1.00  0.00    -0.285 N 
HETATM   22  N1  UNL     1      -2.896  -2.260   1.511  1.00  0.00    -0.226 N 
ATOM     23  H1  UNL     1      -3.274  -3.014   2.085  1.00  0.00     0.200 HD
ATOM     24  H2  UNL     1      -1.637  -1.956   2.910  1.00  0.00     0.188 HD
BRANCH  22  25
HETATM   25  S1  UNL     1      -3.657  -2.010   0.013  1.00  0.00     0.243 S 
HETATM   26  O1  UNL     1      -2.755  -2.498  -1.102  1.00  0.00    -0.204 OA
HETATM   27  O2  UNL     1      -3.923  -0.565  -0.190  1.00  0.00    -0.204 OA
BRANCH  25  28
HETATM   28  C3  UNL     1      -5.191  -2.925  -0.096  1.00  0.00     0.164 C 
BRANCH  28  29
HETATM   29  C2  UNL     1      -5.793  -2.638  -1.455  1.00  0.00     0.012 C 
HETATM   30  C1  UNL     1      -7.109  -3.383  -1.629  1.00  0.00     0.006 C 
ENDBRANCH  28  29
ENDBRANCH  25  28
ENDBRANCH  22  25
ENDBRANCH   1  21
BRANCH   9  31
HETATM   31  S2  UNL     1       4.533  -1.298  -0.941  1.00  0.00     0.270 S 
HETATM   32  O4  UNL     1       4.076  -1.513  -2.379  1.00  0.00    -0.200 OA
HETATM   33  O5  UNL     1       5.840  -0.544  -1.065  1.00  0.00    -0.200 OA
BRANCH  31  34
HETATM   34  C8  UNL     1       4.777  -2.853  -0.207  1.00  0.00     0.125 A 
HETATM   35  C9  UNL     1       4.210  -4.068  -0.519  1.00  0.00     0.074 A 
HETATM   36 CL2  UNL     1       3.064  -4.363  -1.813  1.00  0.00    -0.081 Cl
HETATM   37  C10 UNL     1       4.709  -5.027   0.363  1.00  0.00     0.113 A 
HETATM   38  N5  UNL     1       5.565  -4.404   1.195  1.00  0.00    -0.366 N 
HETATM   39  C11 UNL     1       5.626  -3.100   0.877  1.00  0.00     0.030 A 
ATOM     40  H5  UNL     1       6.086  -4.852   1.949  1.00  0.00     0.165 HD
HETATM   41  C12 UNL     1       6.439  -2.070   1.540  1.00  0.00     0.070 C 
ENDBRANCH  31  34
ENDBRANCH   9  31
TORSDOF 11
