REMARK  4 active torsions:
REMARK  status: ('A' for Active; 'I' for Inactive)
REMARK    1  A    between atoms: N1_2  and  C2_4 
REMARK    2  A    between atoms: C5_10  and  C6_11 
REMARK    3  A    between atoms: C6_11  and  N3_12 
REMARK    4  A    between atoms: C7_18  and  N5_19 
REMARK       I    between atoms: N5_19  and  C8_21 
REMARK       I    between atoms: C8_21  and  N6_22 
REMARK       I    between atoms: C8_21  and  N7_26 
ROOT
HETATM    1  C2  UNL     1      -0.352   1.603  -0.416  1.00  0.00     0.148 C 
HETATM    2  N2  UNL     1       0.728   2.176  -0.987  1.00  0.00    -0.307 N 
ATOM      3  H2  UNL     1       0.563   3.074  -1.442  1.00  0.00     0.170 HD
HETATM    4  C3  UNL     1       2.009   1.716  -1.037  1.00  0.00     0.248 C 
HETATM    5  O1  UNL     1       2.868   2.577  -1.294  1.00  0.00    -0.268 OA
HETATM    6  C4  UNL     1       2.453   0.402  -0.832  1.00  0.00     0.101 C 
HETATM    7  C5  UNL     1       1.753  -0.654  -0.298  1.00  0.00     0.041 C 
HETATM    8  N4  UNL     1       0.474  -0.655   0.145  1.00  0.00    -0.341 N 
ATOM      9  H4  UNL     1       0.204  -1.447   0.728  1.00  0.00     0.167 HD
HETATM   10  C7  UNL     1      -0.485   0.259  -0.088  1.00  0.00     0.149 C 
ENDROOT
BRANCH  10  11
HETATM   11  N5  UNL     1      -1.675  -0.161   0.002  1.00  0.00    -0.324 N 
HETATM   12  C8  UNL     1      -2.127  -1.482   0.320  1.00  0.00     0.481 C 
HETATM   13  N6  UNL     1      -3.494  -1.588  -0.217  1.00  0.00    -0.033 N 
HETATM   14  N7  UNL     1      -2.164  -1.610   1.768  1.00  0.00    -0.033 N 
ATOM     15  H63 UNL     1      -4.119  -0.854   0.116  1.00  0.00     0.278 HD
ATOM     16  H62 UNL     1      -3.558  -1.365  -1.210  1.00  0.00     0.278 HD
ATOM     17  H61 UNL     1      -3.816  -2.529   0.010  1.00  0.00     0.278 HD
ATOM     18  H73 UNL     1      -1.272  -1.383   2.207  1.00  0.00     0.278 HD
ATOM     19  H72 UNL     1      -2.725  -0.884   2.214  1.00  0.00     0.278 HD
ATOM     20  H71 UNL     1      -2.486  -2.551   1.995  1.00  0.00     0.278 HD
ATOM     21  H5  UNL     1      -2.405   0.529  -0.174  1.00  0.00     0.165 HD
ENDBRANCH  10  11
BRANCH   1  22
HETATM   22  N1  UNL     1      -1.348   2.379  -0.152  1.00  0.00    -0.378 N 
HETATM   23  C1  UNL     1      -1.284   3.772  -0.460  1.00  0.00     0.148 C 
ATOM     24  H1  UNL     1      -2.188   1.995   0.280  1.00  0.00     0.160 HD
ENDBRANCH   1  22
BRANCH   7  25
HETATM   25  C6  UNL     1       2.473  -1.939  -0.192  1.00  0.00     0.286 C 
BRANCH  25  26
HETATM   26  N3  UNL     1       3.166  -2.066   1.085  1.00  0.00    -0.074 N 
ATOM     27  H33 UNL     1       3.790  -1.276   1.250  1.00  0.00     0.274 HD
ATOM     28  H32 UNL     1       2.528  -1.932   1.869  1.00  0.00     0.274 HD
ATOM     29  H31 UNL     1       3.663  -2.954   1.158  1.00  0.00     0.274 HD
ENDBRANCH  25  26
ENDBRANCH   7  25
TORSDOF 4
