REMARK  2 active torsions:
REMARK  status: ('A' for Active; 'I' for Inactive)
REMARK       I    between atoms: C1_2  and  N2_4 
REMARK       I    between atoms: N2_4  and  C2_6 
REMARK    1  A    between atoms: N4_8  and  C3_10 
REMARK    2  A    between atoms: N5_11  and  O2_13 
ROOT
HETATM    1  N1  UNL     1      -3.633  -0.069   0.152  1.00  0.00    -0.040 NA
HETATM    2  C1  UNL     1      -2.287  -0.505   0.149  1.00  0.00     0.335 C 
HETATM    3  O1  UNL     1      -2.060  -1.729   0.331  1.00  0.00    -0.251 OA
HETATM    4  N2  UNL     1      -1.207   0.398  -0.051  1.00  0.00    -0.285 N 
ATOM      5  H2  UNL     1      -1.402   1.388  -0.198  1.00  0.00     0.172 HD
HETATM    6  C2  UNL     1       0.131  -0.054  -0.050  1.00  0.00     0.196 C 
HETATM    7  N3  UNL     1       0.501  -1.410   0.145  1.00  0.00    -0.063 NA
HETATM    8  N4  UNL     1       1.063   0.812  -0.236  1.00  0.00    -0.325 N 
ATOM      9  H4  UNL     1       0.790   1.785  -0.375  1.00  0.00     0.169 HD
ENDROOT
BRANCH   8  10
HETATM   10  C3  UNL     1       2.438   0.502  -0.260  1.00  0.00     0.206 C 
HETATM   11  N5  UNL     1       3.336   1.274   0.228  1.00  0.00    -0.265 N 
ATOM     12  H5  UNL     1       4.316   0.995   0.182  1.00  0.00     0.194 HD
BRANCH  11  13
HETATM   13  O2  UNL     1       3.001   2.474   0.814  1.00  0.00    -0.289 OA
ATOM     14  H2  UNL     1       3.667   3.047   1.176  1.00  0.00     0.244 HD
ENDBRANCH  11  13
ENDBRANCH   8  10
TORSDOF 2
