REMARK  4 active torsions:
REMARK  status: ('A' for Active; 'I' for Inactive)
REMARK       I    between atoms: C1_2  and  N1_3 
REMARK       I    between atoms: C1_2  and  N2_11 
REMARK    1  A    between atoms: N1_3  and  C2_5 
REMARK    2  A    between atoms: C11_15  and  C12_16 
REMARK    3  A    between atoms: C12_16  and  C13_17 
REMARK    4  A    between atoms: C13_17  and  N3_18 
ROOT
HETATM    1  O1  UNL     1       1.963   1.261   1.284  1.00  0.00    -0.247 OA
HETATM    2  C1  UNL     1       1.900   0.408   0.362  1.00  0.00     0.318 C 
HETATM    3  N1  UNL     1       3.101   0.029  -0.280  1.00  0.00    -0.338 N 
ATOM      4  H1  UNL     1       3.067  -0.661  -1.030  1.00  0.00     0.164 HD
HETATM    5  N2  UNL     1       0.631  -0.110   0.033  1.00  0.00    -0.334 N 
HETATM    6  C8  UNL     1       0.388  -1.099  -1.008  1.00  0.00     0.127 C 
HETATM    7  C9  UNL     1      -0.083  -2.343  -0.301  1.00  0.00     0.020 C 
HETATM    8  C10 UNL     1      -1.191  -2.149   0.659  1.00  0.00     0.008 C 
HETATM    9  C11 UNL     1      -1.322  -0.847   1.325  1.00  0.00     0.005 C 
HETATM   10  C18 UNL     1      -0.581   0.306   0.722  1.00  0.00     0.132 C 
ENDROOT
BRANCH   3  11
HETATM   11  C2  UNL     1       4.377   0.594   0.099  1.00  0.00     0.086 C 
HETATM   12  C3  UNL     1       5.254  -0.558   0.537  1.00  0.00     0.025 C 
HETATM   13  C4  UNL     1       6.695  -0.191   0.686  1.00  0.00     0.002 C 
HETATM   14  C5  UNL     1       7.173   0.851  -0.275  1.00  0.00     0.000 C 
HETATM   15  C6  UNL     1       6.293   0.759  -1.521  1.00  0.00     0.002 C 
HETATM   16  C7  UNL     1       4.936   1.294  -1.119  1.00  0.00     0.025 C 
ENDBRANCH   3  11
BRANCH   9  17
HETATM   17  C12 UNL     1      -2.770  -0.451   1.488  1.00  0.00     0.036 C 
BRANCH  17  18
HETATM   18  C13 UNL     1      -3.537  -0.322   0.220  1.00  0.00     0.273 C 
BRANCH  18  19
HETATM   19  N3  UNL     1      -4.909   0.054   0.452  1.00  0.00     0.092 N 
HETATM   20  C14 UNL     1      -5.054   1.395   0.961  1.00  0.00     0.298 C 
HETATM   21  C15 UNL     1      -6.548   1.699   1.112  1.00  0.00     0.198 C 
HETATM   22  O2  UNL     1      -7.054   1.711  -0.182  1.00  0.00    -0.388 OA
HETATM   23  C16 UNL     1      -7.057   0.438  -0.676  1.00  0.00     0.198 C 
HETATM   24  C17 UNL     1      -5.713  -0.232  -0.682  1.00  0.00     0.298 C 
ENDBRANCH  18  19
ENDBRANCH  17  18
ENDBRANCH   9  17
TORSDOF 4
