REMARK  5 active torsions:
REMARK  status: ('A' for Active; 'I' for Inactive)
REMARK    1  A    between atoms: C2_2  and  C5_5 
REMARK    2  A    between atoms: C5_5  and  C6_6 
REMARK       I    between atoms: C6_6  and  N1_8 
REMARK    3  A    between atoms: N1_8  and  C7_10 
REMARK    4  A    between atoms: C7_10  and  C8_11 
REMARK       I    between atoms: C8_11  and  N2_13 
REMARK    5  A    between atoms: C12_17  and  N3_18 
ROOT
HETATM    1  C8  UNL     1      -0.760  -0.041  -0.010  1.00  0.00     0.237 C 
HETATM    2  O2  UNL     1      -0.100  -1.102   0.067  1.00  0.00    -0.272 OA
HETATM    3  N2  UNL     1      -2.046   0.024   0.565  1.00  0.00    -0.351 N 
HETATM    4  C9  UNL     1      -2.790   1.254   0.455  1.00  0.00     0.126 C 
HETATM    5  C10 UNL     1      -3.820   1.176  -0.674  1.00  0.00     0.023 C 
HETATM    6  C11 UNL     1      -5.020   0.358  -0.245  1.00  0.00     0.052 C 
HETATM    7  C12 UNL     1      -4.610  -1.078   0.017  1.00  0.00     0.182 C 
HETATM    8 BR1  UNL     1      -3.535  -1.800  -1.396  1.00  0.00    -0.054 Br
HETATM    9  C13 UNL     1      -3.963  -1.178   1.371  1.00  0.00     0.070 C 
HETATM   10  C14 UNL     1      -2.472  -1.195   1.219  1.00  0.00     0.129 C 
ENDROOT
BRANCH   1  11
HETATM   11  C7  UNL     1      -0.183   1.121  -0.701  1.00  0.00     0.225 C 
BRANCH  11  12
HETATM   12  N1  UNL     1       1.141   0.908  -1.235  1.00  0.00    -0.352 N 
HETATM   13  C6  UNL     1       2.273   0.598  -0.445  1.00  0.00     0.218 C 
HETATM   14  O1  UNL     1       2.094   0.514   0.794  1.00  0.00    -0.274 OA
ATOM     15  H1  UNL     1       1.268   0.986  -2.244  1.00  0.00     0.162 HD
BRANCH  13  16
HETATM   16  C5  UNL     1       3.600   0.383  -1.036  1.00  0.00     0.111 C 
BRANCH  16  17
HETATM   17  C2  UNL     1       4.670   0.067  -0.055  1.00  0.00    -0.043 C 
HETATM   18  C1  UNL     1       4.395  -1.189   0.739  1.00  0.00     0.015 C 
HETATM   19  C3  UNL     1       5.002   1.189   0.884  1.00  0.00     0.015 C 
HETATM   20  C4  UNL     1       5.949  -0.214  -0.860  1.00  0.00     0.015 C 
ENDBRANCH  16  17
ENDBRANCH  13  16
ENDBRANCH  11  12
ENDBRANCH   1  11
BRANCH   7  21
HETATM   21  N3  UNL     1      -5.836  -1.886   0.082  1.00  0.00    -0.060 N 
ATOM     22  H33 UNL     1      -6.507  -1.534   0.764  1.00  0.00     0.276 HD
ATOM     23  H32 UNL     1      -6.422  -1.785  -0.747  1.00  0.00     0.276 HD
ATOM     24  H31 UNL     1      -5.560  -2.852   0.258  1.00  0.00     0.276 HD
ENDBRANCH   7  21
TORSDOF 5
