REMARK  9 active torsions:
REMARK  status: ('A' for Active; 'I' for Inactive)
REMARK       I    between atoms: N1_2  and  C2_4 
REMARK       I    between atoms: C2_4  and  N2_6 
REMARK    1  A    between atoms: N2_6  and  C3_8 
REMARK    2  A    between atoms: C3_8  and  C4_9 
REMARK    3  A    between atoms: C5_10  and  C6_11 
REMARK    4  A    between atoms: C6_11  and  O2_12 
REMARK    5  A    between atoms: C6_11  and  C7_14 
REMARK    6  A    between atoms: N3_17  and  C10_18 
REMARK    7  A    between atoms: C10_18  and  O3_19 
REMARK    8  A    between atoms: C10_18  and  N4_21 
REMARK    9  A    between atoms: C15_26  and  C16_27 
ROOT
HETATM    1  C7  UNL     1       1.074   1.298  -0.017  1.00  0.00     0.029 C 
HETATM    2  C8  UNL     1       0.579   0.114  -0.832  1.00  0.00     0.028 C 
HETATM    3  C9  UNL     1      -0.527   0.630  -1.722  1.00  0.00     0.127 C 
HETATM    4  N3  UNL     1      -1.684   0.855  -0.835  1.00  0.00    -0.347 N 
HETATM    5  C17 UNL     1      -1.396   1.621   0.336  1.00  0.00     0.127 C 
HETATM    6  C18 UNL     1      -0.025   2.296   0.137  1.00  0.00     0.028 C 
ENDROOT
BRANCH   1   7
HETATM    7  C6  UNL     1       1.518   0.839   1.373  1.00  0.00     0.201 C 
BRANCH   7   8
HETATM    8  C5  UNL     1       2.611  -0.150   1.246  1.00  0.00    -0.073 C 
HETATM    9  C4  UNL     1       3.489  -0.969   1.126  1.00  0.00    -0.084 C 
BRANCH   9  10
HETATM   10  C3  UNL     1       4.543  -1.968   0.955  1.00  0.00     0.219 C 
BRANCH  10  11
HETATM   11  N2  UNL     1       5.819  -1.350   0.708  1.00  0.00    -0.333 N 
HETATM   12  C2  UNL     1       6.961  -2.163   0.514  1.00  0.00     0.316 C 
HETATM   13  N1  UNL     1       8.208  -1.553   0.274  1.00  0.00    -0.347 N 
HETATM   14  O1  UNL     1       6.864  -3.431   0.555  1.00  0.00    -0.247 OA
HETATM   15  C1  UNL     1       9.378  -2.369   0.071  1.00  0.00     0.151 C 
ATOM     16  H1  UNL     1       8.282  -0.536   0.244  1.00  0.00     0.163 HD
ATOM     17  H2  UNL     1       5.900  -0.334   0.673  1.00  0.00     0.165 HD
ENDBRANCH  10  11
ENDBRANCH   9  10
ENDBRANCH   7   8
BRANCH   7  18
HETATM   18  O2  UNL     1       1.955   1.968   2.050  1.00  0.00    -0.383 OA
ATOM     19  H2  UNL     1       1.253   2.603   2.132  1.00  0.00     0.211 HD
ENDBRANCH   7  18
ENDBRANCH   1   7
BRANCH   4  20
HETATM   20  C10 UNL     1      -2.943   0.361  -1.146  1.00  0.00     0.218 C 
BRANCH  20  21
HETATM   21  O3  UNL     1      -2.995  -0.281  -2.276  1.00  0.00    -0.332 OA
ATOM     22  H3  UNL     1      -3.857  -0.619  -2.489  1.00  0.00     0.220 HD
ENDBRANCH  20  21
BRANCH  20  23
HETATM   23  N4  UNL     1      -4.168   0.458  -0.412  1.00  0.00    -0.331 N 
HETATM   24  C11 UNL     1      -5.425  -0.117  -0.920  1.00  0.00     0.084 C 
HETATM   25  C12 UNL     1      -5.196  -1.421  -1.660  1.00  0.00     0.032 C 
HETATM   26  C13 UNL     1      -6.307  -0.339   0.267  1.00  0.00     0.027 C 
HETATM   27  C14 UNL     1      -5.474   0.059   1.454  1.00  0.00     0.036 C 
HETATM   28  C15 UNL     1      -4.478   1.072   0.846  1.00  0.00     0.170 C 
BRANCH  28  29
HETATM   29  C16 UNL     1      -5.232   2.360   0.655  1.00  0.00     0.217 C 
HETATM   30  O4  UNL     1      -5.481   2.782  -0.458  1.00  0.00    -0.283 OA
HETATM   31 BR1  UNL     1      -5.832   3.390   2.144  1.00  0.00    -0.007 Br
ENDBRANCH  28  29
ENDBRANCH  20  23
ENDBRANCH   4  20
TORSDOF 9
