REMARK  3 active torsions:
REMARK  status: ('A' for Active; 'I' for Inactive)
REMARK       I    between atoms: N2_4  and  C3_5 
REMARK       I    between atoms: C3_5  and  N3_7 
REMARK    1  A    between atoms: N3_7  and  C4_9 
REMARK    2  A    between atoms: C9_15  and  C10_16 
REMARK       I    between atoms: C10_16  and  N4_18 
REMARK    3  A    between atoms: C13_21  and  N5_22 
ROOT
HETATM    1  C1  UNL     1      -3.114   0.171   3.836  1.00  0.00     0.033 C 
HETATM    2  C2  UNL     1      -3.143   0.863   2.509  1.00  0.00     0.129 C 
HETATM    3  N1  UNL     1      -3.207  -0.141   1.451  1.00  0.00    -0.127 NA
HETATM    4  N2  UNL     1      -2.589   0.280   0.303  1.00  0.00    -0.232 N 
HETATM    5  C3  UNL     1      -3.275   0.522  -0.903  1.00  0.00     0.335 C 
HETATM    6  O1  UNL     1      -2.639   0.913  -1.949  1.00  0.00    -0.246 OA
HETATM    7  N3  UNL     1      -4.675   0.369  -1.087  1.00  0.00    -0.337 N 
ATOM      8  H3  UNL     1      -5.249   0.062  -0.302  1.00  0.00     0.164 HD
HETATM    9  C9  UNL     1      -1.135   0.499   0.324  1.00  0.00     0.204 C 
HETATM   10  C22 UNL     1      -0.813   0.768   1.792  1.00  0.00     0.075 C 
HETATM   11  C23 UNL     1      -1.893   1.722   2.312  1.00  0.00     0.193 C 
HETATM   12  F1  UNL     1      -1.516   2.367   3.447  1.00  0.00    -0.248 F 
ENDROOT
BRANCH   9  13
HETATM   13  C10 UNL     1      -0.415  -0.712  -0.056  1.00  0.00     0.244 C 
HETATM   14  O3  UNL     1      -1.084  -1.812  -0.027  1.00  0.00    -0.271 OA
HETATM   15  N4  UNL     1       0.932  -0.712  -0.436  1.00  0.00    -0.350 N 
HETATM   16  C11 UNL     1       1.679   0.502  -0.526  1.00  0.00     0.128 C 
HETATM   17  C21 UNL     1       1.546  -2.011  -0.718  1.00  0.00     0.128 C 
HETATM   18  C12 UNL     1       2.926   0.276   0.348  1.00  0.00     0.053 C 
HETATM   19  C13 UNL     1       3.658  -0.889  -0.272  1.00  0.00     0.193 C 
HETATM   20  C20 UNL     1       2.880  -2.124   0.042  1.00  0.00     0.053 C 
BRANCH  19  21
HETATM   21  N5  UNL     1       5.054  -0.963   0.139  1.00  0.00    -0.067 N 
HETATM   22  C14 UNL     1       5.294  -2.405   0.389  1.00  0.00     0.273 C 
HETATM   23  C15 UNL     1       5.401  -0.261   1.296  1.00  0.00     0.237 C 
HETATM   24  C16 UNL     1       6.262   0.942   1.187  1.00  0.00     0.028 C 
HETATM   25  C17 UNL     1       7.162   0.995  -0.001  1.00  0.00     0.003 C 
HETATM   26  C18 UNL     1       6.241   0.734  -1.203  1.00  0.00     0.028 C 
HETATM   27  C19 UNL     1       5.837  -0.691  -1.049  1.00  0.00     0.237 C 
ENDBRANCH  19  21
ENDBRANCH   9  13
BRANCH   7  28
HETATM   28  C4  UNL     1      -5.317   0.643  -2.382  1.00  0.00     0.090 C 
HETATM   29  C5  UNL     1      -6.274   1.801  -2.283  1.00  0.00     0.051 C 
HETATM   30  C6  UNL     1      -7.584   1.281  -1.749  1.00  0.00     0.169 C 
HETATM   31  O2  UNL     1      -8.111   0.392  -2.693  1.00  0.00    -0.391 OA
HETATM   32  C7  UNL     1      -7.363  -0.789  -2.564  1.00  0.00     0.169 C 
HETATM   33  C8  UNL     1      -5.927  -0.595  -2.958  1.00  0.00     0.051 C 
ENDBRANCH   7  28
TORSDOF 3
