REMARK  5 active torsions:
REMARK  status: ('A' for Active; 'I' for Inactive)
REMARK    1  A    between atoms: N1_1  and  C1_4 
REMARK    2  A    between atoms: C3_8  and  C4_9 
REMARK    3  A    between atoms: C4_9  and  N3_10 
REMARK    4  A    between atoms: C5_12  and  C6_13 
REMARK    5  A    between atoms: C6_13  and  N4_14 
ROOT
HETATM    1  C1  UNL     1       3.634   0.502  -0.653  1.00  0.00     0.690 A 
HETATM    2  N2  UNL     1       2.968   1.070   0.363  1.00  0.00    -0.199 N 
ATOM      3  H2  UNL     1       3.431   1.769   0.944  1.00  0.00     0.183 HD
HETATM    4  C2  UNL     1       1.681   0.722   0.625  1.00  0.00     0.134 A 
HETATM    5  C3  UNL     1       1.026  -0.219  -0.142  1.00  0.00     0.059 A 
HETATM    6  N5  UNL     1       1.720  -0.771  -1.153  1.00  0.00    -0.288 N 
ATOM      7  H5  UNL     1       1.276  -1.472  -1.746  1.00  0.00     0.187 HD
HETATM    8  N6  UNL     1       2.979  -0.413  -1.389  1.00  0.00    -0.132 N 
ATOM      9  H6  UNL     1       3.471  -0.854  -2.166  1.00  0.00     0.205 HD
ENDROOT
BRANCH   5  10
HETATM   10  C4  UNL     1      -0.390  -0.631   0.113  1.00  0.00     0.178 C 
BRANCH  10  11
HETATM   11  N3  UNL     1      -0.951   0.059   1.219  1.00  0.00    -0.395 N 
HETATM   12  C5  UNL     1      -2.220   0.044   1.381  1.00  0.00     0.082 C 
ATOM     13  H3  UNL     1      -0.351   0.559   1.875  1.00  0.00     0.159 HD
BRANCH  12  14
HETATM   14  C6  UNL     1      -3.174  -0.653   0.482  1.00  0.00     0.273 C 
BRANCH  14  15
HETATM   15  N4  UNL     1      -3.855   0.251  -0.419  1.00  0.00    -0.075 N 
ATOM     16  H43 UNL     1      -4.318   1.000   0.095  1.00  0.00     0.274 HD
ATOM     17  H42 UNL     1      -3.187   0.806  -0.954  1.00  0.00     0.274 HD
ATOM     18  H41 UNL     1      -4.510  -0.228  -1.037  1.00  0.00     0.274 HD
ENDBRANCH  14  15
ENDBRANCH  12  14
ENDBRANCH  10  11
ENDBRANCH   5  10
BRANCH   1  19
HETATM   19  N1  UNL     1       4.868   0.800  -0.947  1.00  0.00    -0.233 N 
ATOM     20  H12 UNL     1       5.365   1.494  -0.389  1.00  0.00     0.174 HD
ATOM     21  H11 UNL     1       5.375   0.368  -1.720  1.00  0.00     0.174 HD
ENDBRANCH   1  19
TORSDOF 5
