REMARK  5 active torsions:
REMARK  status: ('A' for Active; 'I' for Inactive)
REMARK    1  A    between atoms: C2_8  and  C3_9 
REMARK    2  A    between atoms: C3_9  and  N4_10 
REMARK    3  A    between atoms: C5_15  and  C6_16 
REMARK    4  A    between atoms: C6_16  and  C7_17 
REMARK    5  A    between atoms: C7_17  and  N5_18 
ROOT
HETATM    1  N1  UNL     1       1.577  -2.399  -0.505  1.00  0.00    -0.388 N 
ATOM      2  H11 UNL     1       2.347  -2.319   0.159  1.00  0.00     0.157 HD
ATOM      3  H12 UNL     1       1.547  -3.108  -1.237  1.00  0.00     0.157 HD
HETATM    4  C1  UNL     1       0.614  -1.557  -0.413  1.00  0.00     0.090 C 
HETATM    5  N2  UNL     1      -0.458  -1.668  -1.337  1.00  0.00    -0.293 N 
ATOM      6  H2  UNL     1      -0.312  -2.074  -2.261  1.00  0.00     0.183 HD
HETATM    7  N3  UNL     1      -1.730  -1.203  -0.945  1.00  0.00    -0.133 NA
HETATM    8  C2  UNL     1      -1.453   0.127  -0.382  1.00  0.00     0.125 C 
HETATM    9  C4  UNL     1      -0.763  -0.037   0.909  1.00  0.00     0.037 C 
HETATM   10  C5  UNL     1       0.657  -0.527   0.650  1.00  0.00     0.057 C 
ENDROOT
BRANCH  10  11
HETATM   11  C6  UNL     1       1.475   0.687   0.296  1.00  0.00     0.039 C 
BRANCH  11  12
HETATM   12  C7  UNL     1       2.925   0.377   0.005  1.00  0.00     0.230 C 
BRANCH  12  13
HETATM   13  N5  UNL     1       3.672   1.578  -0.314  1.00  0.00    -0.079 N 
ATOM     14  H53 UNL     1       3.240   2.094  -1.081  1.00  0.00     0.274 HD
ATOM     15  H52 UNL     1       3.581   2.280   0.420  1.00  0.00     0.274 HD
ATOM     16  H51 UNL     1       4.651   1.369  -0.510  1.00  0.00     0.274 HD
ENDBRANCH  12  13
ENDBRANCH  11  12
ENDBRANCH  10  11
BRANCH   8  17
HETATM   17  C3  UNL     1      -2.700   0.963  -0.340  1.00  0.00     0.252 C 
BRANCH  17  18
HETATM   18  N4  UNL     1      -3.750   0.405   0.450  1.00  0.00    -0.078 N 
ATOM     19  H43 UNL     1      -3.965  -0.543   0.140  1.00  0.00     0.274 HD
ATOM     20  H42 UNL     1      -3.420   0.208   1.395  1.00  0.00     0.274 HD
ATOM     21  H41 UNL     1      -4.597   0.973   0.479  1.00  0.00     0.274 HD
ENDBRANCH  17  18
ENDBRANCH   8  17
TORSDOF 5
