REMARK  2 active torsions:
REMARK  status: ('A' for Active; 'I' for Inactive)
REMARK    1  A    between atoms: O1_1  and  C1_3 
REMARK    2  A    between atoms: C1_3  and  C2_4 
ROOT
HETATM    1  C2  UNL     1      -0.481  -0.506  -0.580  1.00  0.00     0.020 C 
HETATM    2  C3  UNL     1      -0.675   0.113   0.744  1.00  0.00    -0.006 C 
HETATM    3  C4  UNL     1      -2.116   0.559   0.847  1.00  0.00     0.031 C 
HETATM    4  C5  UNL     1      -2.218   1.554  -0.333  1.00  0.00     0.168 C 
HETATM    5  O2  UNL     1      -1.020   2.130  -0.651  1.00  0.00    -0.391 OA
HETATM    6  C6  UNL     1      -0.302   1.594  -1.684  1.00  0.00     0.173 C 
HETATM    7  C7  UNL     1       0.534   0.357  -1.258  1.00  0.00     0.020 C 
HETATM    8  C8  UNL     1       1.681   0.790  -0.459  1.00  0.00    -0.004 A 
HETATM    9  C9  UNL     1       2.864  -0.135  -0.284  1.00  0.00     0.010 A 
HETATM   10  C10 UNL     1       1.987   0.473   0.864  1.00  0.00    -0.010 A 
HETATM   11  C11 UNL     1       1.422  -0.540   1.725  1.00  0.00     0.005 C 
HETATM   12  C12 UNL     1      -0.091  -0.669   1.822  1.00  0.00     0.005 C 
ENDROOT
BRANCH   1  13
HETATM   13  C1  UNL     1      -0.260  -1.972  -0.660  1.00  0.00     0.169 C 
BRANCH  13  14
HETATM   14  O1  UNL     1      -1.388  -2.611  -0.117  1.00  0.00    -0.400 OA
ATOM     15  H1  UNL     1      -1.247  -3.549  -0.168  1.00  0.00     0.209 HD
ENDBRANCH  13  14
ENDBRANCH   1  13
TORSDOF 2
