REMARK  10 active torsions:
REMARK  status: ('A' for Active; 'I' for Inactive)
REMARK    1  A    between atoms: C2_2  and  O1_3 
REMARK    2  A    between atoms: C2_2  and  C7_27 
REMARK    3  A    between atoms: O1_3  and  N1_4 
REMARK    4  A    between atoms: N2_6  and  C3_8 
REMARK    5  A    between atoms: C5_18  and  N7_19 
REMARK       I    between atoms: C7_27  and  N10_29 
REMARK    6  A    between atoms: C9_33  and  O4_35 
REMARK    7  A    between atoms: C12_38  and  C13_39 
REMARK    8  A    between atoms: C13_39  and  O5_40 
REMARK    9  A    between atoms: C13_39  and  N11_42 
REMARK   10  A    between atoms: N11_42  and  N12_44 
ROOT
HETATM    1  O1  UNL     1       1.232   0.729   1.541  1.00  0.00    -0.250 OA
ENDROOT
BRANCH   1   2
HETATM    2  C2  UNL     1       0.232  -0.272   1.436  1.00  0.00     0.241 C 
HETATM    3  C1  UNL     1      -0.605  -0.357   2.682  1.00  0.00     0.052 C 
BRANCH   2   4
HETATM    4  C7  UNL     1      -0.690   0.107   0.307  1.00  0.00     0.254 C 
HETATM    5  O2  UNL     1      -0.501   1.154  -0.353  1.00  0.00    -0.270 OA
HETATM    6  N10 UNL     1      -1.779  -0.746   0.005  1.00  0.00    -0.308 N 
HETATM    7  C8  UNL     1      -2.887  -0.232  -0.365  1.00  0.00     0.132 C 
ATOM      8  H10 UNL     1      -1.679  -1.758   0.082  1.00  0.00     0.170 HD
HETATM    9  O3  UNL     1      -3.164   1.110  -0.512  1.00  0.00    -0.302 OA
HETATM   10  C12 UNL     1      -4.103  -1.012  -0.710  1.00  0.00     0.115 C 
HETATM   11  C9  UNL     1      -4.238   1.283  -1.405  1.00  0.00     0.166 C 
HETATM   12  C10 UNL     1      -5.048   2.504  -1.123  1.00  0.00     0.079 C 
HETATM   13  C11 UNL     1      -5.041   0.004  -1.252  1.00  0.00     0.085 C 
BRANCH  11  14
HETATM   14  O4  UNL     1      -3.739   1.287  -2.728  1.00  0.00    -0.365 OA
ATOM     15  H4  UNL     1      -4.464   1.404  -3.331  1.00  0.00     0.213 HD
ENDBRANCH  11  14
BRANCH  10  16
HETATM   16  C13 UNL     1      -4.545  -1.756   0.505  1.00  0.00     0.244 C 
BRANCH  16  17
HETATM   17  O5  UNL     1      -5.698  -2.503   0.267  1.00  0.00    -0.375 OA
ATOM     18  H5  UNL     1      -5.979  -2.977   1.041  1.00  0.00     0.212 HD
ENDBRANCH  16  17
BRANCH  16  19
HETATM   19  N11 UNL     1      -4.539  -1.001   1.703  1.00  0.00    -0.314 N 
ATOM     20  H11 UNL     1      -3.945  -1.271   2.487  1.00  0.00     0.182 HD
BRANCH  19  21
HETATM   21  N12 UNL     1      -5.346   0.097   1.784  1.00  0.00    -0.347 N 
ATOM     22 2H12 UNL     1      -5.934   0.354   0.991  1.00  0.00     0.176 HD
ATOM     23 1H12 UNL     1      -5.342   0.641   2.647  1.00  0.00     0.176 HD
ENDBRANCH  19  21
ENDBRANCH  16  19
ENDBRANCH  10  16
ENDBRANCH   2   4
ENDBRANCH   1   2
BRANCH   1  24
HETATM   24  N1  UNL     1       2.573   0.441   1.295  1.00  0.00    -0.192 N 
HETATM   25  N2  UNL     1       2.990   0.564   0.094  1.00  0.00    -0.111 N 
ATOM     26  H2  UNL     1       2.335   0.864  -0.628  1.00  0.00     0.207 HD
ATOM     27  H1  UNL     1       3.197   0.144   2.045  1.00  0.00     0.216 HD
BRANCH  25  28
HETATM   28  C3  UNL     1       4.336   0.296  -0.266  1.00  0.00     0.727 A 
HETATM   29  N3  UNL     1       4.577  -0.680  -1.162  1.00  0.00    -0.018 N 
HETATM   30  C4  UNL     1       5.825  -0.998  -1.558  1.00  0.00     0.727 A 
ATOM     31  H3  UNL     1       3.789  -1.195  -1.554  1.00  0.00     0.203 HD
HETATM   32  N4  UNL     1       6.005  -1.933  -2.413  1.00  0.00    -0.232 N 
HETATM   33  N5  UNL     1       6.883  -0.342  -1.065  1.00  0.00     0.105 N 
ATOM     34  H42 UNL     1       5.199  -2.433  -2.789  1.00  0.00     0.174 HD
ATOM     35  H41 UNL     1       6.950  -2.174  -2.713  1.00  0.00     0.174 HD
HETATM   36  N6  UNL     1       8.192  -0.450  -1.278  1.00  0.00    -0.096 N 
HETATM   37  C6  UNL     1       6.660   0.638  -0.167  1.00  0.00     0.748 A 
HETATM   38  C5  UNL     1       8.845   0.451  -0.528  1.00  0.00     0.706 A 
ATOM     39  H6  UNL     1       8.632  -1.116  -1.914  1.00  0.00     0.207 HD
HETATM   40  N8  UNL     1       7.876   1.116   0.154  1.00  0.00    -0.018 N 
ATOM     41  H8  UNL     1       8.047   1.872   0.817  1.00  0.00     0.203 HD
HETATM   42  N9  UNL     1       5.396   0.952   0.228  1.00  0.00    -0.017 N 
ATOM     43  H9  UNL     1       5.253   1.697   0.910  1.00  0.00     0.203 HD
BRANCH  38  44
HETATM   44  N7  UNL     1      10.130   0.665  -0.450  1.00  0.00    -0.233 N 
ATOM     45  H72 UNL     1      10.857   0.166  -0.962  1.00  0.00     0.174 HD
ATOM     46  H71 UNL     1      10.626   1.350   0.120  1.00  0.00     0.174 HD
ENDBRANCH  38  44
ENDBRANCH  25  28
ENDBRANCH   1  24
TORSDOF 10
