REMARK  4 active torsions:
REMARK  status: ('A' for Active; 'I' for Inactive)
REMARK    1  A    between atoms: C3_3  and  N1_4 
REMARK    2  A    between atoms: N1_4  and  C4_6 
REMARK    3  A    between atoms: C6_11  and  C7_12 
REMARK       I    between atoms: C7_12  and  N2_14 
REMARK    4  A    between atoms: N2_14  and  C8_16 
ROOT
HETATM    1  C1  UNL     1       1.499  -1.991  -0.038  1.00  0.00     0.015 C 
HETATM    2  C2  UNL     1       2.040  -0.828   0.738  1.00  0.00     0.053 C 
HETATM    3  C3  UNL     1       3.386  -0.450   0.099  1.00  0.00     0.188 C 
HETATM    4  C5  UNL     1       2.902   0.250  -1.113  1.00  0.00     0.283 C 
HETATM    5  O1  UNL     1       3.548   0.461  -2.159  1.00  0.00    -0.263 OA
HETATM    6  O2  UNL     1       1.591   0.651  -0.917  1.00  0.00    -0.304 OA
HETATM    7  C6  UNL     1       1.292   0.459   0.474  1.00  0.00     0.229 C 
ENDROOT
BRANCH   7   8
HETATM    8  C7  UNL     1      -0.160   0.336   0.695  1.00  0.00     0.248 C 
HETATM    9  O3  UNL     1      -0.678   0.162   1.824  1.00  0.00    -0.271 OA
HETATM   10  N2  UNL     1      -1.026   0.418  -0.425  1.00  0.00    -0.351 N 
ATOM     11  H2  UNL     1      -0.630   0.560  -1.354  1.00  0.00     0.163 HD
BRANCH  10  12
HETATM   12  C8  UNL     1      -2.468   0.304  -0.274  1.00  0.00     0.022 C 
HETATM   13  C9  UNL     1      -2.839  -1.030   0.329  1.00  0.00     0.037 C 
HETATM   14  C10 UNL     1      -3.091   0.359  -1.651  1.00  0.00     0.037 C 
HETATM   15  C11 UNL     1      -3.041   1.457   0.521  1.00  0.00     0.037 C 
ENDBRANCH  10  12
ENDBRANCH   7   8
BRANCH   3  16
HETATM   16  N1  UNL     1       4.018   0.522   0.954  1.00  0.00    -0.376 N 
ATOM     17  H1  UNL     1       4.127   0.322   1.948  1.00  0.00     0.160 HD
BRANCH  16  18
HETATM   18  C4  UNL     1       4.448   1.642   0.480  1.00  0.00     0.166 C 
HETATM   19  S1  UNL     1       5.515   2.639  -0.209  1.00  0.00    -0.075 SA
ENDBRANCH  16  18
ENDBRANCH   3  16
TORSDOF 4
