REMARK  7 active torsions:
REMARK  status: ('A' for Active; 'I' for Inactive)
REMARK    1  A    between atoms: N1_4  and  O1_6 
REMARK    2  A    between atoms: O1_6  and  C4_7 
REMARK    3  A    between atoms: C7_10  and  O2_11 
REMARK    4  A    between atoms: C7_10  and  C8_13 
REMARK    5  A    between atoms: C8_13  and  O4_15 
REMARK    6  A    between atoms: O4_15  and  C9_16 
REMARK    7  A    between atoms: C17_25  and  C18_26 
ROOT
HETATM    1  C4  UNL     1      -0.800   0.362   0.524  1.00  0.00     0.165 C 
HETATM    2  C5  UNL     1       0.633   0.217   1.024  1.00  0.00     0.026 C 
HETATM    3  C6  UNL     1       1.490   1.019   0.067  1.00  0.00     0.056 C 
HETATM    4  C7  UNL     1       2.959   0.923   0.394  1.00  0.00     0.149 C 
HETATM    5  C10 UNL     1       3.237  -0.375   1.072  1.00  0.00     0.026 C 
HETATM    6  C11 UNL     1       4.720  -0.656   1.009  1.00  0.00     0.014 C 
HETATM    7  C12 UNL     1       2.413  -1.480   0.496  1.00  0.00     0.013 C 
HETATM    8  C13 UNL     1       0.981  -1.280   0.890  1.00  0.00    -0.003 C 
HETATM    9  C14 UNL     1       0.052  -1.640  -0.190  1.00  0.00     0.001 C 
HETATM   10  C15 UNL     1      -0.353  -3.015  -0.432  1.00  0.00     0.006 C 
HETATM   11  C16 UNL     1      -1.730  -2.794  -1.084  1.00  0.00     0.006 C 
HETATM   12  C17 UNL     1      -2.205  -1.432  -0.629  1.00  0.00     0.001 C 
HETATM   13  C21 UNL     1      -1.244  -1.061   0.413  1.00  0.00    -0.007 C 
HETATM   14  C22 UNL     1      -1.518  -1.583   1.774  1.00  0.00     0.019 C 
ENDROOT
BRANCH   4  15
HETATM   15  O2  UNL     1       3.282   1.948   1.301  1.00  0.00    -0.379 OA
ATOM     16  H2  UNL     1       4.207   1.888   1.507  1.00  0.00     0.211 HD
ENDBRANCH   4  15
BRANCH   4  17
HETATM   17  C8  UNL     1       3.740   1.126  -0.853  1.00  0.00     0.301 C 
HETATM   18  O3  UNL     1       3.627   0.335  -1.825  1.00  0.00    -0.261 OA
BRANCH  17  19
HETATM   19  O4  UNL     1       4.627   2.184  -1.014  1.00  0.00    -0.250 OA
BRANCH  19  20
HETATM   20  C9  UNL     1       5.360   2.368  -2.193  1.00  0.00     0.406 C 
HETATM   21  O5  UNL     1       5.232   1.568  -3.150  1.00  0.00    -0.276 OA
ENDBRANCH  19  20
ENDBRANCH  17  19
ENDBRANCH   4  17
BRANCH   1  22
HETATM   22  O1  UNL     1      -0.895   1.006  -0.698  1.00  0.00    -0.274 OA
BRANCH  22  23
HETATM   23  N1  UNL     1      -1.617   2.055  -1.088  1.00  0.00    -0.275 N 
HETATM   24  C2  UNL     1      -1.988   3.104  -0.510  1.00  0.00     0.002 C 
HETATM   25  C1  UNL     1      -2.810   4.092  -1.269  1.00  0.00     0.065 C 
HETATM   26  C3  UNL     1      -1.652   3.418   0.894  1.00  0.00     0.065 C 
ATOM     27  H1  UNL     1      -1.933   1.992  -2.056  1.00  0.00     0.193 HD
ENDBRANCH  22  23
ENDBRANCH   1  22
BRANCH  12  28
HETATM   28  C18 UNL     1      -3.612  -1.389  -0.149  1.00  0.00    -0.010 A 
HETATM   29  C19 UNL     1      -4.658  -1.794  -1.123  1.00  0.00     0.005 A 
HETATM   30  C20 UNL     1      -4.461  -2.538   0.143  1.00  0.00     0.005 A 
ENDBRANCH  12  28
TORSDOF 7
