REMARK  7 active torsions:
REMARK  status: ('A' for Active; 'I' for Inactive)
REMARK    1  A    between atoms: C2_2  and  C3_3 
REMARK    2  A    between atoms: C3_3  and  C5_5 
REMARK    3  A    between atoms: C6_6  and  O1_7 
REMARK    4  A    between atoms: C14_16  and  C15_17 
REMARK    5  A    between atoms: C15_17  and  C16_18 
REMARK    6  A    between atoms: C18_20  and  O2_21 
REMARK    7  A    between atoms: C19_23  and  O3_24 
ROOT
HETATM    1  C5  UNL     1      -2.983  -0.584   0.566  1.00  0.00     0.023 C 
HETATM    2  C6  UNL     1      -4.132   0.195   1.167  1.00  0.00     0.123 C 
HETATM    3  C7  UNL     1      -4.203   1.354   0.157  1.00  0.00     0.041 C 
HETATM    4  C8  UNL     1      -2.767   1.757   0.097  1.00  0.00    -0.037 C 
HETATM    5  C9  UNL     1      -2.605   2.876   1.092  1.00  0.00     0.015 C 
HETATM    6  C10 UNL     1      -2.322   2.284  -1.240  1.00  0.00     0.010 C 
HETATM    7  C11 UNL     1      -0.876   2.741  -1.101  1.00  0.00     0.006 C 
HETATM    8  C12 UNL     1      -0.125   1.820  -0.197  1.00  0.00    -0.009 C 
HETATM    9  C13 UNL     1       1.317   1.614  -0.626  1.00  0.00     0.014 C 
HETATM   10  C14 UNL     1       1.317   0.142  -0.981  1.00  0.00     0.013 C 
HETATM   11  C23 UNL     1       0.393  -0.414   0.033  1.00  0.00    -0.006 C 
HETATM   12  C24 UNL     1       0.729  -0.208   1.471  1.00  0.00     0.011 C 
HETATM   13  C25 UNL     1      -0.800   0.431  -0.316  1.00  0.00    -0.001 C 
HETATM   14  C26 UNL     1      -1.985   0.482   0.481  1.00  0.00     0.005 C 
ENDROOT
BRANCH  10  15
HETATM   15  C15 UNL     1       2.574  -0.444  -1.344  1.00  0.00    -0.010 C 
BRANCH  15  16
HETATM   16  C16 UNL     1       3.724  -0.478  -0.476  1.00  0.00    -0.035 A 
HETATM   17  C17 UNL     1       4.639   0.564  -0.419  1.00  0.00     0.050 A 
HETATM   18  C18 UNL     1       5.756   0.547   0.389  1.00  0.00     0.101 A 
HETATM   19  C19 UNL     1       6.005  -0.536   1.186  1.00  0.00     0.123 A 
HETATM   20  C21 UNL     1       5.121  -1.589   1.157  1.00  0.00     0.070 A 
HETATM   21 CL1  UNL     1       5.409  -2.981   2.160  1.00  0.00    -0.081 Cl
HETATM   22  C22 UNL     1       4.024  -1.543   0.348  1.00  0.00     0.038 A 
BRANCH  18  23
HETATM   23  O2  UNL     1       6.648   1.625   0.408  1.00  0.00    -0.358 OA
ATOM     24  H2  UNL     1       7.418   1.613   0.965  1.00  0.00     0.217 HD
ENDBRANCH  18  23
BRANCH  19  25
HETATM   25  O3  UNL     1       7.145  -0.579   2.025  1.00  0.00    -0.351 OA
HETATM   26  C20 UNL     1       8.323  -1.128   1.480  1.00  0.00     0.210 C 
ENDBRANCH  19  25
ENDBRANCH  15  16
ENDBRANCH  10  15
BRANCH   1  27
HETATM   27  C3  UNL     1      -3.454  -1.376  -0.529  1.00  0.00    -0.012 C 
HETATM   28  C4  UNL     1      -2.485  -2.174  -1.353  1.00  0.00     0.010 C 
BRANCH  27  29
HETATM   29  C2  UNL     1      -4.482  -2.380  -0.044  1.00  0.00     0.000 C 
HETATM   30  C1  UNL     1      -5.195  -3.056  -1.198  1.00  0.00     0.005 C 
ENDBRANCH  27  29
ENDBRANCH   1  27
BRANCH   2  31
HETATM   31  O1  UNL     1      -3.763   0.797   2.373  1.00  0.00    -0.395 OA
ATOM     32  H1  UNL     1      -4.485   1.286   2.750  1.00  0.00     0.210 HD
ENDBRANCH   2  31
TORSDOF 7
