REMARK  9 active torsions:
REMARK  status: ('A' for Active; 'I' for Inactive)
REMARK    1  A    between atoms: C8_8  and  O1_9 
REMARK    2  A    between atoms: O1_9  and  C9_10 
REMARK    3  A    between atoms: C9_10  and  C10_11 
REMARK    4  A    between atoms: C10_11  and  C11_12 
REMARK    5  A    between atoms: C11_12  and  C12_13 
REMARK    6  A    between atoms: C12_13  and  C13_14 
REMARK    7  A    between atoms: C13_14  and  C14_15 
REMARK    8  A    between atoms: C14_15  and  C15_16 
REMARK    9  A    between atoms: C15_16  and  O2_18 
ROOT
HETATM    1  O1  UNL     1      -1.078   2.715   0.144  1.00  0.00    -0.385 OA
ENDROOT
BRANCH   1   2
HETATM    2  C8  UNL     1      -1.642   1.697  -0.578  1.00  0.00     0.126 C 
HETATM    3  C7  UNL     1      -2.779   2.228  -1.480  1.00  0.00     0.033 C 
HETATM    4  C6  UNL     1      -3.697   1.039  -1.669  1.00  0.00     0.016 C 
HETATM    5  C4  UNL     1      -3.138  -0.072  -0.812  1.00  0.00    -0.020 C 
HETATM    6  C3  UNL     1      -4.201  -0.816  -0.088  1.00  0.00    -0.015 C 
HETATM    7  C5  UNL     1      -2.225  -0.960  -1.575  1.00  0.00     0.020 C 
HETATM    8  C17 UNL     1      -2.432   0.745   0.268  1.00  0.00     0.027 C 
HETATM    9  C2  UNL     1      -3.917  -1.279   1.126  1.00  0.00    -0.087 C 
HETATM   10  C1  UNL     1      -4.976  -2.043   1.899  1.00  0.00     0.043 C 
HETATM   11  C19 UNL     1      -2.618  -1.114   1.819  1.00  0.00     0.034 C 
HETATM   12  C18 UNL     1      -1.669  -0.153   1.152  1.00  0.00     0.012 C 
ENDBRANCH   1   2
BRANCH   1  13
HETATM   13  C9  UNL     1       0.241   2.930  -0.131  1.00  0.00     0.168 C 
BRANCH  13  14
HETATM   14  C10 UNL     1       1.152   1.756   0.148  1.00  0.00     0.026 C 
BRANCH  14  15
HETATM   15  C11 UNL     1       2.550   2.187  -0.212  1.00  0.00     0.002 C 
BRANCH  15  16
HETATM   16  C12 UNL     1       3.582   1.095   0.034  1.00  0.00     0.000 C 
BRANCH  16  17
HETATM   17  C13 UNL     1       3.304  -0.133  -0.772  1.00  0.00     0.006 C 
BRANCH  17  18
HETATM   18  C14 UNL     1       4.286  -1.232  -0.643  1.00  0.00     0.073 C 
BRANCH  18  19
HETATM   19  C15 UNL     1       4.423  -1.752   0.741  1.00  0.00     0.199 C 
HETATM   20  C16 UNL     1       5.448  -2.914   0.720  1.00  0.00     0.084 C 
HETATM   21  F1  UNL     1       3.264  -2.183   1.293  1.00  0.00    -0.212 F 
BRANCH  19  22
HETATM   22  O2  UNL     1       5.025  -0.817   1.607  1.00  0.00    -0.362 OA
ATOM     23  H2  UNL     1       5.113  -1.150   2.493  1.00  0.00     0.213 HD
ENDBRANCH  19  22
ENDBRANCH  18  19
ENDBRANCH  17  18
ENDBRANCH  16  17
ENDBRANCH  15  16
ENDBRANCH  14  15
ENDBRANCH  13  14
ENDBRANCH   1  13
TORSDOF 9
