REMARK  0 active torsions:
REMARK  status: ('A' for Active; 'I' for Inactive)
ROOT
HETATM    1  C1  UNL     1       1.262  -0.395  -0.171  1.00  0.00     0.014 C 
HETATM    2  C2  UNL     1       0.633   0.395   0.868  1.00  0.00    -0.008 C 
HETATM    3  C3  UNL     1       0.062   1.283  -0.202  1.00  0.00     0.014 C 
HETATM    4  C4  UNL     1      -0.135  -0.121  -0.790  1.00  0.00    -0.035 A 
HETATM    5  C5  UNL     1      -1.105  -1.087  -0.456  1.00  0.00     0.015 A 
HETATM    6  C6  UNL     1      -0.679  -0.320   0.690  1.00  0.00    -0.001 A 
ENDROOT
TORSDOF 0
