REMARK  1 active torsions:
REMARK  status: ('A' for Active; 'I' for Inactive)
REMARK    1  A    between atoms: N1_2  and  N2_4 
ROOT
HETATM    1  N2  UNL     1       0.697  -0.462   0.441  1.00  0.00    -0.271 N 
ATOM      2  H2  UNL     1       0.508  -0.824   1.376  1.00  0.00     0.190 HD
HETATM    3  C2  UNL     1       1.885  -0.015   0.169  1.00  0.00     0.275 C 
HETATM    4  F1  UNL     1       2.127   0.465  -1.075  1.00  0.00    -0.171 F 
HETATM    5 CL1  UNL     1       3.156  -0.010   1.327  1.00  0.00    -0.031 Cl
ENDROOT
BRANCH   1   6
HETATM    6  N1  UNL     1      -0.323  -0.463  -0.498  1.00  0.00    -0.338 N 
HETATM    7  C1  UNL     1      -1.564   0.240  -0.315  1.00  0.00     0.167 C 
ATOM      8  H1  UNL     1      -0.186  -0.988  -1.361  1.00  0.00     0.179 HD
ENDBRANCH   1   6
TORSDOF 1
