REMARK  0 active torsions:
REMARK  status: ('A' for Active; 'I' for Inactive)
ROOT
HETATM    1  C1  UNL     1      -1.186   0.238  -0.211  1.00  0.00     0.140 C 
HETATM    2  N1  UNL     1       0.030  -0.349  -0.681  1.00  0.00    -0.149 NA
HETATM    3  N2  UNL     1       0.804  -1.178   0.073  1.00  0.00    -0.067 NA
HETATM    4  C2  UNL     1       1.225   0.145  -0.002  1.00  0.00     0.411 A 
HETATM    5  F1  UNL     1       1.038   0.911   1.153  1.00  0.00    -0.167 F 
HETATM    6  F2  UNL     1       2.185   0.593  -0.887  1.00  0.00    -0.167 F 
ENDROOT
TORSDOF 0
