REMARK  6 active torsions:
REMARK  status: ('A' for Active; 'I' for Inactive)
REMARK    1  A    between atoms: S1_2  and  C2_5 
REMARK    2  A    between atoms: C2_5  and  C3_6 
REMARK    3  A    between atoms: C3_6  and  C4_7 
REMARK    4  A    between atoms: N1_10  and  C7_11 
REMARK    5  A    between atoms: C8_14  and  N3_15 
REMARK    6  A    between atoms: N3_15  and  C9_17 
ROOT
HETATM    1  C7  UNL     1      -0.745   0.008  -0.180  1.00  0.00     0.129 A 
HETATM    2  N2  UNL     1      -1.854   0.311   0.515  1.00  0.00    -0.176 N 
ATOM      3  H2  UNL     1      -1.788   0.983   1.280  1.00  0.00     0.186 HD
HETATM    4  C8  UNL     1      -3.044  -0.240   0.237  1.00  0.00     0.681 A 
HETATM    5  N4  UNL     1      -3.154  -1.123  -0.762  1.00  0.00    -0.176 N 
ATOM      6  H4  UNL     1      -4.064  -1.537  -0.967  1.00  0.00     0.186 HD
HETATM    7  C14 UNL     1      -2.081  -1.477  -1.505  1.00  0.00     0.127 A 
HETATM    8  C15 UNL     1      -0.873  -0.905  -1.209  1.00  0.00     0.032 A 
HETATM    9  C16 UNL     1       0.178  -1.438  -2.148  1.00  0.00     0.066 C 
HETATM   10  C17 UNL     1      -0.508  -2.689  -2.713  1.00  0.00     0.126 C 
HETATM   11  N5  UNL     1      -1.916  -2.378  -2.603  1.00  0.00    -0.375 N 
ATOM     12  H5  UNL     1      -2.659  -2.737  -3.202  1.00  0.00     0.161 HD
ENDROOT
BRANCH   1  13
HETATM   13  N1  UNL     1       0.531   0.565   0.075  1.00  0.00    -0.366 N 
HETATM   14  C6  UNL     1       1.147   1.374  -0.941  1.00  0.00     0.125 C 
HETATM   15  C5  UNL     1       2.630   1.072  -0.981  1.00  0.00     0.024 C 
HETATM   16  C4  UNL     1       3.158   1.389   0.400  1.00  0.00    -0.011 C 
HETATM   17  C19 UNL     1       2.633   0.347   1.335  1.00  0.00     0.024 C 
HETATM   18  C18 UNL     1       1.133   0.277   1.355  1.00  0.00     0.125 C 
BRANCH  16  19
HETATM   19  C3  UNL     1       4.642   1.492   0.456  1.00  0.00     0.019 C 
BRANCH  19  20
HETATM   20  C2  UNL     1       5.340   0.216   0.039  1.00  0.00     0.140 C 
BRANCH  20  21
HETATM   21  S1  UNL     1       7.101   0.452   0.143  1.00  0.00     0.140 S 
HETATM   22  C1  UNL     1       7.962  -1.013  -0.335  1.00  0.00     0.161 C 
HETATM   23  O1  UNL     1       7.426   0.838   1.573  1.00  0.00    -0.228 OA
HETATM   24  O2  UNL     1       7.524   1.579  -0.760  1.00  0.00    -0.228 OA
ENDBRANCH  20  21
ENDBRANCH  19  20
ENDBRANCH  16  19
ENDBRANCH   1  13
BRANCH   4  25
HETATM   25  N3  UNL     1      -4.054   0.101   0.946  1.00  0.00    -0.221 N 
ATOM     26  H3  UNL     1      -3.899   0.780   1.692  1.00  0.00     0.178 HD
BRANCH  25  27
HETATM   27  C9  UNL     1      -5.385  -0.399   0.771  1.00  0.00     0.099 C 
HETATM   28  C10 UNL     1      -6.150   0.298  -0.329  1.00  0.00     0.026 C 
HETATM   29  C11 UNL     1      -6.891   1.433   0.340  1.00  0.00     0.002 C 
HETATM   30  C12 UNL     1      -6.911   1.149   1.807  1.00  0.00     0.002 C 
HETATM   31  C13 UNL     1      -6.205  -0.159   2.038  1.00  0.00     0.026 C 
ENDBRANCH  25  27
ENDBRANCH   4  25
TORSDOF 6
