REMARK  6 active torsions:
REMARK  status: ('A' for Active; 'I' for Inactive)
REMARK    1  A    between atoms: N1_2  and  C2_5 
REMARK    2  A    between atoms: C12_16  and  C13_17 
REMARK    3  A    between atoms: C13_17  and  O2_18 
REMARK    4  A    between atoms: C16_22  and  C17_23 
REMARK    5  A    between atoms: C17_23  and  N2_24 
REMARK    6  A    between atoms: C20_28  and  C21_29 
ROOT
HETATM    1  C2  UNL     1      -2.243   1.341   0.840  1.00  0.00     0.200 C 
HETATM    2  C3  UNL     1      -2.020   0.180   1.731  1.00  0.00     0.066 C 
HETATM    3  C4  UNL     1      -1.143  -0.872   1.084  1.00  0.00     0.129 C 
HETATM    4  O1  UNL     1       0.073  -0.457   1.099  1.00  0.00    -0.377 OA
HETATM    5  C5  UNL     1       1.226  -0.948   1.421  1.00  0.00     0.161 C 
HETATM    6  C6  UNL     1       1.887   0.060   2.390  1.00  0.00     0.071 C 
HETATM    7  C7  UNL     1       1.978   1.238   1.385  1.00  0.00     0.147 C 
HETATM    8  C8  UNL     1       0.745   2.045   1.450  1.00  0.00     0.002 C 
HETATM    9  C9  UNL     1      -0.053   2.359   0.262  1.00  0.00    -0.016 C 
HETATM   10  C10 UNL     1      -1.161   1.530  -0.237  1.00  0.00     0.012 C 
HETATM   11  C11 UNL     1      -1.870   2.541  -1.166  1.00  0.00     0.022 C 
HETATM   12  C12 UNL     1      -0.942   0.265  -1.051  1.00  0.00    -0.000 C 
HETATM   13  C14 UNL     1       0.475   0.057  -1.467  1.00  0.00     0.016 C 
HETATM   14  C15 UNL     1       1.338  -0.995  -1.000  1.00  0.00     0.043 C 
HETATM   15  C16 UNL     1       2.163  -0.662   0.254  1.00  0.00     0.114 C 
HETATM   16  O3  UNL     1       2.340   0.692   0.198  1.00  0.00    -0.366 OA
HETATM   17  C20 UNL     1      -1.665  -0.863  -0.401  1.00  0.00     0.030 C 
ENDROOT
BRANCH   1  18
HETATM   18  N1  UNL     1      -2.505   2.515   1.600  1.00  0.00    -0.074 N 
HETATM   19  C1  UNL     1      -3.716   2.435   2.398  1.00  0.00     0.267 C 
ATOM     20  H12 UNL     1      -2.525   3.337   0.997  1.00  0.00     0.277 HD
ATOM     21  H11 UNL     1      -1.703   2.752   2.185  1.00  0.00     0.277 HD
ENDBRANCH   1  18
BRANCH  12  22
HETATM   22  C13 UNL     1      -1.648   0.369  -2.407  1.00  0.00     0.175 C 
BRANCH  22  23
HETATM   23  O2  UNL     1      -1.178   1.408  -3.220  1.00  0.00    -0.400 OA
ATOM     24  H2  UNL     1      -1.616   1.472  -4.061  1.00  0.00     0.209 HD
ENDBRANCH  22  23
ENDBRANCH  12  22
BRANCH  17  25
HETATM   25  C21 UNL     1      -1.852  -2.227  -0.854  1.00  0.00    -0.015 C 
HETATM   26  C22 UNL     1      -2.351  -2.567  -2.219  1.00  0.00     0.010 C 
HETATM   27  C23 UNL     1      -2.940  -2.869   0.081  1.00  0.00     0.010 C 
ENDBRANCH  17  25
BRANCH  15  28
HETATM   28  C17 UNL     1       3.417  -1.472   0.336  1.00  0.00     0.311 C 
BRANCH  28  29
HETATM   29  N2  UNL     1       4.265  -1.264  -0.783  1.00  0.00     0.083 N 
HETATM   30  C18 UNL     1       5.453  -2.108  -0.586  1.00  0.00     0.309 C 
HETATM   31  C19 UNL     1       4.726   0.073  -0.968  1.00  0.00     0.309 C 
ENDBRANCH  28  29
ENDBRANCH  15  28
TORSDOF 6
