REMARK  5 active torsions:
REMARK  status: ('A' for Active; 'I' for Inactive)
REMARK    1  A    between atoms: C10_15  and  O2_16 
REMARK    2  A    between atoms: O2_16  and  C11_17 
REMARK    3  A    between atoms: C11_17  and  C12_18 
REMARK    4  A    between atoms: C12_18  and  C13_19 
REMARK    5  A    between atoms: C13_19  and  N3_20 
ROOT
HETATM    1  O1  UNL     1      -7.414   2.464   1.352  1.00  0.00    -0.247 OA
HETATM    2  C1  UNL     1      -6.775   1.462   0.941  1.00  0.00     0.324 C 
HETATM    3  N1  UNL     1      -7.310   0.161   1.113  1.00  0.00    -0.288 N 
ATOM      4  H1  UNL     1      -8.210   0.012   1.570  1.00  0.00     0.172 HD
HETATM    5  C2  UNL     1      -6.528  -0.942   0.614  1.00  0.00     0.157 A 
HETATM    6  S1  UNL     1      -6.798  -2.627   0.699  1.00  0.00    -0.064 SA
HETATM    7  C3  UNL     1      -5.368  -3.145  -0.066  1.00  0.00     0.070 A 
HETATM    8  C4  UNL     1      -4.749  -1.968  -0.352  1.00  0.00     0.103 A 
HETATM    9  N2  UNL     1      -5.362  -0.842   0.005  1.00  0.00    -0.305 N 
HETATM   10  C5  UNL     1      -4.810   0.504  -0.295  1.00  0.00     0.144 C 
HETATM   11  C6  UNL     1      -4.768   0.575  -1.812  1.00  0.00     0.064 C 
HETATM   12  C7  UNL     1      -3.385   1.021  -2.184  1.00  0.00     0.044 C 
HETATM   13  C8  UNL     1      -2.560   0.838  -0.954  1.00  0.00    -0.045 A 
HETATM   14  C9  UNL     1      -1.194   0.921  -0.784  1.00  0.00     0.044 A 
HETATM   15  C10 UNL     1      -0.574   0.719   0.436  1.00  0.00     0.069 A 
HETATM   16  C19 UNL     1      -1.422   0.420   1.512  1.00  0.00     0.037 A 
HETATM   17  C20 UNL     1      -2.787   0.339   1.332  1.00  0.00     0.015 A 
HETATM   18  C21 UNL     1      -3.376   0.544   0.109  1.00  0.00    -0.003 A 
HETATM   19  N4  UNL     1      -5.527   1.528   0.302  1.00  0.00    -0.311 N 
ATOM     20  H4  UNL     1      -5.091   2.450   0.274  1.00  0.00     0.167 HD
ENDROOT
BRANCH  15  21
HETATM   21  O2  UNL     1       0.797   0.797   0.635  1.00  0.00    -0.351 OA
BRANCH  21  22
HETATM   22  C11 UNL     1       1.620   1.102  -0.461  1.00  0.00     0.177 C 
BRANCH  22  23
HETATM   23  C12 UNL     1       3.088   1.151  -0.070  1.00  0.00     0.046 C 
BRANCH  23  24
HETATM   24  C13 UNL     1       3.586  -0.141   0.472  1.00  0.00     0.124 C 
BRANCH  24  25
HETATM   25  N3  UNL     1       4.951  -0.029   0.869  1.00  0.00    -0.393 N 
HETATM   26  C14 UNL     1       5.545  -1.237   1.347  1.00  0.00     0.122 C 
HETATM   27  C15 UNL     1       6.037  -2.005   0.139  1.00  0.00     0.020 C 
HETATM   28  C16 UNL     1       7.105  -1.194  -0.539  1.00  0.00     0.007 C 
HETATM   29  C17 UNL     1       6.497   0.127  -1.019  1.00  0.00     0.044 C 
HETATM   30  C18 UNL     1       5.812   0.821   0.148  1.00  0.00     0.058 C 
ENDBRANCH  24  25
ENDBRANCH  23  24
ENDBRANCH  22  23
ENDBRANCH  21  22
ENDBRANCH  15  21
TORSDOF 5
