REMARK  8 active torsions:
REMARK  status: ('A' for Active; 'I' for Inactive)
REMARK    1  A    between atoms: O1_2  and  C2_3 
REMARK    2  A    between atoms: C4_5  and  C5_6 
REMARK    3  A    between atoms: C5_6  and  N1_7 
REMARK    4  A    between atoms: N1_7  and  C6_9 
REMARK    5  A    between atoms: C13_20  and  C14_21 
REMARK    6  A    between atoms: C15_22  and  C16_23 
REMARK    7  A    between atoms: C21_30  and  O2_31 
REMARK    8  A    between atoms: C23_33  and  O3_34 
ROOT
HETATM    1  C2  UNL     1      -0.488  -2.853  -0.500  1.00  0.00     0.104 A 
HETATM    2  C3  UNL     1       0.047  -1.713  -1.044  1.00  0.00     0.050 A 
HETATM    3  C4  UNL     1      -0.506  -0.487  -0.746  1.00  0.00    -0.016 A 
HETATM    4  C13 UNL     1      -1.602  -0.348   0.095  1.00  0.00     0.062 A 
HETATM    5  C21 UNL     1      -2.108  -1.517   0.620  1.00  0.00     0.123 A 
HETATM    6  C23 UNL     1      -1.575  -2.757   0.340  1.00  0.00     0.136 A 
ENDROOT
BRANCH   3   7
HETATM    7  C5  UNL     1       0.052   0.769  -1.322  1.00  0.00     0.178 C 
BRANCH   7   8
HETATM    8  N1  UNL     1       1.185   0.463  -2.173  1.00  0.00    -0.222 N 
ATOM      9  H1  UNL     1       1.033   0.272  -3.164  1.00  0.00     0.178 HD
BRANCH   8  10
HETATM   10  C6  UNL     1       2.398   0.428  -1.688  1.00  0.00     0.679 A 
HETATM   11  N2  UNL     1       2.790   0.649  -0.422  1.00  0.00    -0.190 N 
HETATM   12  C7  UNL     1       4.124   0.520  -0.321  1.00  0.00     0.076 A 
ATOM     13  H2  UNL     1       2.166   0.881   0.351  1.00  0.00     0.184 HD
HETATM   14  C8  UNL     1       5.012   0.639   0.723  1.00  0.00     0.032 A 
HETATM   15  C12 UNL     1       4.615   0.199  -1.590  1.00  0.00     0.076 A 
HETATM   16  C9  UNL     1       6.347   0.441   0.491  1.00  0.00     0.002 A 
HETATM   17  C10 UNL     1       6.844   0.120  -0.770  1.00  0.00     0.002 A 
HETATM   18  C11 UNL     1       5.958   0.003  -1.803  1.00  0.00     0.032 A 
HETATM   19  N3  UNL     1       3.516   0.158  -2.376  1.00  0.00    -0.190 N 
ATOM     20  H3  UNL     1       3.535  -0.053  -3.374  1.00  0.00     0.184 HD
ENDBRANCH   8  10
ENDBRANCH   7   8
ENDBRANCH   3   7
BRANCH   4  21
HETATM   21  C14 UNL     1      -2.155   0.948   0.384  1.00  0.00    -0.056 C 
HETATM   22  C15 UNL     1      -2.602   2.044   0.633  1.00  0.00    -0.043 C 
BRANCH  22  23
HETATM   23  C16 UNL     1      -3.114   3.351   0.942  1.00  0.00     0.086 A 
HETATM   24  C17 UNL     1      -4.297   3.811   0.405  1.00  0.00     0.039 A 
HETATM   25  C18 UNL     1      -4.747   5.055   0.724  1.00  0.00     0.004 A 
HETATM   26  C19 UNL     1      -4.055   5.890   1.576  1.00  0.00     0.017 A 
HETATM   27  C20 UNL     1      -2.876   5.400   2.095  1.00  0.00     0.089 A 
HETATM   28  N4  UNL     1      -2.446   4.171   1.772  1.00  0.00    -0.359 N 
ATOM     29  H4  UNL     1      -1.569   3.842   2.176  1.00  0.00     0.166 HD
ENDBRANCH  22  23
ENDBRANCH   4  21
BRANCH   1  30
HETATM   30  O1  UNL     1       0.099  -4.068  -0.824  1.00  0.00    -0.353 OA
HETATM   31  C1  UNL     1       1.214  -4.123  -1.689  1.00  0.00     0.210 C 
ENDBRANCH   1  30
BRANCH   5  32
HETATM   32  O2  UNL     1      -3.215  -1.374   1.469  1.00  0.00    -0.352 OA
HETATM   33  C22 UNL     1      -4.540  -1.401   0.988  1.00  0.00     0.210 C 
ENDBRANCH   5  32
BRANCH   6  34
HETATM   34  O3  UNL     1      -2.109  -3.911   0.885  1.00  0.00    -0.351 OA
HETATM   35  C24 UNL     1      -1.692  -4.463   2.112  1.00  0.00     0.210 C 
ENDBRANCH   6  34
TORSDOF 8
