REMARK  12 active torsions:
REMARK  status: ('A' for Active; 'I' for Inactive)
REMARK    1  A    between atoms: C2_2  and  C3_3 
REMARK    2  A    between atoms: C3_3  and  C5_5 
REMARK    3  A    between atoms: C5_5  and  C6_6 
REMARK    4  A    between atoms: C6_6  and  O1_7 
REMARK    5  A    between atoms: C6_6  and  C7_9 
REMARK    6  A    between atoms: C7_9  and  C8_10 
REMARK    7  A    between atoms: C7_9  and  N3_21 
REMARK    8  A    between atoms: C8_10  and  N1_11 
REMARK       I    between atoms: N1_11  and  C9_12 
REMARK    9  A    between atoms: C9_12  and  C10_14 
REMARK   10  A    between atoms: C10_14  and  N2_15 
REMARK       I    between atoms: N3_21  and  C15_23 
REMARK   11  A    between atoms: C15_23  and  C16_25 
REMARK   12  A    between atoms: C16_25  and  N4_26 
REMARK       I    between atoms: N4_26  and  C17_28 
REMARK       I    between atoms: C17_28  and  N5_30 
ROOT
HETATM    1  N3  UNL     1      -1.487  -0.784   0.335  1.00  0.00    -0.346 N 
ATOM      2  H3  UNL     1      -1.954  -0.356   1.134  1.00  0.00     0.163 HD
HETATM    3  C15 UNL     1      -0.095  -0.652   0.235  1.00  0.00     0.248 C 
HETATM    4  O4  UNL     1       0.417  -1.220  -0.813  1.00  0.00    -0.271 OA
ENDROOT
BRANCH   3   5
HETATM    5  C16 UNL     1       0.834   0.031   1.127  1.00  0.00     0.132 C 
HETATM    6  C28 UNL     1       0.953  -0.743   2.422  1.00  0.00     0.053 C 
HETATM    7  C29 UNL     1       1.961  -0.046   3.283  1.00  0.00     0.077 C 
HETATM    8  S1  UNL     1       1.908   1.685   2.701  1.00  0.00    -0.157 SA
HETATM    9  C30 UNL     1       0.472   1.436   1.531  1.00  0.00     0.035 C 
HETATM   10  C31 UNL     1      -0.724   1.621   2.372  1.00  0.00     0.030 C 
HETATM   11  C32 UNL     1       0.636   2.418   0.437  1.00  0.00     0.030 C 
BRANCH   5  12
HETATM   12  N4  UNL     1       2.143   0.093   0.482  1.00  0.00    -0.323 N 
HETATM   13  C17 UNL     1       3.006  -0.913   0.122  1.00  0.00     0.319 C 
HETATM   14  O5  UNL     1       2.825  -2.128   0.296  1.00  0.00    -0.247 OA
HETATM   15  N5  UNL     1       4.253  -0.535  -0.527  1.00  0.00    -0.334 N 
HETATM   16  C18 UNL     1       5.200  -1.542  -0.886  1.00  0.00     0.128 C 
HETATM   17  C27 UNL     1       4.518   0.861  -0.820  1.00  0.00     0.128 C 
HETATM   18  C19 UNL     1       6.623  -1.146  -0.551  1.00  0.00     0.029 C 
HETATM   19  C20 UNL     1       6.890   0.300  -0.794  1.00  0.00    -0.037 C 
HETATM   20  C21 UNL     1       6.960   1.033   0.523  1.00  0.00     0.010 C 
HETATM   21  C25 UNL     1       8.159   0.477  -1.558  1.00  0.00     0.010 C 
HETATM   22  C26 UNL     1       5.785   0.929  -1.634  1.00  0.00     0.029 C 
HETATM   23  C22 UNL     1       8.362   1.033   1.108  1.00  0.00     0.001 C 
HETATM   24  C23 UNL     1       9.329   1.743   0.181  1.00  0.00     0.000 C 
HETATM   25  C24 UNL     1       8.730   1.820  -1.219  1.00  0.00     0.001 C 
ATOM     26  H4  UNL     1       2.469   1.035   0.264  1.00  0.00     0.165 HD
ENDBRANCH   5  12
ENDBRANCH   3   5
BRANCH   1  27
HETATM   27  C7  UNL     1      -2.320  -1.510  -0.654  1.00  0.00     0.165 C 
BRANCH  27  28
HETATM   28  C6  UNL     1      -3.059  -2.604  -0.016  1.00  0.00     0.147 C 
BRANCH  28  29
HETATM   29  C5  UNL     1      -3.646  -3.552  -1.013  1.00  0.00     0.038 C 
BRANCH  29  30
HETATM   30  C3  UNL     1      -4.022  -4.891  -0.496  1.00  0.00    -0.016 C 
HETATM   31  C4  UNL     1      -2.865  -5.805  -0.193  1.00  0.00     0.010 C 
BRANCH  30  32
HETATM   32  C2  UNL     1      -5.043  -4.838   0.597  1.00  0.00    -0.000 C 
HETATM   33  C1  UNL     1      -5.658  -6.227   0.843  1.00  0.00     0.005 C 
ENDBRANCH  30  32
ENDBRANCH  29  30
ENDBRANCH  28  29
BRANCH  28  34
HETATM   34  O1  UNL     1      -3.912  -2.311   1.017  1.00  0.00    -0.393 OA
ATOM     35  H1  UNL     1      -3.539  -1.709   1.650  1.00  0.00     0.210 HD
ENDBRANCH  28  34
ENDBRANCH  27  28
BRANCH  27  36
HETATM   36  C8  UNL     1      -3.051  -0.496  -1.479  1.00  0.00     0.186 C 
BRANCH  36  37
HETATM   37  N1  UNL     1      -4.011   0.290  -0.919  1.00  0.00    -0.384 NA
HETATM   38  C9  UNL     1      -4.977   1.079  -0.355  1.00  0.00     0.319 C 
HETATM   39  O2  UNL     1      -6.041   0.702   0.188  1.00  0.00    -0.255 OA
BRANCH  38  40
HETATM   40  C10 UNL     1      -4.846   2.586  -0.335  1.00  0.00     0.391 C 
BRANCH  40  41
HETATM   41  N2  UNL     1      -5.937   3.255   0.301  1.00  0.00     0.102 N 
HETATM   42  C11 UNL     1      -7.190   3.108  -0.415  1.00  0.00     0.299 C 
HETATM   43  C12 UNL     1      -7.971   4.401  -0.250  1.00  0.00     0.198 C 
HETATM   44  O3  UNL     1      -7.406   5.456  -0.978  1.00  0.00    -0.388 OA
HETATM   45  C13 UNL     1      -6.018   5.472  -0.791  1.00  0.00     0.198 C 
HETATM   46  C14 UNL     1      -5.614   4.679   0.436  1.00  0.00     0.299 C 
ENDBRANCH  40  41
ENDBRANCH  38  40
ENDBRANCH  36  37
ENDBRANCH  27  36
ENDBRANCH   1  27
TORSDOF 12
