REMARK  8 active torsions:
REMARK  status: ('A' for Active; 'I' for Inactive)
REMARK    1  A    between atoms: C2_2  and  C3_3 
REMARK    2  A    between atoms: C3_3  and  N1_4 
REMARK    3  A    between atoms: N1_4  and  C4_7 
REMARK    4  A    between atoms: C4_7  and  C5_8 
REMARK    5  A    between atoms: C5_8  and  N2_9 
REMARK    6  A    between atoms: N2_9  and  C6_11 
REMARK    7  A    between atoms: C9_18  and  N5_19 
REMARK    8  A    between atoms: N5_19  and  C10_21 
ROOT
HETATM    1  C6  UNL     1       0.076  -1.144  -0.498  1.00  0.00     0.694 A 
HETATM    2  N3  UNL     1       0.408  -2.420  -0.268  1.00  0.00    -0.180 N 
ATOM      3  H3  UNL     1       1.383  -2.706  -0.355  1.00  0.00     0.185 HD
HETATM    4  C7  UNL     1      -0.521  -3.336   0.076  1.00  0.00     0.109 A 
HETATM    5  C8  UNL     1      -0.072  -4.738   0.314  1.00  0.00     0.090 C 
HETATM    6  N4  UNL     1      -1.803  -2.990   0.197  1.00  0.00    -0.180 N 
ATOM      7  H4  UNL     1      -2.504  -3.684   0.457  1.00  0.00     0.185 HD
HETATM    8  C9  UNL     1      -2.160  -1.710  -0.029  1.00  0.00     0.698 A 
HETATM    9  N6  UNL     1      -1.217  -0.810  -0.372  1.00  0.00    -0.022 N 
ATOM     10  H6  UNL     1      -1.496   0.156  -0.541  1.00  0.00     0.203 HD
ENDROOT
BRANCH   1  11
HETATM   11  N2  UNL     1       0.991  -0.307  -0.823  1.00  0.00    -0.224 N 
ATOM     12  H2  UNL     1       0.740   0.666  -0.999  1.00  0.00     0.177 HD
BRANCH  11  13
HETATM   13  C5  UNL     1       2.372  -0.718  -0.945  1.00  0.00     0.165 C 
BRANCH  13  14
HETATM   14  C4  UNL     1       3.126   0.439  -1.582  1.00  0.00     0.252 C 
BRANCH  14  15
HETATM   15  N1  UNL     1       3.051   1.648  -0.789  1.00  0.00    -0.071 N 
ATOM     16  H12 UNL     1       2.089   1.941  -0.617  1.00  0.00     0.277 HD
ATOM     17  H11 UNL     1       3.361   2.471  -1.305  1.00  0.00     0.277 HD
BRANCH  15  18
HETATM   18  C3  UNL     1       3.797   1.453   0.439  1.00  0.00     0.259 C 
BRANCH  18  19
HETATM   19  C2  UNL     1       3.745   2.677   1.281  1.00  0.00    -0.010 C 
HETATM   20  C1  UNL     1       3.236   2.651   2.487  1.00  0.00     0.008 C 
ENDBRANCH  18  19
ENDBRANCH  15  18
ENDBRANCH  14  15
ENDBRANCH  13  14
ENDBRANCH  11  13
ENDBRANCH   1  11
BRANCH   8  21
HETATM   21  N5  UNL     1      -3.378  -1.310   0.070  1.00  0.00    -0.191 N 
ATOM     22  H5  UNL     1      -4.117  -1.964   0.327  1.00  0.00     0.184 HD
BRANCH  21  23
HETATM   23  C10 UNL     1      -3.679   0.050  -0.183  1.00  0.00     0.049 A 
HETATM   24  C11 UNL     1      -3.699   0.957   0.881  1.00  0.00     0.030 A 
HETATM   25  C12 UNL     1      -3.990   2.290   0.679  1.00  0.00     0.002 A 
HETATM   26  C13 UNL     1      -4.270   2.780  -0.578  1.00  0.00     0.000 A 
HETATM   27  C14 UNL     1      -4.249   1.871  -1.639  1.00  0.00     0.002 A 
HETATM   28  C15 UNL     1      -3.958   0.529  -1.441  1.00  0.00     0.030 A 
ENDBRANCH  21  23
ENDBRANCH   8  21
TORSDOF 8
