REMARK  6 active torsions:
REMARK  status: ('A' for Active; 'I' for Inactive)
REMARK    1  A    between atoms: C6_8  and  O1_9 
REMARK    2  A    between atoms: O1_9  and  C7_10 
REMARK    3  A    between atoms: C7_10  and  C8_11 
REMARK    4  A    between atoms: C8_11  and  C9_12 
REMARK    5  A    between atoms: C9_12  and  N2_13 
REMARK    6  A    between atoms: C14_18  and  O2_19 
ROOT
HETATM    1  C1  UNL     1      -0.913   5.429  -0.960  1.00  0.00     0.012 C 
HETATM    2  C2  UNL     1      -1.374   4.024  -0.741  1.00  0.00     0.004 C 
HETATM    3  C3  UNL     1      -1.829   3.838   0.713  1.00  0.00     0.124 C 
HETATM    4  N1  UNL     1      -2.598   2.610   0.721  1.00  0.00    -0.389 N 
ATOM      5  H1  UNL     1      -3.527   2.560   1.139  1.00  0.00     0.159 HD
HETATM    6  C4  UNL     1      -1.978   1.463   0.105  1.00  0.00     0.044 A 
HETATM    7  C5  UNL     1      -0.903   1.640  -0.740  1.00  0.00     0.005 A 
HETATM    8  C6  UNL     1      -0.334   0.507  -1.314  1.00  0.00     0.111 A 
HETATM    9  C14 UNL     1      -0.831  -0.733  -1.045  1.00  0.00     0.106 A 
HETATM   10  C15 UNL     1      -1.935  -0.888  -0.173  1.00  0.00    -0.009 A 
HETATM   11  C16 UNL     1      -2.501   0.223   0.397  1.00  0.00    -0.021 A 
HETATM   12  C17 UNL     1      -3.648  -0.186   1.277  1.00  0.00     0.047 C 
HETATM   13  C18 UNL     1      -3.362  -1.639   1.512  1.00  0.00    -0.002 C 
HETATM   14  C19 UNL     1      -4.530  -2.449   1.916  1.00  0.00     0.005 C 
HETATM   15  C20 UNL     1      -5.293  -3.089   0.811  1.00  0.00     0.000 C 
HETATM   16  C21 UNL     1      -4.431  -3.679  -0.271  1.00  0.00     0.001 C 
HETATM   17  C22 UNL     1      -3.579  -2.528  -0.823  1.00  0.00     0.010 C 
HETATM   18  C23 UNL     1      -2.653  -2.116   0.277  1.00  0.00     0.026 C 
HETATM   19  C24 UNL     1      -0.334   3.000  -1.056  1.00  0.00     0.049 C 
ENDROOT
BRANCH   8  20
HETATM   20  O1  UNL     1       0.728   0.702  -2.147  1.00  0.00    -0.348 OA
BRANCH  20  21
HETATM   21  C7  UNL     1       2.073   0.833  -1.847  1.00  0.00     0.177 C 
BRANCH  21  22
HETATM   22  C8  UNL     1       2.727  -0.311  -1.126  1.00  0.00     0.057 C 
BRANCH  22  23
HETATM   23  C9  UNL     1       4.178   0.058  -0.911  1.00  0.00     0.274 C 
BRANCH  23  24
HETATM   24  N2  UNL     1       4.912  -0.968  -0.225  1.00  0.00     0.088 N 
HETATM   25  C10 UNL     1       6.281  -0.503  -0.078  1.00  0.00     0.272 C 
HETATM   26  C11 UNL     1       6.893  -1.341   1.019  1.00  0.00     0.032 C 
HETATM   27  C12 UNL     1       5.679  -1.842   1.765  1.00  0.00     0.032 C 
HETATM   28  C13 UNL     1       4.498  -1.095   1.168  1.00  0.00     0.272 C 
ENDBRANCH  23  24
ENDBRANCH  22  23
ENDBRANCH  21  22
ENDBRANCH  20  21
ENDBRANCH   8  20
BRANCH   9  29
HETATM   29  O2  UNL     1      -0.309  -1.889  -1.596  1.00  0.00    -0.357 OA
ATOM     30  H2  UNL     1      -0.655  -2.753  -1.408  1.00  0.00     0.217 HD
ENDBRANCH   9  29
TORSDOF 6
