REMARK  19 active torsions:
REMARK  status: ('A' for Active; 'I' for Inactive)
REMARK    1  A    between atoms: C2_2  and  C3_3 
REMARK    2  A    between atoms: C2_2  and  C5_9 
REMARK    3  A    between atoms: C3_3  and  O1_4 
REMARK    4  A    between atoms: C3_3  and  C4_6 
REMARK    5  A    between atoms: C4_6  and  O2_7 
REMARK    6  A    between atoms: C5_9  and  N1_10 
REMARK    7  A    between atoms: C5_9  and  C7_22 
REMARK    8  A    between atoms: N1_10  and  C6_12 
REMARK    9  A    between atoms: C6_12  and  O3_18 
REMARK   10  A    between atoms: N2_13  and  N3_15 
REMARK   11  A    between atoms: O3_18  and  N4_19 
REMARK   12  A    between atoms: C7_22  and  O4_23 
REMARK   13  A    between atoms: C7_22  and  C8_25 
REMARK   14  A    between atoms: C8_25  and  N5_26 
REMARK   15  A    between atoms: C10_28  and  O5_29 
REMARK   16  A    between atoms: C11_31  and  C12_32 
REMARK   17  A    between atoms: C16_40  and  N8_41 
REMARK   18  A    between atoms: C17_46  and  N10_47 
REMARK   19  A    between atoms: N11_50  and  N12_51 
ROOT
HETATM    1  N5  UNL     1       0.083  -0.902   1.029  1.00  0.00    -0.298 N 
HETATM    2  C9  UNL     1       0.778  -1.914   1.549  1.00  0.00     0.149 A 
HETATM    3  C10 UNL     1       2.119  -1.735   1.289  1.00  0.00     0.113 A 
HETATM    4  C11 UNL     1       2.219  -0.569   0.587  1.00  0.00     0.111 A 
HETATM    5  N13 UNL     1       0.986  -0.102   0.452  1.00  0.00    -0.294 N 
ATOM      6  H13 UNL     1       0.754   0.764  -0.034  1.00  0.00     0.187 HD
ENDROOT
BRANCH   1   7
HETATM    7  C8  UNL     1      -1.328  -0.611   1.019  1.00  0.00     0.182 C 
BRANCH   7   8
HETATM    8  C7  UNL     1      -2.065  -1.137  -0.161  1.00  0.00     0.161 C 
BRANCH   8   9
HETATM    9  C5  UNL     1      -3.549  -0.771  -0.110  1.00  0.00     0.121 C 
BRANCH   9  10
HETATM   10  C2  UNL     1      -4.222  -1.566   0.949  1.00  0.00     0.038 C 
HETATM   11  C1  UNL     1      -4.037  -3.062   0.573  1.00  0.00     0.015 C 
BRANCH  10  12
HETATM   12  C3  UNL     1      -5.730  -1.433   0.994  1.00  0.00     0.147 C 
BRANCH  12  13
HETATM   13  O1  UNL     1      -6.113  -2.408   1.979  1.00  0.00    -0.393 OA
ATOM     14  H1  UNL     1      -7.059  -2.325   2.007  1.00  0.00     0.210 HD
ENDBRANCH  12  13
BRANCH  12  15
HETATM   15  C4  UNL     1      -6.279  -0.160   1.529  1.00  0.00     0.196 C 
BRANCH  15  16
HETATM   16  O2  UNL     1      -5.810   0.181   2.795  1.00  0.00    -0.398 OA
ATOM     17  H2  UNL     1      -6.161   0.995   3.137  1.00  0.00     0.209 HD
ENDBRANCH  15  16
ENDBRANCH  12  15
ENDBRANCH  10  12
ENDBRANCH   9  10
BRANCH   9  18
HETATM   18  N1  UNL     1      -3.630   0.674   0.067  1.00  0.00    -0.346 N 
ATOM     19  H1  UNL     1      -4.014   1.059   0.930  1.00  0.00     0.163 HD
BRANCH  18  20
HETATM   20  C6  UNL     1      -3.174   1.554  -0.964  1.00  0.00     0.257 C 
HETATM   21  N2  UNL     1      -2.563   2.638  -0.667  1.00  0.00    -0.270 N 
ATOM     22  H2  UNL     1      -2.418   2.845   0.321  1.00  0.00     0.190 HD
BRANCH  21  23
HETATM   23  N3  UNL     1      -2.088   3.543  -1.583  1.00  0.00    -0.342 N 
ATOM     24  H32 UNL     1      -2.241   3.320  -2.566  1.00  0.00     0.176 HD
ATOM     25  H31 UNL     1      -1.601   4.407  -1.346  1.00  0.00     0.176 HD
ENDBRANCH  21  23
BRANCH  20  26
HETATM   26  O3  UNL     1      -3.370   1.275  -2.303  1.00  0.00    -0.206 OA
BRANCH  26  27
HETATM   27  N4  UNL     1      -3.485   2.246  -3.268  1.00  0.00    -0.302 N 
ATOM     28  H42 UNL     1      -3.420   3.217  -2.964  1.00  0.00     0.184 HD
ATOM     29  H41 UNL     1      -3.630   2.040  -4.256  1.00  0.00     0.184 HD
ENDBRANCH  26  27
ENDBRANCH  20  26
ENDBRANCH  18  20
ENDBRANCH   9  18
ENDBRANCH   8   9
BRANCH   8  30
HETATM   30  O4  UNL     1      -1.790  -2.447  -0.364  1.00  0.00    -0.392 OA
ATOM     31  H4  UNL     1      -0.868  -2.674  -0.396  1.00  0.00     0.210 HD
ENDBRANCH   8  30
ENDBRANCH   7   8
ENDBRANCH   1   7
BRANCH   3  32
HETATM   32  O5  UNL     1       3.098  -2.613   1.697  1.00  0.00    -0.357 OA
ATOM     33  H5  UNL     1       4.023  -2.490   1.518  1.00  0.00     0.218 HD
ENDBRANCH   3  32
BRANCH   4  34
HETATM   34  C12 UNL     1       3.422   0.062   0.073  1.00  0.00     0.079 A 
HETATM   35  C13 UNL     1       3.331   1.263  -0.630  1.00  0.00     0.121 A 
HETATM   36  N6  UNL     1       4.397   1.900  -1.133  1.00  0.00    -0.346 N 
HETATM   37  C14 UNL     1       5.635   1.397  -0.977  1.00  0.00     0.175 A 
ATOM     38  H6  UNL     1       4.269   2.776  -1.640  1.00  0.00     0.167 HD
HETATM   39  C15 UNL     1       5.742   0.210  -0.283  1.00  0.00     0.124 A 
HETATM   40  N11 UNL     1       6.693   2.051  -1.487  1.00  0.00    -0.074 N 
HETATM   41  N7  UNL     1       4.661  -0.426   0.220  1.00  0.00    -0.347 N 
HETATM   42  C16 UNL     1       7.021  -0.310  -0.121  1.00  0.00     0.145 A 
ATOM     43  H7  UNL     1       4.792  -1.302   0.726  1.00  0.00     0.166 HD
HETATM   44  N9  UNL     1       8.049   0.363  -0.640  1.00  0.00    -0.173 N 
HETATM   45  C17 UNL     1       7.933   1.521  -1.316  1.00  0.00     0.700 A 
ATOM     46  H9  UNL     1       8.984  -0.025  -0.517  1.00  0.00     0.186 HD
BRANCH  42  47
HETATM   47  N8  UNL     1       7.168  -1.427   0.527  1.00  0.00    -0.383 N 
ATOM     48  H82 UNL     1       6.382  -1.942   0.924  1.00  0.00     0.157 HD
ATOM     49  H81 UNL     1       8.106  -1.809   0.646  1.00  0.00     0.157 HD
ENDBRANCH  42  47
BRANCH  45  50
HETATM   50  N10 UNL     1       8.961   2.139  -1.802  1.00  0.00    -0.233 N 
ATOM     51 2H10 UNL     1       9.891   1.741  -1.674  1.00  0.00     0.174 HD
ATOM     52 1H10 UNL     1       8.873   3.017  -2.314  1.00  0.00     0.174 HD
ENDBRANCH  45  50
BRANCH  40  53
HETATM   53  N12 UNL     1       6.587   3.246  -2.187  1.00  0.00    -0.322 N 
ATOM     54 2H12 UNL     1       5.657   3.644  -2.315  1.00  0.00     0.178 HD
ATOM     55 1H12 UNL     1       7.390   3.742  -2.574  1.00  0.00     0.178 HD
ENDBRANCH  40  53
ENDBRANCH   4  34
TORSDOF 19
