REMARK  8 active torsions:
REMARK  status: ('A' for Active; 'I' for Inactive)
REMARK    1  A    between atoms: C2_2  and  C3_3 
REMARK    2  A    between atoms: C3_3  and  C4_4 
REMARK    3  A    between atoms: C5_5  and  C6_6 
REMARK    4  A    between atoms: C10_11  and  C11_12 
REMARK    5  A    between atoms: C11_12  and  O2_14 
REMARK    6  A    between atoms: O2_14  and  C12_15 
REMARK    7  A    between atoms: C15_22  and  O4_24 
REMARK    8  A    between atoms: O4_24  and  C17_25 
ROOT
HETATM    1  C4  UNL     1      -0.608   0.002   1.164  1.00  0.00     0.062 C 
HETATM    2  C5  UNL     1       0.312  -0.590   0.094  1.00  0.00     0.057 C 
HETATM    3  C10 UNL     1       0.737   0.362  -0.930  1.00  0.00     0.169 C 
HETATM    4  C14 UNL     1       0.177   1.707  -0.914  1.00  0.00     0.129 C 
HETATM    5  N1  UNL     1       0.583   2.580  -1.761  1.00  0.00    -0.383 N 
ATOM      6  H11 UNL     1       0.191   3.522  -1.750  1.00  0.00     0.158 HD
ATOM      7  H12 UNL     1       1.299   2.329  -2.443  1.00  0.00     0.158 HD
HETATM    8  O3  UNL     1      -0.800   2.049   0.017  1.00  0.00    -0.301 OA
HETATM    9  C15 UNL     1      -1.559   0.979   0.536  1.00  0.00     0.181 C 
HETATM   10  C16 UNL     1      -2.613   1.471   1.449  1.00  0.00     0.080 C 
ENDROOT
BRANCH   2  11
HETATM   11  C6  UNL     1      -0.224  -1.873  -0.424  1.00  0.00    -0.012 A 
HETATM   12  C7  UNL     1      -0.817  -2.165  -1.619  1.00  0.00     0.015 A 
HETATM   13  C8  UNL     1      -1.229  -3.429  -1.828  1.00  0.00     0.008 A 
HETATM   14  C9  UNL     1      -1.025  -4.336  -0.829  1.00  0.00     0.050 A 
HETATM   15  S1  UNL     1      -0.265  -3.408   0.377  1.00  0.00    -0.106 SA
ENDBRANCH   2  11
BRANCH   1  16
HETATM   16  C3  UNL     1       0.276   0.624   2.208  1.00  0.00     0.037 C 
BRANCH  16  17
HETATM   17  C2  UNL     1      -0.324   1.262   3.356  1.00  0.00    -0.036 C 
HETATM   18  C1  UNL     1      -0.163   0.818   4.607  1.00  0.00     0.007 C 
ENDBRANCH  16  17
ENDBRANCH   1  16
BRANCH   3  19
HETATM   19  C11 UNL     1       2.245   0.517  -0.947  1.00  0.00     0.271 C 
HETATM   20  O1  UNL     1       2.832   1.576  -0.700  1.00  0.00    -0.264 OA
BRANCH  19  21
HETATM   21  O2  UNL     1       2.970  -0.614  -1.259  1.00  0.00    -0.321 OA
BRANCH  21  22
HETATM   22  C12 UNL     1       4.391  -0.529  -1.290  1.00  0.00     0.174 C 
HETATM   23  C13 UNL     1       4.880  -0.115   0.064  1.00  0.00     0.034 C 
ENDBRANCH  21  22
ENDBRANCH  19  21
ENDBRANCH   3  19
BRANCH   9  24
HETATM   24  O4  UNL     1      -2.208   0.382  -0.587  1.00  0.00    -0.283 OA
BRANCH  24  25
HETATM   25  C17 UNL     1      -3.093   1.137  -1.334  1.00  0.00     0.257 C 
HETATM   26  C18 UNL     1      -3.752   0.453  -2.497  1.00  0.00     0.126 C 
HETATM   27  O5  UNL     1      -3.390   2.320  -1.135  1.00  0.00    -0.266 OA
ENDBRANCH  24  25
ENDBRANCH   9  24
TORSDOF 8
