REMARK  4 active torsions:
REMARK  status: ('A' for Active; 'I' for Inactive)
REMARK       I    between atoms: N1_2  and  C2_4 
REMARK       I    between atoms: C2_4  and  N2_6 
REMARK    1  A    between atoms: N2_6  and  N3_8 
REMARK       I    between atoms: C3_10  and  N4_11 
REMARK       I    between atoms: C3_10  and  N5_19 
REMARK    2  A    between atoms: N4_11  and  C4_13 
REMARK    3  A    between atoms: C4_13  and  C5_14 
REMARK    4  A    between atoms: N5_19  and  S1_21 
ROOT
HETATM    1  N3  UNL     1      -0.885   1.052   0.048  1.00  0.00    -0.128 N 
ATOM      2  H3  UNL     1      -0.858   2.066  -0.056  1.00  0.00     0.205 HD
HETATM    3  C3  UNL     1       0.062   0.296  -0.393  1.00  0.00     0.702 C 
HETATM    4  N4  UNL     1       0.054  -1.115  -0.265  1.00  0.00    -0.218 N 
ATOM      5  H4  UNL     1      -0.514  -1.675  -0.901  1.00  0.00     0.178 HD
HETATM    6  N5  UNL     1       1.156   0.969  -1.038  1.00  0.00    -0.116 N 
ATOM      7  H5  UNL     1       1.744   0.437  -1.680  1.00  0.00     0.197 HD
ENDROOT
BRANCH   1   8
HETATM    8  N2  UNL     1      -1.963   0.395   0.684  1.00  0.00    -0.237 N 
HETATM    9  C2  UNL     1      -3.045  -0.139  -0.056  1.00  0.00     0.334 C 
HETATM   10  N1  UNL     1      -4.105  -0.791   0.627  1.00  0.00    -0.346 N 
HETATM   11  O1  UNL     1      -3.108  -0.060  -1.308  1.00  0.00    -0.246 OA
HETATM   12  C1  UNL     1      -5.244  -1.361  -0.063  1.00  0.00     0.151 C 
ATOM     13  H1  UNL     1      -4.063  -0.861   1.644  1.00  0.00     0.163 HD
ATOM     14  H2  UNL     1      -1.961   0.304   1.700  1.00  0.00     0.192 HD
ENDBRANCH   1   8
BRANCH   4  15
HETATM   15  C4  UNL     1       0.842  -1.771   0.757  1.00  0.00     0.203 C 
BRANCH  15  16
HETATM   16  C5  UNL     1       2.282  -1.458   0.572  1.00  0.00     0.070 A 
HETATM   17  C6  UNL     1       3.204  -2.177  -0.194  1.00  0.00     0.036 A 
HETATM   18  C7  UNL     1       4.426  -1.544  -0.094  1.00  0.00     0.027 A 
HETATM   19  C8  UNL     1       4.197  -0.464   0.731  1.00  0.00     0.142 A 
HETATM   20  O2  UNL     1       2.936  -0.454   1.094  1.00  0.00    -0.325 OA
ENDBRANCH  15  16
ENDBRANCH   4  15
BRANCH   6  21
HETATM   21  S1  UNL     1       1.516   2.611  -0.781  1.00  0.00     0.240 S 
HETATM   22  C9  UNL     1       0.181   3.682  -1.280  1.00  0.00     0.186 C 
HETATM   23  O3  UNL     1       2.778   2.957  -1.510  1.00  0.00    -0.206 OA
HETATM   24  O4  UNL     1       1.772   2.911   0.682  1.00  0.00    -0.206 OA
ENDBRANCH   6  21
TORSDOF 4
