REMARK  6 active torsions:
REMARK  status: ('A' for Active; 'I' for Inactive)
REMARK    1  A    between atoms: C2_2  and  C3_4 
REMARK    2  A    between atoms: C7_8  and  N1_9 
REMARK    3  A    between atoms: C7_8  and  C14_22 
REMARK       I    between atoms: N1_9  and  C8_11 
REMARK    4  A    between atoms: C8_11  and  C9_13 
REMARK    5  A    between atoms: C9_13  and  N2_14 
REMARK       I    between atoms: C14_22  and  N3_24 
REMARK    6  A    between atoms: N3_24  and  N4_26 
ROOT
HETATM    1  C3  UNL     1      -2.203  -0.904   0.699  1.00  0.00     0.092 C 
HETATM    2  C4  UNL     1      -1.705  -2.330   0.656  1.00  0.00     0.015 C 
HETATM    3  C5  UNL     1      -1.214  -2.520  -0.747  1.00  0.00     0.004 C 
HETATM    4  C6  UNL     1      -1.253  -1.166  -1.418  1.00  0.00     0.042 C 
HETATM    5  C7  UNL     1      -1.257  -0.252  -0.250  1.00  0.00     0.126 C 
ENDROOT
BRANCH   5   6
HETATM    6  N1  UNL     1       0.057  -0.297   0.387  1.00  0.00    -0.340 N 
HETATM    7  C8  UNL     1       1.224   0.195  -0.219  1.00  0.00     0.255 C 
HETATM    8  O2  UNL     1       1.160   0.698  -1.356  1.00  0.00    -0.271 OA
ATOM      9  H1  UNL     1       0.130  -0.706   1.318  1.00  0.00     0.163 HD
BRANCH   7  10
HETATM   10  C9  UNL     1       2.506   0.124   0.465  1.00  0.00     0.203 C 
HETATM   11  C10 UNL     1       3.637  -0.362  -0.406  1.00  0.00     0.049 C 
HETATM   12  C11 UNL     1       4.846   0.464  -0.029  1.00  0.00     0.003 C 
HETATM   13  C12 UNL     1       4.385   1.352   1.135  1.00  0.00     0.003 C 
HETATM   14  C13 UNL     1       2.935   1.575   0.730  1.00  0.00     0.049 C 
BRANCH  10  15
HETATM   15  N2  UNL     1       2.492  -0.522   1.739  1.00  0.00    -0.061 N 
ATOM     16  H23 UNL     1       1.798  -0.083   2.344  1.00  0.00     0.275 HD
ATOM     17  H22 UNL     1       2.092  -1.456   1.651  1.00  0.00     0.275 HD
ATOM     18  H21 UNL     1       3.391  -0.572   2.219  1.00  0.00     0.275 HD
ENDBRANCH  10  15
ENDBRANCH   7  10
ENDBRANCH   5   6
BRANCH   5  19
HETATM   19  C14 UNL     1      -1.524   1.158  -0.565  1.00  0.00     0.264 C 
HETATM   20  O3  UNL     1      -0.886   2.049   0.076  1.00  0.00    -0.269 OA
HETATM   21  N3  UNL     1      -2.441   1.603  -1.535  1.00  0.00    -0.274 N 
ATOM     22  H3  UNL     1      -2.969   0.916  -2.073  1.00  0.00     0.189 HD
BRANCH  21  23
HETATM   23  N4  UNL     1      -2.644   2.956  -1.777  1.00  0.00    -0.343 N 
ATOM     24  H42 UNL     1      -2.108   3.629  -1.230  1.00  0.00     0.176 HD
ATOM     25  H41 UNL     1      -3.309   3.279  -2.480  1.00  0.00     0.176 HD
ENDBRANCH  21  23
ENDBRANCH   5  19
BRANCH   1  26
HETATM   26  C2  UNL     1      -3.617  -0.911   0.423  1.00  0.00     0.130 C 
HETATM   27  C1  UNL     1      -4.595   0.185   0.419  1.00  0.00     0.091 C 
HETATM   28  O1  UNL     1      -4.136  -2.005   0.137  1.00  0.00    -0.298 OA
ENDBRANCH   1  26
TORSDOF 6
