REMARK  5 active torsions:
REMARK  status: ('A' for Active; 'I' for Inactive)
REMARK    1  A    between atoms: C2_2  and  C3_3 
REMARK    2  A    between atoms: C6_8  and  N2_9 
REMARK    3  A    between atoms: C11_16  and  C12_17 
REMARK    4  A    between atoms: C12_17  and  C13_18 
REMARK    5  A    between atoms: C14_19  and  O1_20 
ROOT
HETATM    1  C3  UNL     1      -0.293   1.889  -1.010  1.00  0.00    -0.012 A 
HETATM    2  C4  UNL     1       1.012   1.790  -1.521  1.00  0.00     0.031 A 
HETATM    3  C5  UNL     1       1.564   2.798  -2.464  1.00  0.00     0.069 C 
HETATM    4  N1  UNL     1       1.776   0.767  -1.156  1.00  0.00    -0.195 N 
ATOM      5  H1  UNL     1       2.724   0.695  -1.526  1.00  0.00     0.184 HD
HETATM    6  C6  UNL     1       1.327  -0.179  -0.307  1.00  0.00     0.680 A 
HETATM    7  N3  UNL     1       0.082  -0.070   0.169  1.00  0.00    -0.195 N 
ATOM      8  H3  UNL     1      -0.248  -0.791   0.811  1.00  0.00     0.184 HD
HETATM    9  C11 UNL     1      -0.760   0.923  -0.141  1.00  0.00     0.039 A 
ENDROOT
BRANCH   9  10
HETATM   10  C12 UNL     1      -2.131   1.038   0.381  1.00  0.00     0.107 C 
BRANCH  10  11
HETATM   11  C13 UNL     1      -2.644  -0.252   0.912  1.00  0.00     0.066 A 
HETATM   12  C14 UNL     1      -3.067  -1.253   0.066  1.00  0.00     0.156 A 
HETATM   13  N4  UNL     1      -3.525  -2.416   0.551  1.00  0.00    -0.288 N 
HETATM   14  C15 UNL     1      -3.604  -2.684   1.866  1.00  0.00     0.329 A 
ATOM     15  H4  UNL     1      -3.828  -3.132  -0.109  1.00  0.00     0.172 HD
HETATM   16  O2  UNL     1      -4.038  -3.784   2.307  1.00  0.00    -0.247 OA
HETATM   17  N5  UNL     1      -3.197  -1.721   2.713  1.00  0.00    -0.275 N 
HETATM   18  C16 UNL     1      -2.730  -0.539   2.272  1.00  0.00     0.260 A 
ATOM     19  H5  UNL     1      -3.244  -1.892   3.717  1.00  0.00     0.173 HD
HETATM   20  O3  UNL     1      -2.360   0.332   3.097  1.00  0.00    -0.267 OA
BRANCH  12  21
HETATM   21  O1  UNL     1      -3.002  -1.014  -1.318  1.00  0.00    -0.345 OA
ATOM     22  H1  UNL     1      -3.294  -1.705  -1.902  1.00  0.00     0.219 HD
ENDBRANCH  12  21
ENDBRANCH  10  11
ENDBRANCH   9  10
BRANCH   1  23
HETATM   23  C2  UNL     1      -1.063   3.070  -1.452  1.00  0.00     0.038 C 
HETATM   24  C1  UNL     1      -0.607   4.315  -0.674  1.00  0.00     0.010 C 
ENDBRANCH   1  23
BRANCH   6  25
HETATM   25  N2  UNL     1       2.220  -1.230   0.014  1.00  0.00    -0.218 N 
HETATM   26  C7  UNL     1       3.419  -1.617  -0.692  1.00  0.00     0.141 C 
HETATM   27  C8  UNL     1       4.296  -2.218   0.377  1.00  0.00     0.022 C 
HETATM   28  C9  UNL     1       3.317  -2.919   1.270  1.00  0.00     0.022 C 
HETATM   29  C10 UNL     1       2.064  -2.095   1.163  1.00  0.00     0.141 C 
ENDBRANCH   6  25
TORSDOF 5
