REMARK  8 active torsions:
REMARK  status: ('A' for Active; 'I' for Inactive)
REMARK    1  A    between atoms: N1_2  and  C2_4 
REMARK    2  A    between atoms: C3_7  and  S1_8 
REMARK    3  A    between atoms: S1_8  and  C4_9 
REMARK    4  A    between atoms: C4_9  and  C5_10 
REMARK    5  A    between atoms: C7_12  and  N3_13 
REMARK    6  A    between atoms: C8_18  and  C9_19 
REMARK    7  A    between atoms: C13_27  and  N7_28 
REMARK    8  A    between atoms: C16_31  and  N8_33 
ROOT
HETATM    1  C2  UNL     1       1.096  -0.789  -2.180  1.00  0.00     0.694 A 
HETATM    2  N2  UNL     1       0.291   0.233  -1.850  1.00  0.00    -0.169 N 
ATOM      3  H2  UNL     1      -0.498   0.455  -2.457  1.00  0.00     0.186 HD
HETATM    4  C3  UNL     1       0.489   0.972  -0.750  1.00  0.00     0.174 A 
HETATM    5  N6  UNL     1       1.553   0.644   0.033  1.00  0.00    -0.169 N 
ATOM      6  H6  UNL     1       1.720   1.195   0.875  1.00  0.00     0.186 HD
HETATM    7  C13 UNL     1       2.391  -0.362  -0.241  1.00  0.00     0.696 A 
HETATM    8  N9  UNL     1       2.132  -1.060  -1.361  1.00  0.00    -0.022 N 
ATOM      9  H9  UNL     1       2.751  -1.834  -1.603  1.00  0.00     0.203 HD
ENDROOT
BRANCH   4  10
HETATM   10  S1  UNL     1      -0.501   2.338  -0.257  1.00  0.00    -0.087 SA
BRANCH  10  11
HETATM   11  C4  UNL     1      -1.929   2.685  -1.260  1.00  0.00     0.139 C 
BRANCH  11  12
HETATM   12  C5  UNL     1      -3.007   1.687  -1.188  1.00  0.00     0.023 A 
HETATM   13  C6  UNL     1      -3.132   0.712  -2.115  1.00  0.00     0.073 A 
HETATM   14  C7  UNL     1      -4.161  -0.218  -1.990  1.00  0.00     0.101 A 
HETATM   15  N4  UNL     1      -5.030  -0.157  -0.960  1.00  0.00    -0.332 N 
HETATM   16  C8  UNL     1      -4.905   0.800  -0.055  1.00  0.00     0.087 A 
ATOM     17  H4  UNL     1      -5.779  -0.845  -0.879  1.00  0.00     0.168 HD
HETATM   18  N5  UNL     1      -3.920   1.696  -0.168  1.00  0.00    -0.348 N 
ATOM     19  H5  UNL     1      -3.845   2.424   0.542  1.00  0.00     0.167 HD
BRANCH  14  20
HETATM   20  N3  UNL     1      -4.266  -1.139  -2.879  1.00  0.00    -0.385 N 
ATOM     21  H32 UNL     1      -3.609  -1.185  -3.658  1.00  0.00     0.157 HD
ATOM     22  H31 UNL     1      -5.020  -1.820  -2.787  1.00  0.00     0.157 HD
ENDBRANCH  14  20
BRANCH  16  23
HETATM   23  C9  UNL     1      -5.841   0.902   1.093  1.00  0.00     0.053 A 
HETATM   24  C10 UNL     1      -7.283   0.947   0.621  1.00  0.00     0.012 A 
HETATM   25  C11 UNL     1      -7.559  -0.371   1.274  1.00  0.00     0.002 A 
HETATM   26  C12 UNL     1      -6.143  -0.372   1.806  1.00  0.00     0.012 A 
ENDBRANCH  16  23
ENDBRANCH  11  12
ENDBRANCH  10  11
ENDBRANCH   4  10
BRANCH   1  27
HETATM   27  N1  UNL     1       0.870  -1.456  -3.245  1.00  0.00    -0.230 N 
HETATM   28  C1  UNL     1      -0.228  -1.135  -4.097  1.00  0.00     0.165 C 
ATOM     29  H1  UNL     1       1.485  -2.232  -3.491  1.00  0.00     0.177 HD
ENDBRANCH   1  27
BRANCH   7  30
HETATM   30  N7  UNL     1       3.493  -0.693   0.579  1.00  0.00    -0.217 N 
HETATM   31  C14 UNL     1       4.350  -1.789   0.228  1.00  0.00     0.143 C 
HETATM   32  C15 UNL     1       5.788  -1.365   0.228  1.00  0.00     0.058 C 
HETATM   33  C16 UNL     1       6.135  -0.435   1.330  1.00  0.00     0.123 C 
HETATM   34  C17 UNL     1       6.612   0.870   0.692  1.00  0.00     0.046 C 
HETATM   35  C18 UNL     1       5.089  -0.190   2.359  1.00  0.00     0.058 C 
HETATM   36  C19 UNL     1       3.727   0.096   1.765  1.00  0.00     0.143 C 
BRANCH  33  37
HETATM   37  N8  UNL     1       7.316  -0.938   2.056  1.00  0.00    -0.071 N 
ATOM     38  H83 UNL     1       7.184  -1.893   2.388  1.00  0.00     0.275 HD
ATOM     39  H82 UNL     1       8.106  -1.106   1.433  1.00  0.00     0.275 HD
ATOM     40  H81 UNL     1       7.555  -0.298   2.814  1.00  0.00     0.275 HD
ENDBRANCH  33  37
ENDBRANCH   7  30
TORSDOF 8
