REMARK  7 active torsions:
REMARK  status: ('A' for Active; 'I' for Inactive)
REMARK    1  A    between atoms: N2_5  and  C3_6 
REMARK    2  A    between atoms: C4_10  and  C5_11 
REMARK    3  A    between atoms: C5_11  and  N4_12 
REMARK    4  A    between atoms: N4_12  and  C6_13 
REMARK    5  A    between atoms: C11_26  and  C12_27 
REMARK    6  A    between atoms: C12_27  and  N9_28 
REMARK    7  A    between atoms: C16_32  and  N10_33 
ROOT
HETATM    1  C1  UNL     1      -3.964  -3.739  -1.479  1.00  0.00     0.071 C 
HETATM    2  C2  UNL     1      -3.702  -2.905  -0.252  1.00  0.00     0.047 A 
HETATM    3  N1  UNL     1      -2.498  -2.336   0.040  1.00  0.00    -0.294 N 
ATOM      4  H1  UNL     1      -1.655  -2.413  -0.529  1.00  0.00     0.187 HD
HETATM    5  N2  UNL     1      -2.599  -1.648   1.213  1.00  0.00    -0.230 N 
HETATM    6  C16 UNL     1      -3.804  -1.770   1.658  1.00  0.00     0.144 A 
HETATM    7  C17 UNL     1      -4.554  -2.573   0.740  1.00  0.00     0.113 A 
HETATM    8  C18 UNL     1      -5.924  -2.926   0.860  1.00  0.00     0.105 C 
HETATM    9  N11 UNL     1      -7.046  -3.181   0.942  1.00  0.00    -0.191 NA
ENDROOT
BRANCH   6  10
HETATM   10  N10 UNL     1      -4.270  -1.284   2.754  1.00  0.00    -0.383 N 
ATOM     11 2H10 UNL     1      -3.736  -0.712   3.408  1.00  0.00     0.157 HD
ATOM     12 1H10 UNL     1      -5.223  -1.380   3.106  1.00  0.00     0.157 HD
ENDBRANCH   6  10
BRANCH   5  13
HETATM   13  C3  UNL     1      -1.357  -1.031   1.673  1.00  0.00     0.128 A 
HETATM   14  S1  UNL     1      -0.245  -1.665   2.797  1.00  0.00     0.007 SA
HETATM   15  N3  UNL     1       1.010  -0.616   2.499  1.00  0.00    -0.325 N 
HETATM   16  C4  UNL     1       0.583   0.232   1.543  1.00  0.00     0.060 A 
ATOM     17  H3  UNL     1       1.924  -0.615   2.951  1.00  0.00     0.174 HD
HETATM   18  C11 UNL     1      -0.684   0.041   1.080  1.00  0.00     0.037 A 
BRANCH  16  19
HETATM   19  C5  UNL     1       1.549   1.324   1.036  1.00  0.00     0.279 C 
BRANCH  19  20
HETATM   20  N4  UNL     1       2.582   0.718   0.366  1.00  0.00    -0.422 NA
BRANCH  20  21
HETATM   21  C6  UNL     1       3.528   0.268  -0.161  1.00  0.00     0.204 A 
HETATM   22  N5  UNL     1       3.484  -0.805  -1.016  1.00  0.00    -0.326 N 
HETATM   23  C7  UNL     1       4.548  -1.331  -1.598  1.00  0.00     0.184 A 
ATOM     24  H5  UNL     1       2.575  -1.222  -1.214  1.00  0.00     0.169 HD
HETATM   25  N6  UNL     1       5.827  -0.857  -1.409  1.00  0.00    -0.337 N 
HETATM   26  C8  UNL     1       5.931   0.221  -0.570  1.00  0.00     0.139 A 
ATOM     27  H6  UNL     1       6.639  -1.278  -1.861  1.00  0.00     0.168 HD
HETATM   28  N7  UNL     1       7.050   0.927  -0.199  1.00  0.00    -0.337 N 
HETATM   29  C10 UNL     1       4.828   0.770   0.036  1.00  0.00     0.136 A 
HETATM   30  C9  UNL     1       6.608   1.903   0.635  1.00  0.00     0.182 A 
ATOM     31  H7  UNL     1       8.012   0.754  -0.490  1.00  0.00     0.168 HD
HETATM   32  N8  UNL     1       5.266   1.790   0.775  1.00  0.00    -0.345 N 
ATOM     33  H8  UNL     1       4.681   2.391   1.355  1.00  0.00     0.167 HD
ENDBRANCH  20  21
ENDBRANCH  19  20
ENDBRANCH  16  19
BRANCH  18  34
HETATM   34  C12 UNL     1      -1.425   0.748  -0.018  1.00  0.00     0.076 C 
BRANCH  34  35
HETATM   35  N9  UNL     1      -0.856   1.892  -0.565  1.00  0.00    -0.292 NA
HETATM   36  C13 UNL     1      -1.416   2.356  -1.847  1.00  0.00     0.096 C 
HETATM   37  C14 UNL     1      -1.053   3.766  -1.364  1.00  0.00     0.030 C 
HETATM   38  C15 UNL     1      -1.523   3.161  -0.033  1.00  0.00     0.096 C 
ENDBRANCH  34  35
ENDBRANCH  18  34
ENDBRANCH   5  13
TORSDOF 7
