REMARK  7 active torsions:
REMARK  status: ('A' for Active; 'I' for Inactive)
REMARK    1  A    between atoms: C2_2  and  N1_4 
REMARK    2  A    between atoms: N1_4  and  C4_6 
REMARK    3  A    between atoms: C5_9  and  N3_10 
REMARK    4  A    between atoms: N3_10  and  C6_12 
REMARK    5  A    between atoms: C7_15  and  N5_16 
REMARK    6  A    between atoms: C14_29  and  N8_30 
REMARK    7  A    between atoms: N8_30  and  N9_32 
ROOT
HETATM    1  C4  UNL     1      -2.889  -1.666  -0.383  1.00  0.00     0.681 A 
HETATM    2  N2  UNL     1      -1.660  -1.449  -0.852  1.00  0.00    -0.177 N 
ATOM      3  H2  UNL     1      -1.042  -2.244  -1.015  1.00  0.00     0.186 HD
HETATM    4  C5  UNL     1      -1.215  -0.209  -1.115  1.00  0.00     0.126 A 
HETATM    5  C13 UNL     1      -2.027   0.880  -0.904  1.00  0.00     0.099 A 
HETATM    6  C14 UNL     1      -3.298   0.629  -0.417  1.00  0.00     0.135 A 
HETATM    7  N10 UNL     1      -3.718  -0.623  -0.162  1.00  0.00    -0.176 N 
ATOM      8  H10 UNL     1      -4.659  -0.784   0.197  1.00  0.00     0.186 HD
ENDROOT
BRANCH   4   9
HETATM    9  N3  UNL     1       0.091  -0.023  -1.609  1.00  0.00    -0.321 N 
ATOM     10  H3  UNL     1       0.228   0.439  -2.508  1.00  0.00     0.169 HD
BRANCH   9  11
HETATM   11  C6  UNL     1       1.138  -0.439  -0.924  1.00  0.00     0.182 A 
HETATM   12  N4  UNL     1       2.410  -0.348  -1.233  1.00  0.00    -0.168 N 
HETATM   13  C7  UNL     1       3.321  -0.824  -0.418  1.00  0.00     0.690 A 
ATOM     14  H4  UNL     1       2.691   0.094  -2.108  1.00  0.00     0.186 HD
HETATM   15  N7  UNL     1       2.877  -1.391   0.711  1.00  0.00    -0.157 N 
HETATM   16  S1  UNL     1       1.200  -1.232   0.584  1.00  0.00     0.039 SA
ATOM     17  H7  UNL     1       3.419  -1.815   1.464  1.00  0.00     0.193 HD
BRANCH  13  18
HETATM   18  N5  UNL     1       4.724  -0.727  -0.730  1.00  0.00    -0.193 N 
HETATM   19  C8  UNL     1       5.127  -0.036  -1.937  1.00  0.00     0.143 C 
HETATM   20  C9  UNL     1       5.956   1.193  -1.624  1.00  0.00     0.022 C 
HETATM   21  C10 UNL     1       5.871   1.555  -0.153  1.00  0.00     0.029 C 
HETATM   22  C11 UNL     1       6.861   0.676   0.578  1.00  0.00     0.234 C 
HETATM   23  N6  UNL     1       6.106  -0.397   1.201  1.00  0.00    -0.059 N 
HETATM   24  C12 UNL     1       5.613  -1.338   0.211  1.00  0.00     0.373 C 
ATOM     25  H62 UNL     1       6.650  -0.866   1.925  1.00  0.00     0.279 HD
ATOM     26  H61 UNL     1       5.350  -0.035   1.782  1.00  0.00     0.279 HD
ENDBRANCH  13  18
ENDBRANCH   9  11
ENDBRANCH   4   9
BRANCH   1  27
HETATM   27  N1  UNL     1      -3.284  -2.863  -0.142  1.00  0.00    -0.222 N 
ATOM     28  H1  UNL     1      -4.223  -3.035   0.217  1.00  0.00     0.178 HD
BRANCH  27  29
HETATM   29  C2  UNL     1      -2.382  -3.963  -0.385  1.00  0.00     0.091 C 
HETATM   30  C1  UNL     1      -1.808  -4.513   0.900  1.00  0.00     0.032 C 
HETATM   31  C3  UNL     1      -3.144  -5.033  -1.142  1.00  0.00     0.032 C 
ENDBRANCH  27  29
ENDBRANCH   1  27
BRANCH   6  32
HETATM   32  N8  UNL     1      -4.159   1.748  -0.192  1.00  0.00    -0.304 N 
ATOM     33  H8  UNL     1      -4.775   2.073  -0.937  1.00  0.00     0.182 HD
BRANCH  32  34
HETATM   34  N9  UNL     1      -4.160   2.404   1.054  1.00  0.00    -0.230 NA
HETATM   35  C15 UNL     1      -3.561   3.705   0.937  1.00  0.00     0.113 C 
HETATM   36  C16 UNL     1      -4.603   4.733   1.245  1.00  0.00     0.017 C 
HETATM   37  C17 UNL     1      -5.899   3.974   1.118  1.00  0.00     0.017 C 
HETATM   38  C18 UNL     1      -5.483   2.581   1.582  1.00  0.00     0.113 C 
ENDBRANCH  32  34
ENDBRANCH   6  32
TORSDOF 7
