REMARK  9 active torsions:
REMARK  status: ('A' for Active; 'I' for Inactive)
REMARK    1  A    between atoms: O1_2  and  C2_3 
REMARK    2  A    between atoms: C2_3  and  C3_5 
REMARK    3  A    between atoms: C5_9  and  N1_10 
REMARK    4  A    between atoms: N1_10  and  C6_12 
REMARK    5  A    between atoms: C6_12  and  O3_13 
REMARK    6  A    between atoms: C12_22  and  C13_23 
REMARK       I    between atoms: C13_23  and  N3_25 
REMARK    7  A    between atoms: N3_25  and  N4_27 
REMARK       I    between atoms: N4_27  and  C14_29 
REMARK    8  A    between atoms: C14_29  and  C15_31 
REMARK    9  A    between atoms: C21_37  and  C22_38 
ROOT
HETATM    1  C6  UNL     1       2.469  -0.148   0.288  1.00  0.00     0.149 C 
HETATM    2  C7  UNL     1       1.174  -0.506   0.798  1.00  0.00     0.021 C 
HETATM    3  C8  UNL     1       1.031  -1.643   1.480  1.00  0.00     0.016 C 
HETATM    4  C9  UNL     1       2.100  -2.619   1.781  1.00  0.00     0.069 C 
HETATM    5  N2  UNL     1      -0.248  -1.971   2.006  1.00  0.00    -0.366 N 
ATOM      6  H2  UNL     1      -0.328  -2.849   2.519  1.00  0.00     0.165 HD
HETATM    7  C10 UNL     1      -1.294  -1.272   1.894  1.00  0.00    -0.003 C 
HETATM    8  C11 UNL     1      -2.593  -1.759   2.506  1.00  0.00     0.064 C 
HETATM    9  C12 UNL     1      -1.249   0.009   1.234  1.00  0.00     0.134 C 
HETATM   10  C21 UNL     1      -0.015   0.344   0.535  1.00  0.00     0.057 C 
ENDROOT
BRANCH   1  11
HETATM   11  N1  UNL     1       3.702  -0.745   0.349  1.00  0.00    -0.329 N 
ATOM     12  H1  UNL     1       3.841  -1.631   0.835  1.00  0.00     0.168 HD
BRANCH  11  13
HETATM   13  C5  UNL     1       4.829  -0.045  -0.325  1.00  0.00     0.100 A 
HETATM   14  S1  UNL     1       4.809   1.440  -1.147  1.00  0.00    -0.057 SA
HETATM   15  C4  UNL     1       6.436   1.516  -1.626  1.00  0.00     0.094 A 
HETATM   16  C3  UNL     1       6.959   0.358  -1.122  1.00  0.00     0.092 A 
HETATM   17 CL1  UNL     1       7.277   2.779  -2.554  1.00  0.00    -0.075 Cl
HETATM   18  C23 UNL     1       6.121  -0.460  -0.441  1.00  0.00     0.086 A 
HETATM   19 CL3  UNL     1       6.698  -2.005   0.269  1.00  0.00    -0.080 Cl
BRANCH  16  20
HETATM   20  C2  UNL     1       8.405   0.054  -1.360  1.00  0.00     0.297 C 
HETATM   21  O2  UNL     1       8.736  -0.596  -2.386  1.00  0.00    -0.259 OA
BRANCH  20  22
HETATM   22  O1  UNL     1       9.390   0.459  -0.498  1.00  0.00    -0.322 OA
HETATM   23  C1  UNL     1      10.766   0.188  -0.692  1.00  0.00     0.213 C 
ENDBRANCH  20  22
ENDBRANCH  16  20
ENDBRANCH  11  13
ENDBRANCH   1  11
BRANCH   1  24
HETATM   24  O3  UNL     1       2.486   0.977  -0.378  1.00  0.00    -0.346 OA
ATOM     25  H3  UNL     1       1.632   1.391  -0.420  1.00  0.00     0.219 HD
ENDBRANCH   1  24
BRANCH  10  26
HETATM   26  C22 UNL     1       0.313   1.822   0.679  1.00  0.00     0.125 C 
HETATM   27 CL2  UNL     1       0.953   2.244   2.254  1.00  0.00    -0.130 Cl
ENDBRANCH  10  26
BRANCH   9  28
HETATM   28  C13 UNL     1      -2.477   0.303   0.417  1.00  0.00     0.246 C 
HETATM   29  O4  UNL     1      -2.487   0.302  -0.837  1.00  0.00    -0.271 OA
HETATM   30  N3  UNL     1      -3.668   0.594   1.108  1.00  0.00    -0.267 N 
ATOM     31  H3  UNL     1      -3.647   0.593   2.128  1.00  0.00     0.190 HD
BRANCH  30  32
HETATM   32  N4  UNL     1      -4.879   0.885   0.470  1.00  0.00    -0.263 N 
HETATM   33  C14 UNL     1      -5.542   0.034  -0.426  1.00  0.00     0.270 C 
HETATM   34  O5  UNL     1      -5.032  -1.079  -0.693  1.00  0.00    -0.266 OA
ATOM     35  H4  UNL     1      -5.313   1.786   0.672  1.00  0.00     0.190 HD
BRANCH  33  36
HETATM   36  C15 UNL     1      -6.799   0.411  -1.051  1.00  0.00     0.033 A 
HETATM   37  C16 UNL     1      -7.475   1.571  -0.784  1.00  0.00     0.017 A 
HETATM   38  C17 UNL     1      -8.663   1.861  -1.413  1.00  0.00     0.001 A 
HETATM   39  C18 UNL     1      -9.232   1.008  -2.336  1.00  0.00     0.000 A 
HETATM   40  C19 UNL     1      -8.563  -0.159  -2.611  1.00  0.00     0.001 A 
HETATM   41  C20 UNL     1      -7.388  -0.444  -1.989  1.00  0.00     0.017 A 
ENDBRANCH  33  36
ENDBRANCH  30  32
ENDBRANCH   9  28
TORSDOF 9
