REMARK  5 active torsions:
REMARK  status: ('A' for Active; 'I' for Inactive)
REMARK    1  A    between atoms: C5_10  and  C6_11 
REMARK    2  A    between atoms: C6_11  and  O1_12 
REMARK    3  A    between atoms: N4_17  and  C8_18 
REMARK    4  A    between atoms: C8_18  and  C9_19 
REMARK    5  A    between atoms: C10_20  and  N5_21 
ROOT
HETATM    1  N1  UNL     1      -0.223   3.278   0.797  1.00  0.00    -0.388 N 
ATOM      2  H11 UNL     1      -0.084   3.241   1.807  1.00  0.00     0.157 HD
ATOM      3  H12 UNL     1      -0.069   4.029   0.124  1.00  0.00     0.157 HD
HETATM    4  C1  UNL     1      -0.637   2.131   0.282  1.00  0.00     0.090 C 
HETATM    5  C2  UNL     1      -0.841   2.186  -1.203  1.00  0.00     0.197 C 
HETATM    6  N2  UNL     1      -1.045   0.889  -1.787  1.00  0.00    -0.370 N 
ATOM      7  H2  UNL     1      -1.217   0.679  -2.770  1.00  0.00     0.161 HD
HETATM    8  C3  UNL     1      -0.958  -0.054  -0.703  1.00  0.00     0.098 C 
HETATM    9  C4  UNL     1      -2.093  -0.598  -0.208  1.00  0.00     0.032 C 
HETATM   10  C5  UNL     1      -1.577  -1.401   0.955  1.00  0.00     0.078 C 
HETATM   11  C7  UNL     1      -0.454  -0.349   1.316  1.00  0.00     0.197 C 
HETATM   12  N3  UNL     1      -0.859   1.050   1.251  1.00  0.00    -0.357 N 
ATOM     13  H3  UNL     1      -1.418   1.341   2.053  1.00  0.00     0.163 HD
HETATM   14  N4  UNL     1       0.198  -0.561  -0.066  1.00  0.00    -0.335 N 
ENDROOT
BRANCH  14  15
HETATM   15  C8  UNL     1       1.526  -1.081  -0.061  1.00  0.00     0.222 C 
BRANCH  15  16
HETATM   16  C9  UNL     1       2.508  -0.034  -0.407  1.00  0.00    -0.064 C 
HETATM   17  C10 UNL     1       3.323   0.821  -0.715  1.00  0.00     0.005 C 
BRANCH  17  18
HETATM   18  N5  UNL     1       4.272   1.784  -1.086  1.00  0.00    -0.359 N 
ATOM     19  H52 UNL     1       4.126   0.808  -1.343  1.00  0.00     0.166 HD
ATOM     20  H51 UNL     1       4.953   2.498  -1.343  1.00  0.00     0.166 HD
ENDBRANCH  17  18
ENDBRANCH  15  16
ENDBRANCH  14  15
BRANCH  10  21
HETATM   21  C6  UNL     1      -1.073  -2.713   0.732  1.00  0.00     0.176 C 
BRANCH  21  22
HETATM   22  O1  UNL     1      -2.063  -3.594   0.186  1.00  0.00    -0.400 OA
ATOM     23  H1  UNL     1      -1.727  -4.470   0.037  1.00  0.00     0.209 HD
ENDBRANCH  21  22
ENDBRANCH  10  21
TORSDOF 5
