REMARK  13 active torsions:
REMARK  status: ('A' for Active; 'I' for Inactive)
REMARK    1  A    between atoms: C3_3  and  N1_4 
REMARK    2  A    between atoms: N1_4  and  C4_5 
REMARK    3  A    between atoms: N1_4  and  C8_9 
REMARK    4  A    between atoms: C4_5  and  C5_6 
REMARK    5  A    between atoms: C10_12  and  N2_13 
REMARK    6  A    between atoms: N2_13  and  C11_14 
REMARK    7  A    between atoms: N2_13  and  C18_26 
REMARK    8  A    between atoms: C11_14  and  C12_15 
REMARK    9  A    between atoms: C15_19  and  O1_20 
REMARK   10  A    between atoms: C17_23  and  O2_24 
REMARK   11  A    between atoms: C25_34  and  O3_35 
REMARK   12  A    between atoms: C27_37  and  O4_38 
REMARK   13  A    between atoms: C30_41  and  O5_42 
ROOT
HETATM    1  C1  UNL     1       5.228  -3.143  -2.251  1.00  0.00     0.018 C 
HETATM    2  C2  UNL     1       4.272  -2.914  -1.570  1.00  0.00    -0.072 C 
HETATM    3  C3  UNL     1       3.101  -2.634  -0.797  1.00  0.00     0.160 C 
ENDROOT
BRANCH   3   4
HETATM    4  N1  UNL     1       3.070  -1.568   0.130  1.00  0.00    -0.325 N 
BRANCH   4   5
HETATM    5  C4  UNL     1       3.708  -1.463   1.378  1.00  0.00     0.075 C 
BRANCH   5   6
HETATM    6  C5  UNL     1       5.151  -1.384   1.598  1.00  0.00     0.025 A 
HETATM    7  C6  UNL     1       6.166  -2.372   1.272  1.00  0.00     0.010 A 
HETATM    8  C7  UNL     1       5.820  -2.092   2.732  1.00  0.00     0.010 A 
ENDBRANCH   5   6
ENDBRANCH   4   5
BRANCH   4   9
HETATM    9  C8  UNL     1       2.157  -0.485  -0.215  1.00  0.00     0.086 A 
HETATM   10  C9  UNL     1       0.850  -0.595   0.256  1.00  0.00     0.171 A 
HETATM   11  F1  UNL     1       0.561  -1.674   0.987  1.00  0.00    -0.201 F 
HETATM   12  C10 UNL     1      -0.118   0.379  -0.027  1.00  0.00     0.090 A 
HETATM   13  C24 UNL     1       0.228   1.437  -0.770  1.00  0.00     0.044 A 
HETATM   14  C25 UNL     1      -0.637   2.396  -1.168  1.00  0.00     0.115 A 
HETATM   15  C31 UNL     1       1.566   1.551  -1.257  1.00  0.00     0.021 A 
HETATM   16  C27 UNL     1      -0.276   3.454  -2.016  1.00  0.00     0.105 A 
HETATM   17  C29 UNL     1       0.998   3.540  -2.465  1.00  0.00     0.077 A 
HETATM   18  C30 UNL     1       1.917   2.582  -2.078  1.00  0.00     0.080 A 
HETATM   19  C32 UNL     1       2.515   0.584  -0.967  1.00  0.00    -0.018 A 
HETATM   20  C33 UNL     1       3.900   0.781  -1.464  1.00  0.00     0.052 C 
BRANCH  12  21
HETATM   21  N2  UNL     1      -1.448   0.090   0.496  1.00  0.00    -0.348 N 
BRANCH  21  22
HETATM   22  C11 UNL     1      -1.580   0.477   1.833  1.00  0.00     0.106 C 
BRANCH  22  23
HETATM   23  C12 UNL     1      -2.767   0.634   2.592  1.00  0.00     0.014 A 
HETATM   24  C13 UNL     1      -4.070   0.548   2.213  1.00  0.00     0.042 A 
HETATM   25  C14 UNL     1      -5.143   0.772   3.092  1.00  0.00     0.068 A 
HETATM   26 CL1  UNL     1      -6.803   0.634   2.517  1.00  0.00    -0.081 Cl
HETATM   27  C15 UNL     1      -4.898   1.091   4.386  1.00  0.00     0.090 A 
HETATM   28  C16 UNL     1      -3.601   1.192   4.818  1.00  0.00     0.075 A 
HETATM   29  C17 UNL     1      -2.558   0.971   3.952  1.00  0.00     0.080 A 
BRANCH  27  30
HETATM   30  O1  UNL     1      -5.928   1.323   5.298  1.00  0.00    -0.359 OA
ATOM     31  H1  UNL     1      -5.756   1.547   6.205  1.00  0.00     0.217 HD
ENDBRANCH  27  30
BRANCH  29  32
HETATM   32  O2  UNL     1      -1.280   1.097   4.483  1.00  0.00    -0.360 OA
ATOM     33  H2  UNL     1      -1.140   1.323   5.395  1.00  0.00     0.217 HD
ENDBRANCH  29  32
ENDBRANCH  22  23
ENDBRANCH  21  22
BRANCH  21  34
HETATM   34  C18 UNL     1      -2.311  -0.620  -0.391  1.00  0.00     0.093 C 
HETATM   35  C19 UNL     1      -2.756  -1.960   0.205  1.00  0.00     0.056 C 
HETATM   36  C20 UNL     1      -2.519  -3.129  -0.716  1.00  0.00     0.274 C 
HETATM   37  N3  UNL     1      -3.111  -2.896  -2.016  1.00  0.00     0.084 N 
HETATM   38  C21 UNL     1      -2.828  -3.998  -2.878  1.00  0.00     0.309 C 
HETATM   39  C22 UNL     1      -2.726  -1.654  -2.596  1.00  0.00     0.274 C 
HETATM   40  C23 UNL     1      -1.633  -1.046  -1.692  1.00  0.00     0.056 C 
ENDBRANCH  21  34
ENDBRANCH  12  21
BRANCH  14  41
HETATM   41  O3  UNL     1      -1.986   2.436  -0.757  1.00  0.00    -0.352 OA
HETATM   42  C26 UNL     1      -2.193   3.509   0.205  1.00  0.00     0.210 C 
ENDBRANCH  14  41
BRANCH  16  43
HETATM   43  O4  UNL     1      -1.226   4.397  -2.385  1.00  0.00    -0.353 OA
HETATM   44  C28 UNL     1      -0.849   5.452  -3.239  1.00  0.00     0.210 C 
ENDBRANCH  16  43
BRANCH  18  45
HETATM   45  O5  UNL     1       3.180   2.746  -2.578  1.00  0.00    -0.360 OA
ATOM     46  H5  UNL     1       3.811   2.088  -2.312  1.00  0.00     0.217 HD
ENDBRANCH  18  45
ENDBRANCH   4   9
ENDBRANCH   3   4
TORSDOF 13
