REMARK  9 active torsions:
REMARK  status: ('A' for Active; 'I' for Inactive)
REMARK    1  A    between atoms: O1_2  and  C2_3 
REMARK    2  A    between atoms: C2_3  and  C7_14 
REMARK    3  A    between atoms: N1_4  and  C3_6 
REMARK    4  A    between atoms: C3_6  and  C4_10 
REMARK    5  A    between atoms: C8_18  and  C9_19 
REMARK    6  A    between atoms: C8_18  and  C16_29 
REMARK    7  A    between atoms: C9_19  and  C10_20 
REMARK    8  A    between atoms: C13_23  and  O3_24 
REMARK    9  A    between atoms: C16_29  and  N4_30 
ROOT
HETATM    1  C7  UNL     1       1.114   0.280   0.328  1.00  0.00     0.086 C 
HETATM    2  N3  UNL     1       1.205  -0.710  -0.463  1.00  0.00    -0.266 N 
ATOM      3  H3  UNL     1       2.055  -0.931  -0.982  1.00  0.00     0.194 HD
HETATM    4  O2  UNL     1       0.059  -1.454  -0.556  1.00  0.00    -0.266 OA
HETATM    5  C8  UNL     1      -1.030  -0.649  -0.069  1.00  0.00     0.124 C 
HETATM    6  C19 UNL     1      -0.280   0.241   0.877  1.00  0.00     0.106 C 
ENDROOT
BRANCH   5   7
HETATM    7  C9  UNL     1      -1.676   0.043  -1.214  1.00  0.00     0.081 C 
BRANCH   7   8
HETATM    8  C10 UNL     1      -2.810   0.920  -0.888  1.00  0.00    -0.053 A 
HETATM    9  C11 UNL     1      -4.129   0.505  -0.820  1.00  0.00     0.010 A 
HETATM   10  C12 UNL     1      -5.145   1.385  -0.512  1.00  0.00     0.039 A 
HETATM   11  C13 UNL     1      -4.890   2.714  -0.258  1.00  0.00     0.087 A 
HETATM   12  C14 UNL     1      -3.590   3.150  -0.319  1.00  0.00     0.067 A 
HETATM   13 CL1  UNL     1      -3.248   4.835   0.001  1.00  0.00    -0.081 Cl
HETATM   14  C15 UNL     1      -2.602   2.259  -0.627  1.00  0.00     0.034 A 
BRANCH  11  15
HETATM   15  O3  UNL     1      -5.914   3.615   0.056  1.00  0.00    -0.359 OA
ATOM     16  H3  UNL     1      -5.738   4.532   0.231  1.00  0.00     0.217 HD
ENDBRANCH  11  15
ENDBRANCH   7   8
ENDBRANCH   5   7
BRANCH   5  17
HETATM   17  C16 UNL     1      -1.932  -1.538   0.713  1.00  0.00     0.312 C 
BRANCH  17  18
HETATM   18  N4  UNL     1      -2.510  -2.641   0.021  1.00  0.00     0.083 N 
HETATM   19  C17 UNL     1      -3.416  -3.392   0.892  1.00  0.00     0.309 C 
HETATM   20  C18 UNL     1      -1.571  -3.559  -0.563  1.00  0.00     0.309 C 
ENDBRANCH  17  18
ENDBRANCH   5  17
BRANCH   1  21
HETATM   21  C2  UNL     1       2.130   1.276   0.666  1.00  0.00     0.168 C 
HETATM   22  N1  UNL     1       3.300   1.326   0.220  1.00  0.00    -0.323 N 
ATOM     23  H1  UNL     1       3.844   2.107   0.588  1.00  0.00     0.169 HD
BRANCH  21  24
HETATM   24  O1  UNL     1       1.779   2.294   1.585  1.00  0.00    -0.339 OA
HETATM   25  C1  UNL     1       2.740   3.298   1.937  1.00  0.00     0.211 C 
ENDBRANCH  21  24
BRANCH  22  26
HETATM   26  C3  UNL     1       4.003   0.535  -0.672  1.00  0.00     0.116 C 
HETATM   27  N2  UNL     1       3.675   0.502  -1.918  1.00  0.00    -0.386 N 
ATOM     28  H22 UNL     1       2.876   1.071  -2.198  1.00  0.00     0.157 HD
ATOM     29  H21 UNL     1       4.193  -0.081  -2.575  1.00  0.00     0.157 HD
BRANCH  26  30
HETATM   30  C4  UNL     1       5.178  -0.302  -0.260  1.00  0.00     0.153 C 
HETATM   31  C5  UNL     1       5.722  -1.097  -1.421  1.00  0.00     0.060 C 
HETATM   32  C6  UNL     1       4.788  -1.257   0.828  1.00  0.00     0.060 C 
HETATM   33  F1  UNL     1       6.215   0.535   0.174  1.00  0.00    -0.235 F 
ENDBRANCH  26  30
ENDBRANCH  22  26
ENDBRANCH   1  21
TORSDOF 9
