REMARK  4 active torsions:
REMARK  status: ('A' for Active; 'I' for Inactive)
REMARK    1  A    between atoms: C5_8  and  N3_9 
REMARK    2  A    between atoms: N3_9  and  C6_11 
REMARK    3  A    between atoms: C6_11  and  C7_12 
REMARK    4  A    between atoms: C7_12  and  N4_13 
ROOT
HETATM    1  C1  UNL     1      -4.861   0.730   0.630  1.00  0.00     0.154 C 
HETATM    2  N1  UNL     1      -3.536   0.213   0.358  1.00  0.00    -0.368 N 
HETATM    3  C2  UNL     1      -3.423  -1.061  -0.050  1.00  0.00     0.092 A 
HETATM    4  C3  UNL     1      -2.196  -1.590  -0.317  1.00  0.00     0.049 A 
HETATM    5  C4  UNL     1      -1.081  -0.784  -0.157  1.00  0.00     0.079 A 
HETATM    6  N2  UNL     1       0.229  -1.018  -0.339  1.00  0.00    -0.190 N 
ATOM      7  H2  UNL     1       0.624  -1.906  -0.650  1.00  0.00     0.184 HD
HETATM    8  C5  UNL     1       0.945   0.081  -0.054  1.00  0.00     0.679 A 
HETATM    9  N5  UNL     1       0.054   1.020   0.313  1.00  0.00    -0.188 N 
ATOM     10  H5  UNL     1       0.288   1.973   0.591  1.00  0.00     0.184 HD
HETATM   11  C8  UNL     1      -1.198   0.511   0.258  1.00  0.00     0.092 A 
HETATM   12  C9  UNL     1      -2.463   1.006   0.518  1.00  0.00     0.122 A 
ENDROOT
BRANCH   8  13
HETATM   13  N3  UNL     1       2.205   0.286  -0.095  1.00  0.00    -0.224 N 
ATOM     14  H3  UNL     1       2.540   1.213   0.167  1.00  0.00     0.177 HD
BRANCH  13  15
HETATM   15  C6  UNL     1       3.187  -0.691  -0.482  1.00  0.00     0.165 C 
BRANCH  15  16
HETATM   16  C7  UNL     1       4.499   0.070  -0.700  1.00  0.00     0.249 C 
BRANCH  16  17
HETATM   17  N4  UNL     1       4.917   0.741   0.501  1.00  0.00    -0.078 N 
ATOM     18  H43 UNL     1       4.185   1.352   0.863  1.00  0.00     0.274 HD
ATOM     19  H42 UNL     1       4.985   0.095   1.287  1.00  0.00     0.274 HD
ATOM     20  H41 UNL     1       5.790   1.248   0.356  1.00  0.00     0.274 HD
ENDBRANCH  16  17
ENDBRANCH  15  16
ENDBRANCH  13  15
ENDBRANCH   8  13
TORSDOF 4
