REMARK  2 active torsions:
REMARK  status: ('A' for Active; 'I' for Inactive)
REMARK    1  A    between atoms: C2_2  and  C4_4 
REMARK    2  A    between atoms: C12_12  and  O1_13 
ROOT
HETATM    1  C4  UNL     1       1.846  -0.309   0.210  1.00  0.00     0.128 C 
HETATM    2  C5  UNL     1       1.203  -0.579  -1.102  1.00  0.00     0.041 C 
HETATM    3  C6  UNL     1      -0.254  -0.793  -1.150  1.00  0.00     0.032 C 
HETATM    4  C7  UNL     1      -0.906   0.329  -0.326  1.00  0.00     0.077 C 
HETATM    5  C8  UNL     1      -2.290   0.396  -0.832  1.00  0.00     0.039 C 
HETATM    6  C9  UNL     1      -2.824  -0.824  -1.493  1.00  0.00     0.009 C 
HETATM    7  C10 UNL     1      -2.203  -2.124  -1.166  1.00  0.00     0.002 A 
HETATM    8  C11 UNL     1      -1.729  -2.354   0.299  1.00  0.00     0.028 A 
HETATM    9  C12 UNL     1      -2.476  -1.557   1.242  1.00  0.00     0.124 C 
HETATM   10  C13 UNL     1      -1.885  -0.289   1.812  1.00  0.00     0.044 C 
HETATM   11  C14 UNL     1      -0.621  -0.077   1.055  1.00  0.00     0.079 C 
HETATM   12  C15 UNL     1       0.391   0.856   1.645  1.00  0.00     0.271 C 
HETATM   13  O2  UNL     1       1.511   0.831   0.859  1.00  0.00    -0.355 OA
HETATM   14  O3  UNL     1      -0.135   2.127   1.639  1.00  0.00    -0.326 OA
HETATM   15  C16 UNL     1      -0.359   2.505   0.318  1.00  0.00     0.161 C 
HETATM   16  C17 UNL     1      -1.660   3.252   0.286  1.00  0.00     0.078 C 
HETATM   17  C18 UNL     1       0.738   3.537   0.001  1.00  0.00     0.078 C 
HETATM   18  O4  UNL     1      -0.224   1.513  -0.598  1.00  0.00    -0.344 OA
HETATM   19  C19 UNL     1      -0.784  -2.063  -0.661  1.00  0.00    -0.027 A 
HETATM   20  C20 UNL     1       0.141  -3.204  -1.154  1.00  0.00     0.016 C 
ENDROOT
BRANCH   1  21
HETATM   21  C2  UNL     1       3.352  -0.165  -0.125  1.00  0.00     0.006 C 
HETATM   22  C1  UNL     1       4.059   0.110   1.161  1.00  0.00     0.012 C 
HETATM   23  C3  UNL     1       3.597   0.813  -1.209  1.00  0.00     0.012 C 
ENDBRANCH   1  21
BRANCH   9  24
HETATM   24  O1  UNL     1      -2.855  -2.297   2.406  1.00  0.00    -0.395 OA
ATOM     25  H1  UNL     1      -3.347  -1.772   3.027  1.00  0.00     0.210 HD
ENDBRANCH   9  24
TORSDOF 2
