REMARK  2 active torsions:
REMARK  status: ('A' for Active; 'I' for Inactive)
REMARK    1  A    between atoms: C7_8  and  C8_9 
REMARK    2  A    between atoms: C8_9  and  O2_12 
ROOT
HETATM    1  C1  UNL     1      -4.168   1.700   0.589  1.00  0.00     0.017 C 
HETATM    2  C2  UNL     1      -3.120   0.922   0.634  1.00  0.00    -0.057 C 
HETATM    3  C3  UNL     1      -1.811   1.463   1.033  1.00  0.00     0.044 C 
HETATM    4  C4  UNL     1      -0.627   0.758   0.546  1.00  0.00     0.032 C 
HETATM    5  C5  UNL     1      -0.433   0.837  -0.976  1.00  0.00     0.029 C 
HETATM    6  C6  UNL     1       0.644  -0.169  -1.190  1.00  0.00     0.134 C 
HETATM    7  O1  UNL     1       1.880   0.376  -1.459  1.00  0.00    -0.377 OA
HETATM    8  C7  UNL     1       2.504   0.680  -0.277  1.00  0.00     0.156 C 
HETATM    9  C11 UNL     1       1.978  -0.266   0.784  1.00  0.00     0.045 C 
HETATM   10  C12 UNL     1       0.860  -0.924   0.141  1.00  0.00     0.053 C 
HETATM   11  C13 UNL     1      -0.531  -0.713   0.681  1.00  0.00     0.074 C 
HETATM   12  C14 UNL     1      -0.893  -1.304   1.954  1.00  0.00     0.065 C 
HETATM   13  C15 UNL     1      -2.261  -1.964   1.839  1.00  0.00     0.171 C 
HETATM   14  O3  UNL     1      -3.269  -1.228   1.395  1.00  0.00    -0.378 OA
HETATM   15  C16 UNL     1      -3.288  -0.531   0.269  1.00  0.00     0.184 C 
HETATM   16  C17 UNL     1      -2.313  -0.780  -0.802  1.00  0.00     0.096 C 
HETATM   17  C18 UNL     1      -2.785  -1.262  -2.125  1.00  0.00     0.042 C 
HETATM   18  C19 UNL     1      -1.902  -0.205  -2.801  1.00  0.00     0.011 C 
HETATM   19  C20 UNL     1      -1.794   0.481  -1.509  1.00  0.00     0.030 C 
HETATM   20  O4  UNL     1      -1.232  -1.427  -0.335  1.00  0.00    -0.365 OA
ENDROOT
BRANCH   8  21
HETATM   21  C8  UNL     1       4.026   0.599  -0.388  1.00  0.00     0.076 C 
HETATM   22  C9  UNL     1       4.513  -0.790  -0.612  1.00  0.00     0.048 C 
HETATM   23  C10 UNL     1       4.555   1.142   0.947  1.00  0.00     0.048 C 
BRANCH  21  24
HETATM   24  O2  UNL     1       4.419   1.506  -1.356  1.00  0.00    -0.388 OA
ATOM     25  H2  UNL     1       5.365   1.456  -1.425  1.00  0.00     0.210 HD
ENDBRANCH  21  24
ENDBRANCH   8  21
TORSDOF 2
