REMARK  13 active torsions:
REMARK  status: ('A' for Active; 'I' for Inactive)
REMARK    1  A    between atoms: C2_2  and  N1_3 
REMARK    2  A    between atoms: N1_3  and  C3_4 
REMARK       I    between atoms: N1_3  and  C5_6 
REMARK    3  A    between atoms: C5_6  and  C6_8 
REMARK    4  A    between atoms: C6_8  and  C7_9 
REMARK    5  A    between atoms: C12_14  and  C13_15 
REMARK    6  A    between atoms: C13_15  and  C14_16 
REMARK    7  A    between atoms: C13_15  and  N2_20 
REMARK    8  A    between atoms: C14_16  and  C15_17 
REMARK       I    between atoms: N2_20  and  C18_22 
REMARK    9  A    between atoms: C18_22  and  C19_24 
REMARK       I    between atoms: C19_24  and  N3_26 
REMARK   10  A    between atoms: N4_29  and  C22_30 
REMARK   11  A    between atoms: N5_38  and  C30_39 
REMARK   12  A    between atoms: C30_39  and  O4_40 
REMARK   13  A    between atoms: C30_39  and  C31_42 
ROOT
HETATM    1  C7  UNL     1      -4.536   1.498  -0.318  1.00  0.00     0.234 C 
HETATM    2  C8  UNL     1      -4.669   1.534  -1.793  1.00  0.00     0.038 C 
HETATM    3  C9  UNL     1      -3.283   1.097  -2.281  1.00  0.00     0.038 C 
HETATM    4  C10 UNL     1      -2.533   0.817  -1.044  1.00  0.00     0.228 C 
HETATM    5  C11 UNL     1      -1.495  -0.281  -1.118  1.00  0.00     0.074 C 
HETATM    6  C12 UNL     1      -1.594  -0.966   0.245  1.00  0.00     0.253 C 
HETATM    7  N5  UNL     1      -2.783  -1.702   0.378  1.00  0.00     0.159 N 
HETATM    8  C33 UNL     1      -3.873  -0.697   0.328  1.00  0.00     0.548 C 
HETATM    9  N6  UNL     1      -3.468   0.611   0.023  1.00  0.00     0.126 N 
ENDROOT
BRANCH   6  10
HETATM   10  C13 UNL     1      -0.283  -1.521   0.627  1.00  0.00     0.118 C 
BRANCH  10  11
HETATM   11  C14 UNL     1      -0.275  -2.151   2.012  1.00  0.00     0.031 C 
BRANCH  11  12
HETATM   12  C15 UNL     1       1.057  -2.738   2.390  1.00  0.00    -0.021 C 
HETATM   13  C16 UNL     1       1.533  -3.826   1.485  1.00  0.00     0.009 C 
HETATM   14  C17 UNL     1       1.044  -3.275   3.809  1.00  0.00     0.009 C 
ENDBRANCH  11  12
ENDBRANCH  10  11
BRANCH  10  15
HETATM   15  N2  UNL     1       0.622  -0.365   0.783  1.00  0.00    -0.346 N 
HETATM   16  C18 UNL     1       1.821  -0.188   0.096  1.00  0.00     0.309 C 
HETATM   17  O2  UNL     1       2.205  -1.044  -0.732  1.00  0.00    -0.262 OA
ATOM     18  H2  UNL     1       0.348   0.361   1.445  1.00  0.00     0.163 HD
BRANCH  16  19
HETATM   19  C19 UNL     1       2.638   0.981   0.327  1.00  0.00     0.311 C 
HETATM   20  O3  UNL     1       2.230   1.854   1.165  1.00  0.00    -0.262 OA
HETATM   21  N3  UNL     1       3.871   1.232  -0.313  1.00  0.00    -0.341 N 
HETATM   22  C20 UNL     1       4.623   2.440  -0.013  1.00  0.00     0.156 C 
HETATM   23  C29 UNL     1       4.425   0.315  -1.268  1.00  0.00     0.156 C 
HETATM   24  C21 UNL     1       6.061   2.112   0.329  1.00  0.00     0.292 C 
HETATM   25  N4  UNL     1       6.581   1.052  -0.522  1.00  0.00     0.096 N 
HETATM   26  C28 UNL     1       5.799   0.855  -1.690  1.00  0.00     0.292 C 
BRANCH  25  27
HETATM   27  C22 UNL     1       7.995   1.179  -0.711  1.00  0.00     0.223 C 
HETATM   28  C23 UNL     1       8.712   1.037   0.619  1.00  0.00     0.036 C 
HETATM   29  C24 UNL     1      10.140   1.517   0.476  1.00  0.00     0.002 C 
HETATM   30  C25 UNL     1      10.835   0.654  -0.558  1.00  0.00     0.000 C 
HETATM   31  C26 UNL     1      10.082   0.585  -1.842  1.00  0.00     0.002 C 
HETATM   32  C27 UNL     1       8.613   0.233  -1.684  1.00  0.00     0.036 C 
ENDBRANCH  25  27
ENDBRANCH  16  19
ENDBRANCH  10  15
ENDBRANCH   6  10
BRANCH   7  33
HETATM   33  C30 UNL     1      -3.140  -2.766  -0.458  1.00  0.00     0.429 C 
BRANCH  33  34
HETATM   34  O4  UNL     1      -3.393  -2.396  -1.790  1.00  0.00    -0.362 OA
ATOM     35  H4  UNL     1      -3.635  -3.118  -2.358  1.00  0.00     0.212 HD
ENDBRANCH  33  34
BRANCH  33  36
HETATM   36  C31 UNL     1      -2.327  -3.984  -0.500  1.00  0.00     0.181 C 
HETATM   37  C32 UNL     1      -1.598  -4.445  -1.736  1.00  0.00     0.096 C 
HETATM   38  O5  UNL     1      -2.207  -4.678   0.475  1.00  0.00    -0.294 OA
ENDBRANCH  33  36
ENDBRANCH   7  33
BRANCH   1  39
HETATM   39  C6  UNL     1      -5.796   1.229   0.451  1.00  0.00     0.139 C 
BRANCH  39  40
HETATM   40  C5  UNL     1      -6.782   2.296   0.163  1.00  0.00     0.221 C 
HETATM   41  N1  UNL     1      -8.083   2.297   0.744  1.00  0.00    -0.353 N 
HETATM   42  O1  UNL     1      -6.533   3.259  -0.607  1.00  0.00    -0.273 OA
BRANCH  41  43
HETATM   43  C2  UNL     1      -9.042   3.329   0.461  1.00  0.00     0.121 C 
HETATM   44  C1  UNL     1      -9.914   3.026  -0.715  1.00  0.00     0.026 C 
ENDBRANCH  41  43
BRANCH  41  45
HETATM   45  C3  UNL     1      -8.427   1.221   1.644  1.00  0.00     0.121 C 
HETATM   46  C4  UNL     1      -9.046   0.037   0.931  1.00  0.00     0.026 C 
ENDBRANCH  41  45
ENDBRANCH  39  40
ENDBRANCH   1  39
TORSDOF 13
