REMARK  4 active torsions:
REMARK  status: ('A' for Active; 'I' for Inactive)
REMARK    1  A    between atoms: C2_2  and  C5_5 
REMARK    2  A    between atoms: C7_8  and  N1_9 
REMARK    3  A    between atoms: N1_9  and  C8_11 
REMARK    4  A    between atoms: C10_16  and  C11_17 
ROOT
HETATM    1  C8  UNL     1       2.571   0.294  -0.108  1.00  0.00     0.232 C 
HETATM    2  C9  UNL     1       2.666   1.580  -0.746  1.00  0.00     0.117 C 
HETATM    3  N2  UNL     1       2.770   2.616  -1.254  1.00  0.00    -0.192 NA
HETATM    4  N3  UNL     1       3.552   0.146   0.970  1.00  0.00    -0.337 N 
ATOM      5  H3  UNL     1       3.415   0.388   1.951  1.00  0.00     0.164 HD
HETATM    6  C10 UNL     1       4.725  -0.396   0.395  1.00  0.00     0.110 C 
HETATM    7  N4  UNL     1       4.442  -0.922  -0.749  1.00  0.00    -0.356 N 
ATOM      8  H4  UNL     1       5.127  -1.375  -1.354  1.00  0.00     0.162 HD
HETATM    9  C12 UNL     1       3.047  -0.794  -1.070  1.00  0.00     0.255 C 
HETATM   10  C13 UNL     1       2.362  -2.027  -0.646  1.00  0.00     0.090 C 
HETATM   11  N5  UNL     1       1.807  -2.998  -0.289  1.00  0.00    -0.195 NA
ENDROOT
BRANCH   1  12
HETATM   12  N1  UNL     1       1.299  -0.009   0.441  1.00  0.00    -0.330 N 
ATOM     13  H1  UNL     1       1.269  -0.530   1.318  1.00  0.00     0.165 HD
BRANCH  12  14
HETATM   14  C7  UNL     1       0.155   0.339  -0.109  1.00  0.00     0.147 A 
HETATM   15  S1  UNL     1      -0.133   1.201  -1.547  1.00  0.00    -0.064 SA
HETATM   16  C6  UNL     1      -1.835   1.173  -1.519  1.00  0.00     0.079 A 
HETATM   17  C5  UNL     1      -2.090   0.482  -0.370  1.00  0.00     0.025 A 
HETATM   18  N6  UNL     1      -1.062   0.062   0.340  1.00  0.00    -0.339 N 
ATOM     19  H6  UNL     1      -1.198  -0.459   1.206  1.00  0.00     0.168 HD
BRANCH  17  20
HETATM   20  C2  UNL     1      -3.511   0.162   0.112  1.00  0.00    -0.008 C 
HETATM   21  C1  UNL     1      -3.893  -1.218  -0.373  1.00  0.00     0.021 C 
HETATM   22  C3  UNL     1      -4.469   1.160  -0.397  1.00  0.00     0.021 C 
HETATM   23  C4  UNL     1      -3.569   0.171   1.620  1.00  0.00     0.021 C 
ENDBRANCH  17  20
ENDBRANCH  12  14
ENDBRANCH   1  12
BRANCH   6  24
HETATM   24  C11 UNL     1       6.066  -0.353   1.042  1.00  0.00     0.244 C 
HETATM   25 CL1  UNL     1       7.278  -1.198   0.045  1.00  0.00    -0.100 Cl
HETATM   26 CL2  UNL     1       6.052  -1.129   2.638  1.00  0.00    -0.100 Cl
ENDBRANCH   6  24
TORSDOF 4
