REMARK  4 active torsions:
REMARK  status: ('A' for Active; 'I' for Inactive)
REMARK    1  A    between atoms: C2_2  and  O2_4 
REMARK    2  A    between atoms: O2_4  and  C3_5 
REMARK    3  A    between atoms: C3_5  and  C4_6 
REMARK    4  A    between atoms: C4_6  and  O3_7 
ROOT
HETATM    1  C4  UNL     1       3.904  -2.174   0.770  1.00  0.00     0.197 C 
HETATM    2  O4  UNL     1       2.705  -1.678   1.289  1.00  0.00    -0.307 OA
HETATM    3  C5  UNL     1       2.098  -2.072   0.091  1.00  0.00     0.245 C 
HETATM    4  F1  UNL     1       1.771  -3.438   0.084  1.00  0.00    -0.205 F 
HETATM    5  C6  UNL     1       0.977  -1.234  -0.384  1.00  0.00     0.016 A 
HETATM    6  C7  UNL     1      -0.291  -1.458   0.089  1.00  0.00     0.023 A 
HETATM    7  C8  UNL     1      -1.408  -0.739  -0.290  1.00  0.00    -0.022 A 
HETATM    8  C9  UNL     1      -1.225   0.280  -1.213  1.00  0.00     0.081 A 
HETATM    9  C10 UNL     1       0.073   0.504  -1.694  1.00  0.00    -0.021 A 
HETATM   10  C11 UNL     1       0.364   1.574  -2.724  1.00  0.00     0.052 C 
HETATM   11  C12 UNL     1       1.168  -0.232  -1.295  1.00  0.00    -0.037 A 
HETATM   12  C13 UNL     1       2.516   0.086  -1.861  1.00  0.00     0.040 C 
HETATM   13  C14 UNL     1       3.539  -0.287  -0.796  1.00  0.00     0.021 C 
HETATM   14  C15 UNL     1       3.408  -1.755  -0.576  1.00  0.00     0.123 C 
HETATM   15  O5  UNL     1      -2.266   1.070  -1.665  1.00  0.00    -0.350 OA
HETATM   16  C16 UNL     1      -3.095   1.967  -0.951  1.00  0.00     0.175 C 
HETATM   17  C17 UNL     1      -4.527   1.733  -1.366  1.00  0.00     0.027 C 
HETATM   18  C18 UNL     1      -5.492   2.030  -0.236  1.00  0.00     0.002 C 
HETATM   19  C19 UNL     1      -5.926   0.780   0.498  1.00  0.00     0.000 C 
HETATM   20  C20 UNL     1      -5.117   0.707   1.774  1.00  0.00     0.001 C 
HETATM   21  C21 UNL     1      -4.480  -0.656   1.902  1.00  0.00     0.020 C 
HETATM   22  C22 UNL     1      -2.986  -0.638   1.671  1.00  0.00     0.086 C 
HETATM   23 CL1  UNL     1      -2.245  -1.686   2.918  1.00  0.00    -0.125 Cl
HETATM   24  C23 UNL     1      -2.724  -1.137   0.297  1.00  0.00     0.061 C 
ENDROOT
BRANCH   1  25
HETATM   25  C3  UNL     1       5.167  -1.576   1.279  1.00  0.00     0.247 C 
BRANCH  25  26
HETATM   26  O2  UNL     1       5.241  -0.191   1.298  1.00  0.00    -0.316 OA
BRANCH  26  27
HETATM   27  C2  UNL     1       6.381   0.429   1.757  1.00  0.00     0.254 C 
HETATM   28  C1  UNL     1       6.492   1.931   1.790  1.00  0.00     0.126 C 
HETATM   29  O1  UNL     1       7.336  -0.283   2.152  1.00  0.00    -0.266 OA
ENDBRANCH  26  27
ENDBRANCH  25  26
ENDBRANCH   1  25
BRANCH   1  30
HETATM   30  O3  UNL     1       4.015  -3.577   0.829  1.00  0.00    -0.363 OA
ATOM     31  H3  UNL     1       3.208  -3.959   0.504  1.00  0.00     0.213 HD
ENDBRANCH   1  30
TORSDOF 4
