REMARK  13 active torsions:
REMARK  status: ('A' for Active; 'I' for Inactive)
REMARK    1  A    between atoms: C5_9  and  N3_10 
REMARK    2  A    between atoms: C8_17  and  N6_18 
REMARK    3  A    between atoms: N7_21  and  C11_22 
REMARK    4  A    between atoms: C14_25  and  O1_26 
REMARK    5  A    between atoms: C16_29  and  C17_30 
REMARK    6  A    between atoms: N8_31  and  O2_33 
REMARK    7  A    between atoms: O2_33  and  C18_34 
REMARK    8  A    between atoms: C18_34  and  C19_35 
REMARK    9  A    between atoms: C19_35  and  O3_36 
REMARK   10  A    between atoms: O3_36  and  C20_37 
REMARK   11  A    between atoms: C20_37  and  C21_38 
REMARK   12  A    between atoms: C21_38  and  N9_39 
REMARK   13  A    between atoms: C24_42  and  O4_43 
ROOT
HETATM    1  N3  UNL     1      10.013  -0.314  -1.336  1.00  0.00    -0.278 N 
ATOM      2  H3  UNL     1      10.417  -0.907  -2.061  1.00  0.00     0.179 HD
HETATM    3  C6  UNL     1      10.795   0.617  -0.630  1.00  0.00     0.183 C 
HETATM    4  N4  UNL     1      11.429   1.384  -0.029  1.00  0.00    -0.172 NA
ENDROOT
BRANCH   1   5
HETATM    5  C5  UNL     1       8.612  -0.394  -0.990  1.00  0.00     0.140 A 
HETATM    6  C4  UNL     1       8.164  -1.350  -0.205  1.00  0.00     0.110 A 
HETATM    7  N1  UNL     1       8.775  -2.377   0.415  1.00  0.00    -0.323 N 
HETATM    8  C3  UNL     1       6.823  -1.381   0.092  1.00  0.00     0.089 A 
HETATM    9  C1  UNL     1      10.164  -2.753   0.405  1.00  0.00     0.159 C 
HETATM   10  C2  UNL     1       7.811  -3.031   1.087  1.00  0.00     0.179 A 
HETATM   11  S1  UNL     1       8.017  -4.376   2.020  1.00  0.00    -0.040 SA
HETATM   12  N2  UNL     1       6.637  -2.446   0.903  1.00  0.00    -0.329 N 
ATOM     13  H2  UNL     1       5.748  -2.747   1.303  1.00  0.00     0.168 HD
HETATM   14  C8  UNL     1       5.961  -0.499  -0.371  1.00  0.00     0.054 A 
HETATM   15  C7  UNL     1       6.364   0.604  -1.253  1.00  0.00     0.180 A 
HETATM   16  N5  UNL     1       7.766   0.597  -1.537  1.00  0.00    -0.368 N 
ATOM     17  H5  UNL     1       8.160   1.317  -2.142  1.00  0.00     0.161 HD
BRANCH  14  18
HETATM   18  N6  UNL     1       4.572  -0.647   0.023  1.00  0.00    -0.378 N 
HETATM   19  C9  UNL     1       3.675  -1.149  -0.983  1.00  0.00     0.142 C 
HETATM   20  C10 UNL     1       2.280  -0.674  -0.692  1.00  0.00     0.143 C 
HETATM   21  N7  UNL     1       2.371   0.652  -0.116  1.00  0.00    -0.377 N 
HETATM   22  C27 UNL     1       2.982   0.709   1.214  1.00  0.00     0.143 C 
HETATM   23  C28 UNL     1       4.085  -0.322   1.332  1.00  0.00     0.142 C 
BRANCH  21  24
HETATM   24  C11 UNL     1       1.899   1.793  -0.802  1.00  0.00     0.042 A 
HETATM   25  C12 UNL     1       2.855   2.741  -1.197  1.00  0.00     0.033 A 
HETATM   26  C13 UNL     1       2.470   3.869  -1.882  1.00  0.00     0.039 A 
HETATM   27  C14 UNL     1       1.141   4.080  -2.188  1.00  0.00     0.066 A 
HETATM   28  C15 UNL     1       0.175   3.179  -1.820  1.00  0.00     0.051 A 
HETATM   29  C16 UNL     1       0.579   2.031  -1.120  1.00  0.00     0.010 A 
BRANCH  27  30
HETATM   30  O1  UNL     1       0.770   5.241  -2.890  1.00  0.00    -0.361 OA
ATOM     31  H1  UNL     1      -0.145   5.386  -3.101  1.00  0.00     0.217 HD
ENDBRANCH  27  30
BRANCH  29  32
HETATM   32  C17 UNL     1      -0.415   1.054  -0.693  1.00  0.00     0.127 C 
HETATM   33  N8  UNL     1      -1.635   1.247  -0.982  1.00  0.00    -0.277 N 
ATOM     34  H8  UNL     1      -1.867   2.089  -1.508  1.00  0.00     0.193 HD
BRANCH  33  35
HETATM   35  O2  UNL     1      -2.661   0.412  -0.642  1.00  0.00    -0.279 OA
BRANCH  35  36
HETATM   36  C18 UNL     1      -4.026   0.788  -0.767  1.00  0.00     0.227 C 
BRANCH  36  37
HETATM   37  C19 UNL     1      -4.852  -0.389  -0.299  1.00  0.00     0.196 C 
BRANCH  37  38
HETATM   38  O3  UNL     1      -6.205  -0.157  -0.370  1.00  0.00    -0.387 OA
BRANCH  38  39
HETATM   39  C20 UNL     1      -6.634   0.915   0.397  1.00  0.00     0.198 C 
BRANCH  39  40
HETATM   40  C21 UNL     1      -8.120   1.082   0.244  1.00  0.00     0.298 C 
BRANCH  40  41
HETATM   41  N9  UNL     1      -8.809  -0.094   0.655  1.00  0.00     0.090 N 
HETATM   42  C22 UNL     1     -10.250   0.060   0.476  1.00  0.00     0.275 C 
HETATM   43  C23 UNL     1     -11.028  -1.020   1.149  1.00  0.00     0.062 C 
HETATM   44  C24 UNL     1     -10.239  -2.281   1.357  1.00  0.00     0.121 C 
HETATM   45  C25 UNL     1      -8.901  -2.077   1.985  1.00  0.00     0.062 C 
HETATM   46  C26 UNL     1      -8.533  -0.586   1.962  1.00  0.00     0.275 C 
BRANCH  44  47
HETATM   47  O4  UNL     1     -10.061  -2.985   0.155  1.00  0.00    -0.395 OA
ATOM     48  H4  UNL     1      -9.562  -3.783   0.287  1.00  0.00     0.210 HD
ENDBRANCH  44  47
ENDBRANCH  40  41
ENDBRANCH  39  40
ENDBRANCH  38  39
ENDBRANCH  37  38
ENDBRANCH  36  37
ENDBRANCH  35  36
ENDBRANCH  33  35
ENDBRANCH  29  32
ENDBRANCH  21  24
ENDBRANCH  14  18
ENDBRANCH   1   5
TORSDOF 13
