REMARK  13 active torsions:
REMARK  status: ('A' for Active; 'I' for Inactive)
REMARK    1  A    between atoms: C2_2  and  N1_3 
REMARK       I    between atoms: N1_3  and  C3_5 
REMARK    2  A    between atoms: C3_5  and  C4_7 
REMARK    3  A    between atoms: C4_7  and  C5_8 
REMARK    4  A    between atoms: C4_7  and  C12_26 
REMARK    5  A    between atoms: C5_8  and  N2_9 
REMARK    6  A    between atoms: C7_13  and  C8_14 
REMARK    7  A    between atoms: C12_26  and  O8_28 
REMARK    8  A    between atoms: O8_28  and  C13_29 
REMARK    9  A    between atoms: C15_31  and  O9_32 
REMARK   10  A    between atoms: C16_34  and  C17_35 
REMARK   11  A    between atoms: C18_36  and  C19_37 
REMARK   12  A    between atoms: C19_37  and  O10_38 
REMARK   13  A    between atoms: C20_40  and  O11_41 
ROOT
HETATM    1  C4  UNL     1      -1.535  -0.503  -0.154  1.00  0.00     0.196 C 
ENDROOT
BRANCH   1   2
HETATM    2  C3  UNL     1      -1.885   0.759  -0.800  1.00  0.00     0.233 C 
HETATM    3  N1  UNL     1      -1.314   1.084  -2.093  1.00  0.00    -0.361 N 
ATOM      4  H1  UNL     1      -0.675   0.427  -2.540  1.00  0.00     0.162 HD
HETATM    5  O1  UNL     1      -2.651   1.639  -0.354  1.00  0.00    -0.273 OA
BRANCH   3   6
HETATM    6  C2  UNL     1      -1.630   2.297  -2.742  1.00  0.00     0.118 C 
HETATM    7  C1  UNL     1      -1.236   3.524  -1.922  1.00  0.00     0.026 C 
ENDBRANCH   3   6
ENDBRANCH   1   2
BRANCH   1   8
HETATM    8  C5  UNL     1      -2.313  -0.922   1.030  1.00  0.00     0.163 C 
BRANCH   8   9
HETATM    9  N2  UNL     1      -3.724  -1.142   0.875  1.00  0.00    -0.247 N 
HETATM   10  C6  UNL     1      -4.782  -0.380   1.203  1.00  0.00     0.353 A 
HETATM   11  O2  UNL     1      -4.709   0.726   1.802  1.00  0.00    -0.244 OA
HETATM   12  N3  UNL     1      -5.904  -1.021   0.781  1.00  0.00    -0.180 N 
HETATM   13  C7  UNL     1      -7.221  -0.685   0.861  1.00  0.00     0.177 A 
HETATM   14  N5  UNL     1      -5.541  -2.158   0.206  1.00  0.00    -0.141 N 
HETATM   15  C9  UNL     1      -8.165  -1.588   0.314  1.00  0.00     0.143 A 
HETATM   16 CL1  UNL     1      -9.866  -1.214   0.386  1.00  0.00    -0.061 Cl
HETATM   17  N4  UNL     1      -7.731  -2.708  -0.247  1.00  0.00    -0.295 N 
HETATM   18  C10 UNL     1      -6.446  -3.039  -0.327  1.00  0.00     0.351 A 
ATOM     19  H4  UNL     1      -8.420  -3.350  -0.638  1.00  0.00     0.171 HD
HETATM   20  O5  UNL     1      -6.027  -4.103  -0.859  1.00  0.00    -0.244 OA
HETATM   21  C11 UNL     1      -4.209  -2.258   0.250  1.00  0.00     0.356 A 
HETATM   22  O6  UNL     1      -3.499  -3.220  -0.205  1.00  0.00    -0.244 OA
BRANCH  13  23
HETATM   23  C8  UNL     1      -7.702   0.526   1.464  1.00  0.00     0.232 C 
HETATM   24  O3  UNL     1      -8.984   0.699   1.462  1.00  0.00    -0.643 OA
HETATM   25  O4  UNL     1      -7.018   1.536   2.045  1.00  0.00    -0.643 OA
ENDBRANCH  13  23
ENDBRANCH   8   9
ENDBRANCH   1   8
BRANCH   1  26
HETATM   26  C12 UNL     1      -0.050  -0.529   0.174  1.00  0.00     0.279 C 
HETATM   27  O7  UNL     1       0.314  -0.657   1.366  1.00  0.00    -0.264 OA
BRANCH  26  28
HETATM   28  O8  UNL     1       0.919  -0.414  -0.805  1.00  0.00    -0.278 OA
BRANCH  28  29
HETATM   29  C13 UNL     1       2.270  -0.446  -0.432  1.00  0.00     0.090 A 
HETATM   30  C14 UNL     1       2.961  -1.615  -0.375  1.00  0.00     0.075 A 
HETATM   31  C15 UNL     1       4.318  -1.700  -0.006  1.00  0.00     0.081 A 
HETATM   32  C16 UNL     1       4.996  -0.539   0.317  1.00  0.00     0.031 A 
HETATM   33  C20 UNL     1       4.267   0.657   0.252  1.00  0.00     0.089 A 
HETATM   34  C22 UNL     1       2.942   0.709  -0.112  1.00  0.00     0.006 A 
HETATM   35  C23 UNL     1       2.226   2.012  -0.161  1.00  0.00     0.054 C 
BRANCH  31  36
HETATM   36  O9  UNL     1       4.868  -2.897   0.009  1.00  0.00    -0.360 OA
ATOM     37  H9  UNL     1       5.783  -2.954   0.258  1.00  0.00     0.217 HD
ENDBRANCH  31  36
BRANCH  32  38
HETATM   38  C17 UNL     1       6.388  -0.518   0.708  1.00  0.00     0.015 C 
HETATM   39  C18 UNL     1       7.243  -1.472   0.836  1.00  0.00    -0.000 C 
BRANCH  39  40
HETATM   40  C19 UNL     1       8.648  -1.132   1.267  1.00  0.00     0.191 C 
BRANCH  40  41
HETATM   41  O10 UNL     1       8.779   0.244   1.462  1.00  0.00    -0.397 OA
ATOM     42  H10 UNL     1       9.664   0.458   1.733  1.00  0.00     0.209 HD
ENDBRANCH  40  41
ENDBRANCH  39  40
ENDBRANCH  32  38
BRANCH  33  43
HETATM   43  O11 UNL     1       4.955   1.819   0.578  1.00  0.00    -0.354 OA
HETATM   44  C21 UNL     1       5.607   2.481  -0.513  1.00  0.00     0.210 C 
ENDBRANCH  33  43
ENDBRANCH  28  29
ENDBRANCH  26  28
ENDBRANCH   1  26
TORSDOF 13
