REMARK  18 active torsions:
REMARK  status: ('A' for Active; 'I' for Inactive)
REMARK    1  A    between atoms: C2_2  and  O1_3 
REMARK    2  A    between atoms: O1_3  and  C3_4 
REMARK    3  A    between atoms: C3_4  and  C4_5 
REMARK    4  A    between atoms: C5_7  and  O3_8 
REMARK    5  A    between atoms: O3_8  and  C6_9 
REMARK    6  A    between atoms: C6_9  and  C7_10 
REMARK    7  A    between atoms: C10_14  and  C11_15 
REMARK    8  A    between atoms: C11_15  and  O5_17 
REMARK    9  A    between atoms: C13_19  and  C14_20 
REMARK   10  A    between atoms: C15_21  and  C16_22 
REMARK   11  A    between atoms: C16_22  and  C17_23 
REMARK   12  A    between atoms: C17_23  and  C18_24 
REMARK   13  A    between atoms: C18_24  and  O6_25 
REMARK   14  A    between atoms: C18_24  and  N1_27 
REMARK   15  A    between atoms: C23_34  and  O9_35 
REMARK   16  A    between atoms: C24_37  and  O10_38 
REMARK   17  A    between atoms: C25_40  and  O11_41 
REMARK   18  A    between atoms: C26_43  and  O12_44 
ROOT
HETATM    1  C7  UNL     1       0.041   2.218   1.008  1.00  0.00     0.177 C 
HETATM    2  O4  UNL     1      -0.492   0.943   1.148  1.00  0.00    -0.375 OA
HETATM    3  C8  UNL     1      -1.160   0.495  -0.016  1.00  0.00     0.133 C 
HETATM    4  C9  UNL     1      -1.273  -0.987  -0.046  1.00  0.00     0.040 C 
HETATM    5  C10 UNL     1      -2.349   1.292  -0.284  1.00  0.00     0.056 C 
HETATM    6  C13 UNL     1      -3.689   0.782   0.259  1.00  0.00     0.124 C 
HETATM    7  C21 UNL     1      -4.387   2.119   0.370  1.00  0.00     0.268 C 
HETATM    8  O7  UNL     1      -5.610   2.294   0.566  1.00  0.00    -0.264 OA
HETATM    9  O8  UNL     1      -3.467   3.154   0.220  1.00  0.00    -0.312 OA
HETATM   10  C22 UNL     1      -2.267   2.543   0.566  1.00  0.00     0.178 C 
HETATM   11  C23 UNL     1      -0.988   3.232   0.470  1.00  0.00     0.179 C 
ENDROOT
BRANCH   1  12
HETATM   12  C6  UNL     1       1.334   2.258   0.267  1.00  0.00     0.205 C 
BRANCH  12  13
HETATM   13  O3  UNL     1       2.246   1.493   0.945  1.00  0.00    -0.356 OA
BRANCH  13  14
HETATM   14  C5  UNL     1       3.502   1.479   0.323  1.00  0.00     0.291 C 
HETATM   15  O2  UNL     1       3.741   0.208  -0.076  1.00  0.00    -0.348 OA
HETATM   16  C4  UNL     1       5.065  -0.242  -0.035  1.00  0.00     0.179 C 
HETATM   17  C26 UNL     1       5.965   0.947  -0.247  1.00  0.00     0.180 C 
HETATM   18  C25 UNL     1       5.900   1.842   0.939  1.00  0.00     0.183 C 
HETATM   19  C24 UNL     1       4.468   2.106   1.265  1.00  0.00     0.204 C 
BRANCH  16  20
HETATM   20  C3  UNL     1       5.283  -1.160  -1.204  1.00  0.00     0.202 C 
BRANCH  20  21
HETATM   21  O1  UNL     1       6.488  -1.680  -1.296  1.00  0.00    -0.389 OA
BRANCH  21  22
HETATM   22  C2  UNL     1       7.089  -2.527  -0.473  1.00  0.00     0.163 C 
HETATM   23  C1  UNL     1       7.382  -2.181   0.938  1.00  0.00     0.033 C 
ENDBRANCH  21  22
ENDBRANCH  20  21
ENDBRANCH  16  20
BRANCH  17  24
HETATM   24  O12 UNL     1       5.612   1.600  -1.425  1.00  0.00    -0.390 OA
ATOM     25  H12 UNL     1       6.180   2.350  -1.559  1.00  0.00     0.210 HD
ENDBRANCH  17  24
BRANCH  18  26
HETATM   26  O11 UNL     1       6.590   1.247   1.995  1.00  0.00    -0.390 OA
ATOM     27  H11 UNL     1       7.502   1.079   1.787  1.00  0.00     0.210 HD
ENDBRANCH  18  26
BRANCH  19  28
HETATM   28  O10 UNL     1       4.218   1.785   2.599  1.00  0.00    -0.388 OA
ATOM     29  H10 UNL     1       4.835   2.185   3.200  1.00  0.00     0.210 HD
ENDBRANCH  19  28
ENDBRANCH  13  14
ENDBRANCH  12  13
ENDBRANCH   1  12
BRANCH  11  30
HETATM   30  O9  UNL     1      -1.046   4.360   1.328  1.00  0.00    -0.390 OA
ATOM     31  H9  UNL     1      -1.680   4.985   0.996  1.00  0.00     0.210 HD
ENDBRANCH  11  30
BRANCH   5  32
HETATM   32  C11 UNL     1      -2.652   1.565  -1.723  1.00  0.00     0.129 C 
HETATM   33  C12 UNL     1      -1.675   2.279  -2.537  1.00  0.00     0.040 C 
BRANCH  32  34
HETATM   34  O5  UNL     1      -2.960   0.325  -2.316  1.00  0.00    -0.395 OA
ATOM     35  H5  UNL     1      -3.152   0.498  -3.230  1.00  0.00     0.210 HD
ENDBRANCH  32  34
ENDBRANCH   5  32
BRANCH   6  36
HETATM   36  C14 UNL     1      -3.603   0.140   1.560  1.00  0.00    -0.011 C 
HETATM   37  C15 UNL     1      -4.146  -1.002   1.837  1.00  0.00    -0.003 C 
BRANCH  37  38
HETATM   38  C16 UNL     1      -4.927  -1.840   0.925  1.00  0.00     0.004 C 
BRANCH  38  39
HETATM   39  C17 UNL     1      -5.422  -2.984   1.338  1.00  0.00     0.055 C 
BRANCH  39  40
HETATM   40  C18 UNL     1      -6.199  -3.937   0.626  1.00  0.00     0.137 C 
BRANCH  40  41
HETATM   41  O6  UNL     1      -6.548  -4.994   1.323  1.00  0.00    -0.346 OA
ATOM     42  H6  UNL     1      -7.068  -5.631   0.847  1.00  0.00     0.219 HD
ENDBRANCH  40  41
BRANCH  40  43
HETATM   43  N1  UNL     1      -6.654  -3.932  -0.697  1.00  0.00    -0.371 N 
HETATM   44  C19 UNL     1      -7.457  -5.081  -1.154  1.00  0.00     0.151 C 
HETATM   45  C20 UNL     1      -6.431  -2.920  -1.695  1.00  0.00     0.151 C 
ENDBRANCH  40  43
ENDBRANCH  39  40
ENDBRANCH  38  39
ENDBRANCH  37  38
ENDBRANCH   6  36
TORSDOF 18
