REMARK  15 active torsions:
REMARK  status: ('A' for Active; 'I' for Inactive)
REMARK    1  A    between atoms: O1_2  and  C2_3 
REMARK    2  A    between atoms: C4_5  and  C5_6 
REMARK    3  A    between atoms: C5_6  and  O3_8 
REMARK    4  A    between atoms: O3_8  and  C6_9 
REMARK    5  A    between atoms: C6_9  and  C7_11 
REMARK    6  A    between atoms: C8_13  and  N1_14 
REMARK       I    between atoms: N1_14  and  C9_16 
REMARK       I    between atoms: C9_16  and  N4_35 
REMARK    7  A    between atoms: N2_17  and  O6_19 
REMARK    8  A    between atoms: O6_19  and  C10_20 
REMARK    9  A    between atoms: C10_20  and  C11_21 
REMARK   10  A    between atoms: C10_20  and  C13_25 
REMARK   11  A    between atoms: C11_21  and  O7_23 
REMARK   12  A    between atoms: C13_25  and  O8_26 
REMARK   13  A    between atoms: C13_25  and  C14_28 
REMARK   14  A    between atoms: C14_28  and  N3_29 
REMARK   15  A    between atoms: N3_29  and  C15_32 
ROOT
HETATM    1  N1  UNL     1      -0.038   0.305  -1.406  1.00  0.00    -0.197 N 
ATOM      2  H1  UNL     1      -0.200  -0.626  -1.789  1.00  0.00     0.180 HD
HETATM    3  C9  UNL     1      -0.965   1.320  -1.710  1.00  0.00     0.709 C 
HETATM    4  N2  UNL     1      -2.127   1.334  -1.184  1.00  0.00    -0.095 N 
ATOM      5  H2  UNL     1      -2.733   2.106  -1.462  1.00  0.00     0.213 HD
HETATM    6  N4  UNL     1      -0.602   2.341  -2.615  1.00  0.00    -0.124 N 
ATOM      7  H4  UNL     1      -0.227   2.088  -3.529  1.00  0.00     0.197 HD
HETATM    8  C18 UNL     1      -0.746   3.693  -2.283  1.00  0.00     0.196 C 
HETATM    9  N5  UNL     1      -0.861   4.817  -2.027  1.00  0.00    -0.171 NA
ENDROOT
BRANCH   1  10
HETATM   10  C8  UNL     1       1.143   0.512  -0.573  1.00  0.00     0.241 C 
HETATM   11  O5  UNL     1       1.886  -0.625  -0.444  1.00  0.00    -0.332 OA
HETATM   12  C7  UNL     1       3.101  -0.434   0.150  1.00  0.00     0.326 C 
HETATM   13  N6  UNL     1       3.617   0.883   0.074  1.00  0.00    -0.364 N 
HETATM   14  C21 UNL     1       2.974   1.911   0.787  1.00  0.00     0.061 C 
HETATM   15  C22 UNL     1       4.304   1.216  -1.119  1.00  0.00     0.152 C 
HETATM   16  C20 UNL     1       1.806   1.473   1.636  1.00  0.00     0.048 C 
HETATM   17  C19 UNL     1       0.661   0.953   0.798  1.00  0.00     0.059 C 
BRANCH  12  18
HETATM   18  C6  UNL     1       4.104  -1.326  -0.535  1.00  0.00     0.316 C 
HETATM   19  O4  UNL     1       3.689  -2.052  -1.465  1.00  0.00    -0.260 OA
BRANCH  18  20
HETATM   20  O3  UNL     1       5.439  -1.365  -0.174  1.00  0.00    -0.238 OA
BRANCH  20  21
HETATM   21  C5  UNL     1       6.375  -2.161  -0.776  1.00  0.00     0.292 C 
HETATM   22  O2  UNL     1       6.010  -2.907  -1.716  1.00  0.00    -0.260 OA
BRANCH  21  23
HETATM   23  C4  UNL     1       7.784  -2.191  -0.384  1.00  0.00     0.114 C 
HETATM   24  C2  UNL     1       8.276  -1.462   0.575  1.00  0.00     0.047 C 
HETATM   25  C3  UNL     1       9.709  -1.541   0.919  1.00  0.00     0.076 C 
BRANCH  24  26
HETATM   26  O1  UNL     1       7.457  -0.601   1.286  1.00  0.00    -0.360 OA
HETATM   27  C1  UNL     1       7.971   0.439   2.098  1.00  0.00     0.209 C 
ENDBRANCH  24  26
ENDBRANCH  21  23
ENDBRANCH  20  21
ENDBRANCH  18  20
ENDBRANCH  12  18
ENDBRANCH   1  10
BRANCH   4  28
HETATM   28  O6  UNL     1      -2.655   0.459  -0.308  1.00  0.00    -0.256 OA
BRANCH  28  29
HETATM   29  C10 UNL     1      -3.916  -0.180  -0.610  1.00  0.00     0.211 C 
BRANCH  29  30
HETATM   30  C11 UNL     1      -3.656  -1.650  -0.744  1.00  0.00     0.148 C 
HETATM   31  C12 UNL     1      -4.784  -2.446  -1.331  1.00  0.00     0.042 C 
BRANCH  30  32
HETATM   32  O7  UNL     1      -3.176  -2.275   0.370  1.00  0.00    -0.393 OA
ATOM     33  H7  UNL     1      -3.011  -3.207   0.285  1.00  0.00     0.210 HD
ENDBRANCH  30  32
ENDBRANCH  29  30
BRANCH  29  34
HETATM   34  C13 UNL     1      -4.938   0.229   0.391  1.00  0.00     0.177 C 
BRANCH  34  35
HETATM   35  O8  UNL     1      -4.679  -0.098   1.703  1.00  0.00    -0.391 OA
ATOM     36  H8  UNL     1      -5.332   0.163   2.342  1.00  0.00     0.210 HD
ENDBRANCH  34  35
BRANCH  34  37
HETATM   37  C14 UNL     1      -6.363  -0.022  -0.030  1.00  0.00     0.267 C 
BRANCH  37  38
HETATM   38  N3  UNL     1      -7.292   0.778   0.759  1.00  0.00    -0.068 N 
ATOM     39  H32 UNL     1      -7.155   0.620   1.757  1.00  0.00     0.277 HD
ATOM     40  H31 UNL     1      -7.052   1.768   0.715  1.00  0.00     0.277 HD
BRANCH  38  41
HETATM   41  C15 UNL     1      -8.654   0.564   0.388  1.00  0.00     0.186 A 
HETATM   42  C16 UNL     1      -9.339  -0.734   0.516  1.00  0.00     0.035 A 
HETATM   43  C17 UNL     1      -9.610   0.325   1.503  1.00  0.00     0.035 A 
ENDBRANCH  38  41
ENDBRANCH  37  38
ENDBRANCH  34  37
ENDBRANCH  29  34
ENDBRANCH  28  29
ENDBRANCH   4  28
TORSDOF 15
