REMARK  5 active torsions:
REMARK  status: ('A' for Active; 'I' for Inactive)
REMARK    1  A    between atoms: C2_2  and  C3_3 
REMARK    2  A    between atoms: C8_11  and  C9_12 
REMARK    3  A    between atoms: C11_14  and  O4_15 
REMARK    4  A    between atoms: C13_17  and  O5_18 
REMARK    5  A    between atoms: C15_20  and  O6_21 
ROOT
HETATM    1  C3  UNL     1       3.156   0.044   0.481  1.00  0.00     0.202 C 
HETATM    2  C4  UNL     1       3.915   1.238  -0.013  1.00  0.00     0.100 C 
HETATM    3  C5  UNL     1       3.108   2.460  -0.210  1.00  0.00     0.215 C 
HETATM    4  O1  UNL     1       1.871   2.287  -0.755  1.00  0.00    -0.238 OA
HETATM    5  O2  UNL     1       1.731   1.280  -1.547  1.00  0.00    -0.198 OA
HETATM    6  C6  UNL     1       1.279   0.160  -0.856  1.00  0.00     0.229 C 
HETATM    7  C7  UNL     1       0.451  -0.662  -1.815  1.00  0.00     0.085 C 
HETATM    8  O3  UNL     1       2.425  -0.583  -0.528  1.00  0.00    -0.311 OA
HETATM    9  C8  UNL     1       0.573   0.486   0.418  1.00  0.00     0.258 C 
HETATM   10  O7  UNL     1       1.209  -0.253   1.442  1.00  0.00    -0.222 OA
HETATM   11  O8  UNL     1       2.386   0.319   1.602  1.00  0.00    -0.200 OA
ENDROOT
BRANCH   9  12
HETATM   12  C9  UNL     1      -0.879   0.222   0.379  1.00  0.00    -0.015 A 
HETATM   13  C10 UNL     1      -1.377  -1.060   0.468  1.00  0.00     0.049 A 
HETATM   14  C11 UNL     1      -2.730  -1.326   0.434  1.00  0.00     0.104 A 
HETATM   15  C13 UNL     1      -3.608  -0.269   0.305  1.00  0.00     0.135 A 
HETATM   16  C15 UNL     1      -3.149   1.018   0.213  1.00  0.00     0.104 A 
HETATM   17  C17 UNL     1      -1.790   1.250   0.251  1.00  0.00     0.049 A 
BRANCH  14  18
HETATM   18  O4  UNL     1      -3.215  -2.624   0.525  1.00  0.00    -0.353 OA
HETATM   19  C12 UNL     1      -2.382  -3.734   0.657  1.00  0.00     0.210 C 
ENDBRANCH  14  18
BRANCH  15  20
HETATM   20  O5  UNL     1      -4.990  -0.540   0.269  1.00  0.00    -0.351 OA
HETATM   21  C14 UNL     1      -5.549  -0.770  -1.017  1.00  0.00     0.210 C 
ENDBRANCH  15  20
BRANCH  16  22
HETATM   22  O6  UNL     1      -4.049   2.061   0.085  1.00  0.00    -0.353 OA
HETATM   23  C16 UNL     1      -3.574   3.374  -0.009  1.00  0.00     0.210 C 
ENDBRANCH  16  22
ENDBRANCH   9  12
BRANCH   1  24
HETATM   24  C2  UNL     1       4.204  -0.985   0.930  1.00  0.00     0.067 C 
HETATM   25  C1  UNL     1       5.099  -1.362  -0.244  1.00  0.00     0.010 C 
ENDBRANCH   1  24
TORSDOF 5
