REMARK  4 active torsions:
REMARK  status: ('A' for Active; 'I' for Inactive)
REMARK    1  A    between atoms: C1_2  and  N1_3 
REMARK    2  A    between atoms: C1_2  and  O1_11 
REMARK    3  A    between atoms: N1_3  and  C2_5 
REMARK    4  A    between atoms: O1_11  and  C8_12 
ROOT
HETATM    1  S1  UNL     1      -0.407   0.540   2.209  1.00  0.00    -0.033 SA
HETATM    2  C1  UNL     1      -0.230  -0.360   0.879  1.00  0.00     0.210 C 
ENDROOT
BRANCH   2   3
HETATM    3  N1  UNL     1       1.026  -0.845   0.479  1.00  0.00    -0.357 N 
ATOM      4  H1  UNL     1       1.066  -1.418  -0.364  1.00  0.00     0.162 HD
BRANCH   3   5
HETATM    5  C2  UNL     1       2.253  -0.592   1.170  1.00  0.00     0.084 C 
HETATM    6  C3  UNL     1       3.378  -1.488   0.676  1.00  0.00     0.025 C 
HETATM    7  C4  UNL     1       3.898  -1.074  -0.666  1.00  0.00     0.002 C 
HETATM    8  C5  UNL     1       4.147   0.388  -0.824  1.00  0.00     0.000 C 
HETATM    9  C6  UNL     1       2.854   1.125  -0.459  1.00  0.00     0.002 C 
HETATM   10  C7  UNL     1       2.648   0.860   1.023  1.00  0.00     0.025 C 
ENDBRANCH   3   5
ENDBRANCH   2   3
BRANCH   2  11
HETATM   11  O1  UNL     1      -1.369  -0.646   0.136  1.00  0.00    -0.321 OA
BRANCH  11  12
HETATM   12  C8  UNL     1      -2.178   0.326  -0.461  1.00  0.00     0.140 C 
HETATM   13  C9  UNL     1      -3.316  -0.338  -1.183  1.00  0.00     0.034 C 
HETATM   14  C10 UNL     1      -4.488  -0.650  -0.309  1.00  0.00     0.013 C 
HETATM   15  C11 UNL     1      -5.399   0.578  -0.169  1.00  0.00     0.074 C 
HETATM   16  S2  UNL     1      -4.254   2.012  -0.210  1.00  0.00    -0.167 SA
HETATM   17  C12 UNL     1      -2.683   1.370   0.492  1.00  0.00     0.106 C 
ENDBRANCH  11  12
ENDBRANCH   2  11
TORSDOF 4
