REMARK  4 active torsions:
REMARK  status: ('A' for Active; 'I' for Inactive)
REMARK    1  A    between atoms: C7_8  and  C8_9 
REMARK    2  A    between atoms: C8_9  and  N1_10 
REMARK       I    between atoms: N1_10  and  C9_12 
REMARK    3  A    between atoms: C9_12  and  O3_14 
REMARK    4  A    between atoms: O3_14  and  C10_15 
ROOT
HETATM    1  C10 UNL     1       4.681   0.313  -0.632  1.00  0.00     0.153 C 
HETATM    2  C11 UNL     1       5.851   0.072   0.313  1.00  0.00     0.063 C 
HETATM    3  C12 UNL     1       4.629  -0.846  -1.617  1.00  0.00     0.063 C 
HETATM    4  C13 UNL     1       4.887   1.592  -1.309  1.00  0.00     0.097 C 
HETATM    5  N2  UNL     1       5.057   2.607  -1.863  1.00  0.00    -0.194 NA
ENDROOT
BRANCH   1   6
HETATM    6  O3  UNL     1       3.500   0.292   0.115  1.00  0.00    -0.278 OA
BRANCH   6   7
HETATM    7  C9  UNL     1       2.243   0.476  -0.421  1.00  0.00     0.362 C 
HETATM    8  N1  UNL     1       1.092   0.443   0.393  1.00  0.00    -0.336 N 
ATOM      9  H1  UNL     1       1.213   0.279   1.392  1.00  0.00     0.164 HD
HETATM   10  O2  UNL     1       2.132   0.676  -1.648  1.00  0.00    -0.238 OA
BRANCH   8  11
HETATM   11  C8  UNL     1      -0.248   0.629  -0.111  1.00  0.00     0.130 C 
BRANCH  11  12
HETATM   12  C7  UNL     1      -1.283   0.541   0.994  1.00  0.00     0.011 C 
HETATM   13  C6  UNL     1      -1.219  -0.806   1.652  1.00  0.00     0.084 C 
HETATM   14  C5  UNL     1      -2.427  -1.632   1.383  1.00  0.00     0.128 C 
HETATM   15  C4  UNL     1      -3.015  -1.457   0.023  1.00  0.00     0.087 C 
HETATM   16  O1  UNL     1      -2.890  -2.386   2.214  1.00  0.00    -0.298 OA
HETATM   17  C2  UNL     1      -3.481  -0.046  -0.096  1.00  0.00    -0.041 C 
HETATM   18  C1  UNL     1      -3.650   0.229  -1.598  1.00  0.00     0.015 C 
HETATM   19  C3  UNL     1      -4.897   0.080   0.484  1.00  0.00     0.015 C 
HETATM   20  C14 UNL     1      -2.631   0.970   0.561  1.00  0.00     0.015 C 
ENDBRANCH  11  12
ENDBRANCH   8  11
ENDBRANCH   6   7
ENDBRANCH   1   6
TORSDOF 4
