REMARK  3 active torsions:
REMARK  status: ('A' for Active; 'I' for Inactive)
REMARK    1  A    between atoms: C5_5  and  C6_6 
REMARK    2  A    between atoms: C6_6  and  O2_8 
REMARK    3  A    between atoms: O2_8  and  C7_9 
ROOT
HETATM    1  C1  UNL     1      -3.821   2.067   1.433  1.00  0.00     0.050 C 
HETATM    2  C2  UNL     1      -3.526   0.914   0.492  1.00  0.00     0.138 C 
HETATM    3  C3  UNL     1      -4.261   1.166  -0.785  1.00  0.00     0.050 C 
HETATM    4  C4  UNL     1      -2.070   0.839   0.315  1.00  0.00     0.027 C 
HETATM    5  C5  UNL     1      -1.687  -0.416   0.371  1.00  0.00     0.051 C 
HETATM    6  C14 UNL     1      -2.879  -1.256   0.583  1.00  0.00     0.152 C 
HETATM    7  C15 UNL     1      -2.541  -2.374   1.551  1.00  0.00     0.051 C 
HETATM    8  C16 UNL     1      -3.309  -1.812  -0.763  1.00  0.00     0.051 C 
HETATM    9  N1  UNL     1      -3.875  -0.370   1.098  1.00  0.00    -0.051 N 
ATOM     10  H11 UNL     1      -4.836  -0.670   0.933  1.00  0.00     0.279 HD
ATOM     11  H12 UNL     1      -3.944  -0.354   2.116  1.00  0.00     0.279 HD
ENDROOT
BRANCH   5  12
HETATM   12  C6  UNL     1      -0.326  -0.915   0.243  1.00  0.00     0.292 C 
HETATM   13  O1  UNL     1      -0.036  -2.116   0.306  1.00  0.00    -0.260 OA
BRANCH  12  14
HETATM   14  O2  UNL     1       0.733  -0.051   0.039  1.00  0.00    -0.312 OA
BRANCH  14  15
HETATM   15  C7  UNL     1       2.053  -0.421  -0.095  1.00  0.00     0.132 C 
HETATM   16  C8  UNL     1       2.641  -0.119  -1.459  1.00  0.00     0.032 C 
HETATM   17  C9  UNL     1       3.311   1.216  -1.522  1.00  0.00     0.002 C 
HETATM   18  C10 UNL     1       4.784   1.151  -1.305  1.00  0.00     0.000 C 
HETATM   19  C11 UNL     1       5.240   0.596  -0.022  1.00  0.00     0.000 C 
HETATM   20  C12 UNL     1       4.361  -0.462   0.577  1.00  0.00     0.002 C 
HETATM   21  C13 UNL     1       2.998   0.093   0.946  1.00  0.00     0.032 C 
ENDBRANCH  14  15
ENDBRANCH  12  14
ENDBRANCH   5  12
TORSDOF 3
