REMARK  5 active torsions:
REMARK  status: ('A' for Active; 'I' for Inactive)
REMARK    1  A    between atoms: C2_2  and  C4_4 
REMARK    2  A    between atoms: C5_5  and  C6_6 
REMARK    3  A    between atoms: C6_6  and  N1_7 
REMARK    4  A    between atoms: N1_7  and  O1_8 
REMARK    5  A    between atoms: N1_7  and  C7_10 
ROOT
HETATM    1  C7  UNL     1       0.219   0.106   0.585  1.00  0.00     0.111 C 
HETATM    2  C8  UNL     1      -0.308  -1.006  -0.264  1.00  0.00     0.027 C 
HETATM    3  C9  UNL     1      -1.555  -0.555  -0.967  1.00  0.00     0.040 C 
HETATM    4  C10 UNL     1      -2.519   0.092  -0.023  1.00  0.00     0.061 C 
HETATM    5  C11 UNL     1      -3.480  -0.862   0.635  1.00  0.00     0.038 C 
HETATM    6  C12 UNL     1      -4.765  -1.050  -0.137  1.00  0.00     0.003 C 
HETATM    7  C13 UNL     1      -5.566   0.228  -0.258  1.00  0.00     0.000 C 
HETATM    8  C14 UNL     1      -4.580   1.377   0.007  1.00  0.00     0.003 C 
HETATM    9  C15 UNL     1      -3.369   1.047  -0.853  1.00  0.00     0.038 C 
HETATM   10  O2  UNL     1      -1.939   0.869   0.969  1.00  0.00    -0.379 OA
HETATM   11  C16 UNL     1      -0.674   1.323   0.576  1.00  0.00     0.190 C 
ENDROOT
BRANCH   1  12
HETATM   12  N1  UNL     1       1.611   0.412   0.321  1.00  0.00    -0.182 NA
BRANCH  12  13
HETATM   13  C6  UNL     1       2.368  -0.753   0.671  1.00  0.00     0.215 C 
BRANCH  13  14
HETATM   14  C5  UNL     1       3.799  -0.467   0.592  1.00  0.00    -0.085 C 
HETATM   15  C4  UNL     1       4.998  -0.232   0.563  1.00  0.00    -0.071 C 
BRANCH  15  16
HETATM   16  C2  UNL     1       6.420   0.039   0.570  1.00  0.00    -0.018 C 
HETATM   17  C1  UNL     1       6.981   0.970   1.300  1.00  0.00     0.028 C 
HETATM   18  C3  UNL     1       7.275  -0.800  -0.300  1.00  0.00     0.057 C 
ENDBRANCH  15  16
ENDBRANCH  13  14
ENDBRANCH  12  13
BRANCH  12  19
HETATM   19  O1  UNL     1       1.796   0.739  -0.985  1.00  0.00    -0.312 OA
ATOM     20  H1  UNL     1       1.294   1.511  -1.217  1.00  0.00     0.237 HD
ENDBRANCH  12  19
ENDBRANCH   1  12
TORSDOF 5
