REMARK  9 active torsions:
REMARK  status: ('A' for Active; 'I' for Inactive)
REMARK    1  A    between atoms: O1_2  and  C2_3 
REMARK    2  A    between atoms: C2_3  and  C3_5 
REMARK    3  A    between atoms: C6_8  and  S1_9 
REMARK    4  A    between atoms: S1_9  and  C7_10 
REMARK    5  A    between atoms: C7_10  and  C8_11 
REMARK    6  A    between atoms: C9_12  and  C10_13 
REMARK    7  A    between atoms: C12_16  and  N1_17 
REMARK       I    between atoms: N1_17  and  C13_19 
REMARK    8  A    between atoms: C17_24  and  N2_26 
REMARK       I    between atoms: N2_26  and  C19_28 
REMARK    9  A    between atoms: C19_28  and  C20_30 
ROOT
HETATM    1  C8  UNL     1      -0.732   0.862   0.229  1.00  0.00     0.007 C 
HETATM    2  C9  UNL     1      -1.338   2.009   1.019  1.00  0.00     0.011 C 
HETATM    3  C11 UNL     1      -2.692   1.498   1.409  1.00  0.00     0.019 C 
HETATM    4  C12 UNL     1      -3.573   1.235   0.208  1.00  0.00     0.093 C 
HETATM    5  C15 UNL     1      -3.760  -0.170   0.767  1.00  0.00     0.016 C 
HETATM    6  C16 UNL     1      -3.438  -1.253  -0.203  1.00  0.00     0.038 C 
HETATM    7  C17 UNL     1      -1.924  -1.341  -0.256  1.00  0.00     0.034 C 
HETATM    8  C18 UNL     1      -1.479  -1.316  -1.664  1.00  0.00     0.039 C 
HETATM    9  C21 UNL     1      -1.335  -0.397   0.705  1.00  0.00     0.023 C 
HETATM   10  C22 UNL     1      -2.495   0.011   1.592  1.00  0.00     0.005 C 
ENDROOT
BRANCH   1  11
HETATM   11  C7  UNL     1       0.782   0.916   0.300  1.00  0.00     0.086 C 
BRANCH  11  12
HETATM   12  S1  UNL     1       1.608  -0.401  -0.596  1.00  0.00    -0.112 SA
BRANCH  12  13
HETATM   13  C6  UNL     1       3.375  -0.183  -0.405  1.00  0.00     0.069 A 
HETATM   14  C5  UNL     1       4.259  -1.060  -0.994  1.00  0.00     0.038 A 
HETATM   15  C4  UNL     1       5.610  -0.897  -0.851  1.00  0.00     0.022 A 
HETATM   16  C3  UNL     1       6.066   0.159  -0.108  1.00  0.00     0.054 A 
HETATM   17  C23 UNL     1       5.196   1.045   0.487  1.00  0.00     0.106 A 
HETATM   18  N3  UNL     1       3.885   0.851   0.324  1.00  0.00    -0.360 N 
ATOM     19  H3  UNL     1       3.237   1.504   0.764  1.00  0.00     0.166 HD
BRANCH  16  20
HETATM   20  C2  UNL     1       7.500   0.360   0.063  1.00  0.00     0.294 C 
HETATM   21  O2  UNL     1       7.947   1.325   0.743  1.00  0.00    -0.259 OA
BRANCH  20  22
HETATM   22  O1  UNL     1       8.445  -0.483  -0.501  1.00  0.00    -0.322 OA
HETATM   23  C1  UNL     1       9.839  -0.296  -0.341  1.00  0.00     0.213 C 
ENDBRANCH  20  22
ENDBRANCH  16  20
ENDBRANCH  12  13
ENDBRANCH  11  12
ENDBRANCH   1  11
BRANCH   2  24
HETATM   24  C10 UNL     1      -0.568   2.369   2.261  1.00  0.00     0.120 C 
HETATM   25 CL1  UNL     1      -0.426   1.078   3.438  1.00  0.00    -0.130 Cl
ENDBRANCH   2  24
BRANCH   7  26
HETATM   26  N2  UNL     1      -1.628  -2.707   0.236  1.00  0.00    -0.351 N 
HETATM   27  C19 UNL     1      -2.148  -3.827  -0.419  1.00  0.00     0.232 C 
HETATM   28  O4  UNL     1      -2.882  -3.821  -1.435  1.00  0.00    -0.272 OA
ATOM     29  H2  UNL     1      -1.040  -2.831   1.060  1.00  0.00     0.163 HD
BRANCH  27  30
HETATM   30  C20 UNL     1      -1.815  -5.188   0.119  1.00  0.00     0.217 C 
HETATM   31 CL2  UNL     1      -0.779  -5.065   1.544  1.00  0.00    -0.121 Cl
ENDBRANCH  27  30
ENDBRANCH   7  26
BRANCH   4  32
HETATM   32  N1  UNL     1      -4.770   2.021   0.162  1.00  0.00    -0.356 N 
HETATM   33  C13 UNL     1      -5.116   2.716  -1.009  1.00  0.00     0.213 C 
HETATM   34  C14 UNL     1      -6.363   3.553  -1.104  1.00  0.00     0.117 C 
HETATM   35  O3  UNL     1      -4.386   2.659  -2.026  1.00  0.00    -0.274 OA
ATOM     36  H1  UNL     1      -5.373   2.076   0.983  1.00  0.00     0.162 HD
ENDBRANCH   4  32
TORSDOF 9
