REMARK  0 active torsions:
REMARK  status: ('A' for Active; 'I' for Inactive)
ROOT
HETATM    1  C1  UNL     1       0.460  -0.771  -0.017  1.00  0.00     0.017 C 
HETATM    2  C2  UNL     1       1.196   0.261   0.339  1.00  0.00     0.159 C 
HETATM    3  O1  UNL     1       0.457   1.427   0.052  1.00  0.00    -0.257 OA
HETATM    4  N1  UNL     1      -0.889   1.050   0.143  1.00  0.00    -0.092 NA
HETATM    5  C3  UNL     1      -0.805  -0.220  -0.555  1.00  0.00     0.172 C 
ENDROOT
TORSDOF 0
