REMARK  15 active torsions:
REMARK  status: ('A' for Active; 'I' for Inactive)
REMARK    1  A    between atoms: C2_3  and  C3_7 
REMARK    2  A    between atoms: C3_7  and  C10_25 
REMARK    3  A    between atoms: N3_8  and  C4_10 
REMARK    4  A    between atoms: C4_10  and  C5_11 
REMARK    5  A    between atoms: C5_11  and  N4_12 
REMARK       I    between atoms: N4_12  and  C6_14 
REMARK    6  A    between atoms: C6_14  and  C7_16 
REMARK    7  A    between atoms: C9_19  and  N5_20 
REMARK    8  A    between atoms: C10_25  and  O2_26 
REMARK    9  A    between atoms: C10_25  and  C11_28 
REMARK   10  A    between atoms: C11_28  and  N7_29 
REMARK   11  A    between atoms: C11_28  and  N11_47 
REMARK   12  A    between atoms: N7_29  and  S2_31 
REMARK   13  A    between atoms: S2_31  and  C12_34 
REMARK   14  A    between atoms: N11_47  and  N12_49 
REMARK   15  A    between atoms: N12_49  and  C18_51 
ROOT
HETATM    1  N1  UNL     1       4.701   3.578  -0.848  1.00  0.00    -0.190 NA
HETATM    2  C1  UNL     1       3.588   3.274  -0.787  1.00  0.00     0.119 C 
HETATM    3  C2  UNL     1       2.152   2.938  -0.721  1.00  0.00     0.137 C 
HETATM    4  N2  UNL     1       1.358   3.914  -0.964  1.00  0.00    -0.389 N 
ATOM      5  H21 UNL     1       0.366   3.682  -0.918  1.00  0.00     0.157 HD
ATOM      6  H22 UNL     1       1.685   4.854  -1.185  1.00  0.00     0.157 HD
ENDROOT
BRANCH   3   7
HETATM    7  C3  UNL     1       1.689   1.607  -0.408  1.00  0.00     0.103 C 
HETATM    8  N3  UNL     1       2.572   0.713  -0.183  1.00  0.00    -0.384 N 
ATOM      9  H3  UNL     1       2.092  -0.163   0.021  1.00  0.00     0.159 HD
BRANCH   8  10
HETATM   10  C4  UNL     1       3.904   0.489  -0.113  1.00  0.00     0.139 C 
BRANCH  10  11
HETATM   11  C5  UNL     1       4.265  -0.955   0.300  1.00  0.00     0.142 C 
BRANCH  11  12
HETATM   12  N4  UNL     1       5.687  -1.071   0.344  1.00  0.00    -0.354 N 
HETATM   13  C6  UNL     1       6.361  -2.267   0.694  1.00  0.00     0.268 C 
HETATM   14  O1  UNL     1       5.634  -3.255   0.972  1.00  0.00    -0.266 OA
ATOM     15  H4  UNL     1       6.247  -0.251   0.111  1.00  0.00     0.162 HD
BRANCH  13  16
HETATM   16  C7  UNL     1       7.848  -2.337   0.726  1.00  0.00     0.109 A 
HETATM   17  C8  UNL     1       8.598  -1.235   0.398  1.00  0.00     0.088 A 
HETATM   18  S1  UNL     1      10.193  -1.816   0.592  1.00  0.00    -0.064 SA
HETATM   19  C9  UNL     1       9.814  -3.406   1.073  1.00  0.00     0.142 A 
HETATM   20  N6  UNL     1       8.487  -3.424   1.064  1.00  0.00    -0.332 N 
ATOM     21  H6  UNL     1       7.977  -4.270   1.316  1.00  0.00     0.168 HD
BRANCH  19  22
HETATM   22  N5  UNL     1      10.626  -4.397   1.384  1.00  0.00    -0.380 N 
ATOM     23  H52 UNL     1      11.646  -4.383   1.391  1.00  0.00     0.158 HD
ATOM     24  H51 UNL     1      10.399  -5.349   1.672  1.00  0.00     0.158 HD
ENDBRANCH  19  22
ENDBRANCH  13  16
ENDBRANCH  11  12
ENDBRANCH  10  11
ENDBRANCH   8  10
BRANCH   7  25
HETATM   25  C10 UNL     1       0.309   1.169  -0.316  1.00  0.00     0.141 C 
BRANCH  25  26
HETATM   26  O2  UNL     1       0.220  -0.116  -0.013  1.00  0.00    -0.355 OA
ATOM     27  H2  UNL     1      -0.684  -0.403   0.047  1.00  0.00     0.218 HD
ENDBRANCH  25  26
BRANCH  25  28
HETATM   28  C11 UNL     1      -0.952   1.820  -0.480  1.00  0.00     0.166 C 
BRANCH  28  29
HETATM   29  N7  UNL     1      -1.230   2.999  -0.761  1.00  0.00    -0.261 N 
ATOM     30  H7  UNL     1      -0.380   3.549  -0.886  1.00  0.00     0.180 HD
BRANCH  29  31
HETATM   31  S2  UNL     1      -2.575   3.941  -0.992  1.00  0.00     0.283 S 
HETATM   32  O3  UNL     1      -2.780   4.134  -2.500  1.00  0.00    -0.199 OA
HETATM   33  O4  UNL     1      -2.381   5.369  -0.435  1.00  0.00    -0.199 OA
BRANCH  31  34
HETATM   34  C12 UNL     1      -4.081   3.341  -0.342  1.00  0.00     0.188 A 
HETATM   35  N8  UNL     1      -4.924   2.576  -1.042  1.00  0.00    -0.279 N 
HETATM   36  N9  UNL     1      -6.074   2.108  -0.600  1.00  0.00    -0.247 N 
ATOM     37  H8  UNL     1      -4.656   2.335  -1.996  1.00  0.00     0.188 HD
HETATM   38  C13 UNL     1      -7.053   1.337  -1.126  1.00  0.00     0.135 A 
HETATM   39  C15 UNL     1      -6.476   2.401   0.662  1.00  0.00     0.150 A 
HETATM   40  C14 UNL     1      -8.054   1.154  -0.201  1.00  0.00     0.109 A 
HETATM   41  N10 UNL     1      -7.674   1.822   0.897  1.00  0.00    -0.348 N 
ATOM     42  H10 UNL     1      -8.202   1.883   1.767  1.00  0.00     0.167 HD
HETATM   43  C16 UNL     1      -5.625   3.198   1.426  1.00  0.00     0.104 A 
HETATM   44 CL1  UNL     1      -6.113   3.594   3.059  1.00  0.00    -0.078 Cl
HETATM   45  C17 UNL     1      -4.425   3.690   0.972  1.00  0.00     0.101 A 
HETATM   46 CL2  UNL     1      -3.364   4.686   1.934  1.00  0.00    -0.079 Cl
ENDBRANCH  31  34
ENDBRANCH  29  31
ENDBRANCH  28  29
BRANCH  28  47
HETATM   47  N11 UNL     1      -2.137   0.956  -0.303  1.00  0.00    -0.268 N 
ATOM     48  H11 UNL     1      -2.763   1.131   0.483  1.00  0.00     0.189 HD
BRANCH  47  49
HETATM   49  N12 UNL     1      -2.421  -0.074  -1.162  1.00  0.00    -0.131 N 
ATOM     50  H12 UNL     1      -2.162   0.011  -2.145  1.00  0.00     0.205 HD
BRANCH  49  51
HETATM   51  C18 UNL     1      -3.074  -1.268  -0.710  1.00  0.00     0.688 C 
HETATM   52  N13 UNL     1      -4.286  -1.260  -0.288  1.00  0.00    -0.225 N 
HETATM   53  C19 UNL     1      -5.008  -2.403   0.179  1.00  0.00     0.139 C 
ATOM     54  H13 UNL     1      -4.775  -0.365  -0.285  1.00  0.00     0.177 HD
HETATM   55  C20 UNL     1      -4.265  -3.695   0.130  1.00  0.00     0.040 C 
HETATM   56  C21 UNL     1      -3.141  -3.717  -0.871  1.00  0.00     0.139 C 
HETATM   57  N14 UNL     1      -2.373  -2.504  -0.721  1.00  0.00    -0.225 N 
ATOM     58  H14 UNL     1      -1.358  -2.533  -0.626  1.00  0.00     0.177 HD
ENDBRANCH  49  51
ENDBRANCH  47  49
ENDBRANCH  28  47
ENDBRANCH  25  28
ENDBRANCH   7  25
ENDBRANCH   3   7
TORSDOF 15
