REMARK  3 active torsions:
REMARK  status: ('A' for Active; 'I' for Inactive)
REMARK    1  A    between atoms: S1_2  and  C2_5 
REMARK    2  A    between atoms: C2_5  and  C3_6 
REMARK    3  A    between atoms: C4_7  and  C5_8 
ROOT
HETATM    1  C3  UNL     1       1.017   0.236   0.352  1.00  0.00    -0.087 C 
HETATM    2  C4  UNL     1       2.131   0.035  -0.050  1.00  0.00    -0.047 C 
ENDROOT
BRANCH   1   3
HETATM    3  C2  UNL     1      -0.342   0.458   0.847  1.00  0.00     0.233 C 
BRANCH   3   4
HETATM    4  S1  UNL     1      -1.453  -0.184  -0.396  1.00  0.00     0.151 S 
HETATM    5  C1  UNL     1      -3.114   0.095   0.224  1.00  0.00     0.162 C 
HETATM    6  O1  UNL     1      -1.236  -1.656  -0.589  1.00  0.00    -0.227 OA
HETATM    7  O2  UNL     1      -1.239   0.531  -1.699  1.00  0.00    -0.227 OA
ENDBRANCH   3   4
ENDBRANCH   1   3
BRANCH   2   8
HETATM    8  C5  UNL     1       3.497  -0.231  -0.527  1.00  0.00     0.253 C 
HETATM    9 CL1  UNL     1       4.518   1.223  -0.427  1.00  0.00    -0.070 Cl
HETATM   10 CL2  UNL     1       4.242  -1.543   0.421  1.00  0.00    -0.070 Cl
HETATM   11 CL3  UNL     1       3.367  -0.667  -2.249  1.00  0.00    -0.070 Cl
ENDBRANCH   2   8
TORSDOF 3
