REMARK  4 active torsions:
REMARK  status: ('A' for Active; 'I' for Inactive)
REMARK    1  A    between atoms: C2_2  and  S1_3 
REMARK    2  A    between atoms: S1_3  and  N1_6 
REMARK    3  A    between atoms: N1_6  and  C3_8 
REMARK    4  A    between atoms: C5_10  and  O3_11 
ROOT
HETATM    1  N1  UNL     1      -0.275  -0.737   0.516  1.00  0.00    -0.309 N 
ATOM      2  H1  UNL     1      -0.620  -1.695   0.460  1.00  0.00     0.172 HD
ENDROOT
BRANCH   1   3
HETATM    3  S1  UNL     1       1.253  -0.331   1.189  1.00  0.00     0.248 S 
HETATM    4  O1  UNL     1       1.883  -1.617   1.653  1.00  0.00    -0.201 OA
HETATM    5  O2  UNL     1       1.105   0.544   2.399  1.00  0.00    -0.201 OA
BRANCH   3   6
HETATM    6  C2  UNL     1       2.307   0.424   0.037  1.00  0.00     0.121 C 
HETATM    7  C1  UNL     1       3.588   0.124   0.027  1.00  0.00     0.025 C 
ENDBRANCH   3   6
ENDBRANCH   1   3
BRANCH   1   8
HETATM    8  C3  UNL     1      -1.016   0.381   0.044  1.00  0.00     0.124 A 
HETATM    9  C4  UNL     1      -1.769   0.122  -1.262  1.00  0.00     0.062 A 
HETATM   10  C5  UNL     1      -2.524   0.289   0.039  1.00  0.00     0.143 A 
BRANCH  10  11
HETATM   11  O3  UNL     1      -3.128  -0.880   0.487  1.00  0.00    -0.393 OA
ATOM     12  H3  UNL     1      -4.076  -0.938   0.484  1.00  0.00     0.210 HD
ENDBRANCH  10  11
ENDBRANCH   1   8
TORSDOF 4
