REMARK  3 active torsions:
REMARK  status: ('A' for Active; 'I' for Inactive)
REMARK    1  A    between atoms: O1_2  and  C2_3 
REMARK    2  A    between atoms: C5_6  and  N1_7 
REMARK    3  A    between atoms: C6_11  and  N2_12 
REMARK       I    between atoms: N2_12  and  C7_14 
ROOT
HETATM    1  C2  UNL     1      -1.389   0.039  -0.040  1.00  0.00     0.145 C 
HETATM    2  C3  UNL     1      -1.775  -1.219  -0.755  1.00  0.00     0.036 C 
HETATM    3  C4  UNL     1      -0.430  -1.635  -1.335  1.00  0.00     0.037 C 
HETATM    4  C5  UNL     1       0.447  -1.453  -0.143  1.00  0.00     0.208 C 
HETATM    5  C6  UNL     1       0.048  -0.127   0.397  1.00  0.00     0.143 C 
ENDROOT
BRANCH   5   6
HETATM    6  N2  UNL     1       0.813   0.980  -0.068  1.00  0.00    -0.356 N 
HETATM    7  C7  UNL     1       2.176   1.205   0.124  1.00  0.00     0.182 C 
HETATM    8  N3  UNL     1       2.975   1.288  -0.854  1.00  0.00    -0.374 N 
HETATM    9  N4  UNL     1       2.674   1.343   1.430  1.00  0.00    -0.064 NA
ATOM     10  H32 UNL     1       2.613   1.188  -1.802  1.00  0.00     0.158 HD
ATOM     11  H31 UNL     1       3.972   1.453  -0.714  1.00  0.00     0.158 HD
ATOM     12  H2  UNL     1       0.308   1.688  -0.601  1.00  0.00     0.162 HD
ENDBRANCH   5   6
BRANCH   1  13
HETATM   13  O1  UNL     1      -2.184   0.390   1.008  1.00  0.00    -0.389 OA
HETATM   14  C1  UNL     1      -2.848   1.586   0.891  1.00  0.00     0.202 C 
ENDBRANCH   1  13
BRANCH   4  15
HETATM   15  N1  UNL     1       1.845  -1.610  -0.395  1.00  0.00    -0.073 N 
ATOM     16  H13 UNL     1       2.025  -2.514  -0.831  1.00  0.00     0.274 HD
ATOM     17  H12 UNL     1       2.140  -0.988  -1.148  1.00  0.00     0.274 HD
ATOM     18  H11 UNL     1       2.445  -1.485   0.420  1.00  0.00     0.274 HD
ENDBRANCH   4  15
TORSDOF 3
