REMARK  4 active torsions:
REMARK  status: ('A' for Active; 'I' for Inactive)
REMARK    1  A    between atoms: N1_2  and  S1_4 
REMARK    2  A    between atoms: S1_4  and  N2_7 
REMARK    3  A    between atoms: N2_7  and  C2_9 
REMARK    4  A    between atoms: C2_9  and  O3_13 
ROOT
HETATM    1  N2  UNL     1      -0.012  -0.839  -0.524  1.00  0.00    -0.233 N 
ATOM      2  H2  UNL     1      -0.275  -1.021  -1.493  1.00  0.00     0.184 HD
ENDROOT
BRANCH   1   3
HETATM    3  S1  UNL     1      -1.136  -1.080   0.752  1.00  0.00     0.321 S 
HETATM    4  O1  UNL     1      -0.369  -1.425   2.006  1.00  0.00    -0.182 OA
HETATM    5  O2  UNL     1      -1.984  -2.259   0.416  1.00  0.00    -0.182 OA
BRANCH   3   6
HETATM    6  N1  UNL     1      -2.014   0.346   1.037  1.00  0.00    -0.307 N 
HETATM    7  C1  UNL     1      -3.222   0.455   0.265  1.00  0.00     0.161 C 
ATOM      8  H1  UNL     1      -1.711   1.062   1.698  1.00  0.00     0.173 HD
ENDBRANCH   3   6
ENDBRANCH   1   3
BRANCH   1   9
HETATM    9  C2  UNL     1       1.286  -0.382  -0.200  1.00  0.00     0.227 C 
HETATM   10  N3  UNL     1       2.038  -1.112   0.531  1.00  0.00    -0.365 N 
ATOM     11  H32 UNL     1       1.684  -2.009   0.864  1.00  0.00     0.159 HD
ATOM     12  H31 UNL     1       2.975  -0.782   0.765  1.00  0.00     0.159 HD
BRANCH   9  13
HETATM   13  O3  UNL     1       1.764   0.829  -0.649  1.00  0.00    -0.327 OA
HETATM   14  C3  UNL     1       3.122   1.221  -0.420  1.00  0.00     0.213 C 
ENDBRANCH   9  13
ENDBRANCH   1   9
TORSDOF 4
