REMARK  3 active torsions:
REMARK  status: ('A' for Active; 'I' for Inactive)
REMARK    1  A    between atoms: O1_1  and  C1_3 
REMARK    2  A    between atoms: C1_3  and  N1_4 
REMARK    3  A    between atoms: C5_8  and  C6_9 
ROOT
HETATM    1  C1  UNL     1       0.370   0.210  -0.326  1.00  0.00     0.136 C 
HETATM    2  C8  UNL     1       0.719  -1.265  -0.325  1.00  0.00     0.061 C 
HETATM    3  C9  UNL     1       2.113  -1.498  -0.867  1.00  0.00     0.005 C 
HETATM    4  C10 UNL     1       3.185  -1.415   0.172  1.00  0.00     0.000 C 
HETATM    5  C11 UNL     1       3.975  -0.152  -0.087  1.00  0.00     0.000 C 
HETATM    6  C12 UNL     1       3.572   0.995   0.784  1.00  0.00     0.000 C 
HETATM    7  C13 UNL     1       2.311   1.695   0.279  1.00  0.00     0.005 C 
HETATM    8  C14 UNL     1       1.050   1.001   0.731  1.00  0.00     0.061 C 
ENDROOT
BRANCH   1   9
HETATM    9  O1  UNL     1       0.909   0.683  -1.557  1.00  0.00    -0.370 OA
ATOM     10  H1  UNL     1       1.850   0.579  -1.474  1.00  0.00     0.212 HD
ENDBRANCH   1   9
BRANCH   1  11
HETATM   11  N1  UNL     1      -1.028   0.364  -0.449  1.00  0.00    -0.341 N 
HETATM   12  C2  UNL     1      -1.623  -0.105  -1.632  1.00  0.00     0.066 C 
HETATM   13  C3  UNL     1      -2.946   0.631  -1.813  1.00  0.00     0.046 C 
HETATM   14  C4  UNL     1      -3.848   0.080  -0.720  1.00  0.00     0.024 C 
HETATM   15  C5  UNL     1      -3.238   0.222   0.637  1.00  0.00     0.132 C 
HETATM   16  C7  UNL     1      -1.802   0.553   0.696  1.00  0.00     0.079 C 
BRANCH  15  17
HETATM   17  C6  UNL     1      -3.567  -1.010   1.492  1.00  0.00     0.395 C 
HETATM   18  F1  UNL     1      -3.002  -0.883   2.750  1.00  0.00    -0.170 F 
HETATM   19  F2  UNL     1      -3.049  -2.167   0.940  1.00  0.00    -0.170 F 
HETATM   20  F3  UNL     1      -4.931  -1.158   1.651  1.00  0.00    -0.170 F 
ENDBRANCH  15  17
ENDBRANCH   1  11
TORSDOF 3
