REMARK  13 active torsions:
REMARK  status: ('A' for Active; 'I' for Inactive)
REMARK    1  A    between atoms: O1_2  and  C2_3 
REMARK    2  A    between atoms: C5_7  and  C6_8 
REMARK    3  A    between atoms: C8_10  and  O2_11 
REMARK    4  A    between atoms: C11_15  and  C12_16 
REMARK    5  A    between atoms: C12_16  and  O3_17 
REMARK    6  A    between atoms: O3_17  and  C13_18 
REMARK    7  A    between atoms: C13_18  and  C14_20 
REMARK    8  A    between atoms: C14_20  and  C15_21 
REMARK    9  A    between atoms: C15_21  and  O5_22 
REMARK   10  A    between atoms: C15_21  and  C16_24 
REMARK   11  A    between atoms: C16_24  and  C17_25 
REMARK   12  A    between atoms: C23_31  and  O6_32 
REMARK   13  A    between atoms: C31_41  and  N1_42 
ROOT
HETATM    1  C6  UNL     1       3.796  -0.097  -0.649  1.00  0.00     0.017 C 
HETATM    2  C7  UNL     1       2.525   0.137  -0.605  1.00  0.00    -0.042 C 
HETATM    3  C8  UNL     1       1.814   1.375  -0.236  1.00  0.00     0.148 C 
HETATM    4  C9  UNL     1       0.310   1.034  -0.492  1.00  0.00     0.042 C 
HETATM    5  C10 UNL     1       0.381  -0.391  -0.028  1.00  0.00     0.007 C 
HETATM    6  C11 UNL     1      -0.822  -1.175   0.162  1.00  0.00     0.024 C 
HETATM    7  C20 UNL     1      -0.519  -2.633   0.165  1.00  0.00    -0.034 C 
HETATM    8  C21 UNL     1      -1.633  -3.593   0.040  1.00  0.00     0.012 C 
HETATM    9  C22 UNL     1      -1.727  -4.578   1.223  1.00  0.00     0.032 C 
HETATM   10  C23 UNL     1      -0.453  -5.330   1.413  1.00  0.00     0.118 C 
HETATM   11  C24 UNL     1       0.647  -4.318   1.640  1.00  0.00     0.032 C 
HETATM   12  C25 UNL     1       0.144  -2.919   1.530  1.00  0.00     0.012 C 
HETATM   13  C26 UNL     1       0.544  -3.050  -0.836  1.00  0.00     0.011 C 
HETATM   14  C27 UNL     1       1.840  -2.279  -0.664  1.00  0.00     0.015 C 
HETATM   15  C28 UNL     1       1.455  -0.861  -0.955  1.00  0.00    -0.014 C 
HETATM   16  C29 UNL     1       1.192  -0.694  -2.407  1.00  0.00     0.020 C 
ENDROOT
BRANCH   1  17
HETATM   17  C5  UNL     1       4.888   0.825  -0.337  1.00  0.00    -0.032 A 
HETATM   18  C4  UNL     1       5.971   0.830  -1.236  1.00  0.00     0.038 A 
HETATM   19  C3  UNL     1       7.046   1.658  -1.007  1.00  0.00     0.070 A 
HETATM   20  C2  UNL     1       7.036   2.473   0.109  1.00  0.00     0.123 A 
HETATM   21 CL1  UNL     1       8.405   1.668  -2.132  1.00  0.00    -0.081 Cl
HETATM   22  C31 UNL     1       6.002   2.496   1.004  1.00  0.00     0.138 A 
HETATM   23  C30 UNL     1       4.912   1.648   0.762  1.00  0.00     0.050 A 
BRANCH  20  24
HETATM   24  O1  UNL     1       8.124   3.303   0.328  1.00  0.00    -0.352 OA
HETATM   25  C1  UNL     1       9.263   2.940   1.074  1.00  0.00     0.210 C 
ENDBRANCH  20  24
BRANCH  22  26
HETATM   26  N1  UNL     1       5.971   3.321   2.149  1.00  0.00    -0.113 N 
HETATM   27  O7  UNL     1       5.335   3.020   3.173  1.00  0.00    -0.532 OA
HETATM   28  O8  UNL     1       6.665   4.501   2.139  1.00  0.00    -0.532 OA
ENDBRANCH  22  26
ENDBRANCH   1  17
BRANCH   3  29
HETATM   29  O2  UNL     1       2.175   2.467  -1.024  1.00  0.00    -0.391 OA
ATOM     30  H2  UNL     1       1.717   3.265  -0.786  1.00  0.00     0.210 HD
ENDBRANCH   3  29
BRANCH   6  31
HETATM   31  C12 UNL     1      -2.029  -0.789  -0.660  1.00  0.00     0.184 C 
BRANCH  31  32
HETATM   32  O3  UNL     1      -2.414   0.556  -0.396  1.00  0.00    -0.321 OA
BRANCH  32  33
HETATM   33  C13 UNL     1      -3.533   1.041  -1.067  1.00  0.00     0.261 C 
HETATM   34  O4  UNL     1      -4.154   0.323  -1.854  1.00  0.00    -0.265 OA
BRANCH  33  35
HETATM   35  C14 UNL     1      -3.888   2.468  -0.741  1.00  0.00     0.142 C 
BRANCH  35  36
HETATM   36  C15 UNL     1      -4.459   2.603   0.617  1.00  0.00     0.127 C 
BRANCH  36  37
HETATM   37  O5  UNL     1      -4.673   4.044   0.760  1.00  0.00    -0.395 OA
ATOM     38  H5  UNL     1      -5.040   4.131   1.632  1.00  0.00     0.210 HD
ENDBRANCH  36  37
BRANCH  36  39
HETATM   39  C16 UNL     1      -5.774   1.992   0.899  1.00  0.00     0.036 C 
BRANCH  39  40
HETATM   40  C17 UNL     1      -6.990   2.484   0.220  1.00  0.00    -0.020 C 
HETATM   41  C18 UNL     1      -8.162   1.623   0.759  1.00  0.00     0.009 C 
HETATM   42  C19 UNL     1      -7.025   2.509  -1.255  1.00  0.00     0.009 C 
ENDBRANCH  39  40
ENDBRANCH  36  39
ENDBRANCH  35  36
ENDBRANCH  33  35
ENDBRANCH  32  33
ENDBRANCH  31  32
ENDBRANCH   6  31
BRANCH  10  43
HETATM   43  O6  UNL     1      -0.632  -6.186   2.495  1.00  0.00    -0.396 OA
ATOM     44  H6  UNL     1       0.179  -6.665   2.616  1.00  0.00     0.210 HD
ENDBRANCH  10  43
TORSDOF 13
