REMARK  9 active torsions:
REMARK  status: ('A' for Active; 'I' for Inactive)
REMARK    1  A    between atoms: C2_2  and  N1_3 
REMARK    2  A    between atoms: C2_2  and  C10_13 
REMARK       I    between atoms: N1_3  and  C3_5 
REMARK    3  A    between atoms: C3_5  and  C4_7 
REMARK       I    between atoms: C10_13  and  N2_15 
REMARK    4  A    between atoms: N2_15  and  C11_17 
REMARK    5  A    between atoms: C11_17  and  C12_18 
REMARK    6  A    between atoms: C11_17  and  C21_32 
REMARK       I    between atoms: C12_18  and  N3_20 
REMARK    7  A    between atoms: N3_20  and  C13_22 
REMARK    8  A    between atoms: C13_22  and  C14_23 
REMARK    9  A    between atoms: C19_28  and  C20_29 
ROOT
HETATM    1  C11 UNL     1      -0.911   0.111  -1.453  1.00  0.00     0.207 C 
ENDROOT
BRANCH   1   2
HETATM    2  N2  UNL     1       0.195  -0.795  -1.177  1.00  0.00    -0.344 N 
HETATM    3  C10 UNL     1       1.478  -0.385  -0.807  1.00  0.00     0.240 C 
HETATM    4  O2  UNL     1       1.698   0.848  -0.693  1.00  0.00    -0.271 OA
ATOM      5  H2  UNL     1       0.021  -1.797  -1.259  1.00  0.00     0.163 HD
BRANCH   3   6
HETATM    6  C2  UNL     1       2.605  -1.313  -0.534  1.00  0.00     0.172 C 
HETATM    7  C1  UNL     1       2.287  -2.390   0.448  1.00  0.00     0.042 C 
BRANCH   6   8
HETATM    8  N1  UNL     1       3.760  -0.582  -0.077  1.00  0.00    -0.348 N 
HETATM    9  C3  UNL     1       4.924  -0.449  -0.849  1.00  0.00     0.222 C 
HETATM   10  O1  UNL     1       4.936  -0.996  -1.998  1.00  0.00    -0.273 OA
ATOM     11  H1  UNL     1       3.730  -0.144   0.844  1.00  0.00     0.163 HD
BRANCH   9  12
HETATM   12  C4  UNL     1       6.126   0.276  -0.422  1.00  0.00     0.078 C 
HETATM   13  C5  UNL     1       7.176   0.387  -1.475  1.00  0.00     0.014 C 
HETATM   14  C6  UNL     1       8.340   1.250  -1.134  1.00  0.00     0.001 C 
HETATM   15  C7  UNL     1       7.971   2.540  -0.452  1.00  0.00     0.000 C 
HETATM   16  C8  UNL     1       6.981   2.344   0.668  1.00  0.00     0.001 C 
HETATM   17  C9  UNL     1       5.740   1.616   0.155  1.00  0.00     0.014 C 
ENDBRANCH   9  12
ENDBRANCH   6   8
ENDBRANCH   3   6
ENDBRANCH   1   2
BRANCH   1  18
HETATM   18  C12 UNL     1      -1.771   0.237  -0.223  1.00  0.00     0.243 C 
HETATM   19  O3  UNL     1      -1.458  -0.427   0.779  1.00  0.00    -0.271 OA
HETATM   20  N3  UNL     1      -2.900   1.081  -0.183  1.00  0.00    -0.359 N 
ATOM     21  H3  UNL     1      -3.125   1.606  -1.028  1.00  0.00     0.162 HD
BRANCH  20  22
HETATM   22  C13 UNL     1      -3.750   1.258   0.944  1.00  0.00     0.128 C 
BRANCH  22  23
HETATM   23  C14 UNL     1      -4.449   0.050   1.465  1.00  0.00     0.018 C 
HETATM   24  C15 UNL     1      -5.362  -0.635   0.503  1.00  0.00     0.007 C 
HETATM   25  C16 UNL     1      -6.211  -1.623   1.259  1.00  0.00     0.000 C 
HETATM   26  C17 UNL     1      -5.584  -2.076   2.561  1.00  0.00     0.001 C 
HETATM   27  C18 UNL     1      -5.524  -0.901   3.494  1.00  0.00     0.016 C 
HETATM   28  C19 UNL     1      -5.136   0.377   2.783  1.00  0.00     0.092 C 
BRANCH  28  29
HETATM   29  C20 UNL     1      -6.307   1.247   2.641  1.00  0.00     0.177 C 
HETATM   30  O4  UNL     1      -6.776   1.693   1.568  1.00  0.00    -0.648 OA
HETATM   31  O5  UNL     1      -6.977   1.622   3.797  1.00  0.00    -0.648 OA
ENDBRANCH  28  29
ENDBRANCH  22  23
ENDBRANCH  20  22
ENDBRANCH   1  18
BRANCH   1  32
HETATM   32  C21 UNL     1      -1.697  -0.482  -2.558  1.00  0.00     0.179 C 
HETATM   33  C22 UNL     1      -0.898  -0.657  -3.833  1.00  0.00     0.205 C 
HETATM   34  O6  UNL     1      -1.912  -0.862  -4.768  1.00  0.00    -0.364 OA
HETATM   35  C23 UNL     1      -3.105  -0.446  -4.200  1.00  0.00     0.338 C 
HETATM   36  O7  UNL     1      -2.790   0.208  -2.999  1.00  0.00    -0.357 OA
ENDBRANCH   1  32
TORSDOF 9
