REMARK  12 active torsions:
REMARK  status: ('A' for Active; 'I' for Inactive)
REMARK    1  A    between atoms: N1_2  and  C2_5 
REMARK    2  A    between atoms: C2_5  and  N2_6 
REMARK    3  A    between atoms: C2_5  and  S2_39 
REMARK    4  A    between atoms: N2_6  and  C3_8 
REMARK    5  A    between atoms: C4_11  and  S1_12 
REMARK    6  A    between atoms: C6_16  and  C7_17 
REMARK    7  A    between atoms: C7_17  and  O1_18 
REMARK    8  A    between atoms: C7_17  and  O2_20 
REMARK    9  A    between atoms: C8_22  and  C9_23 
REMARK   10  A    between atoms: C10_26  and  N6_27 
REMARK       I    between atoms: N6_27  and  C11_29 
REMARK   11  A    between atoms: C11_29  and  C12_31 
REMARK   12  A    between atoms: C12_31  and  N7_32 
ROOT
HETATM    1  C3  UNL     1      -1.460  -0.429   0.280  1.00  0.00     0.122 A 
HETATM    2  N3  UNL     1      -2.573  -0.905   0.864  1.00  0.00    -0.322 N 
ATOM      3  H3  UNL     1      -3.404  -0.314   0.872  1.00  0.00     0.169 HD
HETATM    4  C4  UNL     1      -2.650  -2.114   1.436  1.00  0.00     0.145 A 
HETATM    5  N4  UNL     1      -1.559  -2.875   1.414  1.00  0.00    -0.335 N 
ATOM      6  H4  UNL     1      -1.593  -3.800   1.842  1.00  0.00     0.168 HD
HETATM    7  C6  UNL     1      -0.378  -2.449   0.828  1.00  0.00     0.084 A 
HETATM    8  C8  UNL     1      -0.298  -1.224   0.253  1.00  0.00     0.089 A 
ENDROOT
BRANCH   8   9
HETATM    9  C9  UNL     1       0.905  -0.672  -0.329  1.00  0.00     0.201 A 
HETATM   10  N5  UNL     1       2.166  -1.079  -0.420  1.00  0.00    -0.165 N 
HETATM   11  C10 UNL     1       2.912  -0.175  -1.069  1.00  0.00     0.707 A 
ATOM     12  H5  UNL     1       2.519  -1.960  -0.046  1.00  0.00     0.186 HD
HETATM   13  N8  UNL     1       2.082   0.829  -1.394  1.00  0.00    -0.089 N 
HETATM   14  O4  UNL     1       0.925   0.513  -0.952  1.00  0.00    -0.203 OA
ATOM     15  H8  UNL     1       2.328   1.681  -1.898  1.00  0.00     0.213 HD
BRANCH  11  16
HETATM   16  N6  UNL     1       4.165  -0.199  -1.357  1.00  0.00    -0.156 N 
HETATM   17  C11 UNL     1       4.777   0.866  -2.059  1.00  0.00     0.261 C 
HETATM   18  O3  UNL     1       4.534   1.039  -3.279  1.00  0.00    -0.271 OA
ATOM     19  H6  UNL     1       4.728  -1.001  -1.074  1.00  0.00     0.187 HD
BRANCH  17  20
HETATM   20  C12 UNL     1       5.721   1.818  -1.411  1.00  0.00     0.332 C 
BRANCH  20  21
HETATM   21  N7  UNL     1       6.207   2.807  -2.328  1.00  0.00    -0.071 N 
ATOM     22  H73 UNL     1       6.627   2.373  -3.150  1.00  0.00     0.274 HD
ATOM     23  H72 UNL     1       5.438   3.301  -2.780  1.00  0.00     0.274 HD
ATOM     24  H71 UNL     1       6.854   3.459  -1.884  1.00  0.00     0.274 HD
ENDBRANCH  20  21
ENDBRANCH  17  20
ENDBRANCH  11  16
ENDBRANCH   8   9
BRANCH   1  25
HETATM   25  N2  UNL     1      -1.388   0.720  -0.263  1.00  0.00    -0.340 N 
ATOM     26  H2  UNL     1      -0.518   1.032  -0.694  1.00  0.00     0.164 HD
BRANCH  25  27
HETATM   27  C2  UNL     1      -2.550   1.578  -0.264  1.00  0.00     0.348 C 
BRANCH  27  28
HETATM   28  N1  UNL     1      -2.387   2.691  -1.195  1.00  0.00    -0.049 N 
HETATM   29  C1  UNL     1      -3.550   3.525  -1.178  1.00  0.00     0.270 C 
ATOM     30  H12 UNL     1      -2.162   2.370  -2.137  1.00  0.00     0.280 HD
ATOM     31  H11 UNL     1      -1.535   3.221  -1.010  1.00  0.00     0.280 HD
ENDBRANCH  27  28
BRANCH  27  32
HETATM   32  S2  UNL     1      -2.720   2.238   1.439  1.00  0.00    -0.120 SA
HETATM   33  C13 UNL     1      -1.142   3.005   1.875  1.00  0.00     0.093 C 
ENDBRANCH  27  32
ENDBRANCH  25  27
ENDBRANCH   1  25
BRANCH   7  34
HETATM   34  C7  UNL     1       0.751  -3.406   0.761  1.00  0.00     0.306 C 
BRANCH  34  35
HETATM   35  O1  UNL     1       1.232  -3.619  -0.523  1.00  0.00    -0.366 OA
ATOM     36  H1  UNL     1       1.956  -4.233  -0.566  1.00  0.00     0.213 HD
ENDBRANCH  34  35
BRANCH  34  37
HETATM   37  O2  UNL     1       0.274  -4.669   1.183  1.00  0.00    -0.366 OA
ATOM     38  H2  UNL     1       0.998  -5.283   1.140  1.00  0.00     0.213 HD
ENDBRANCH  34  37
ENDBRANCH   7  34
BRANCH   4  39
HETATM   39  S1  UNL     1      -4.186  -2.676   2.204  1.00  0.00    -0.098 SA
HETATM   40  C5  UNL     1      -3.950  -4.323   2.868  1.00  0.00     0.099 C 
ENDBRANCH   4  39
TORSDOF 12
