REMARK  2 active torsions:
REMARK  status: ('A' for Active; 'I' for Inactive)
REMARK    1  A    between atoms: C3_3  and  N1_4 
REMARK    2  A    between atoms: C10_14  and  O1_15 
ROOT
HETATM    1  C1  UNL     1       0.801   2.212  -1.144  1.00  0.00     0.020 C 
HETATM    2  C2  UNL     1       0.434   1.091  -0.571  1.00  0.00    -0.020 C 
HETATM    3  C3  UNL     1      -0.939   0.782  -0.107  1.00  0.00     0.149 C 
HETATM    4  C4  UNL     1      -1.421  -0.433  -0.850  1.00  0.00     0.048 C 
HETATM    5  C5  UNL     1      -0.449  -1.556  -0.626  1.00  0.00    -0.008 C 
HETATM    6  C6  UNL     1      -0.459  -1.884   0.851  1.00  0.00     0.009 C 
HETATM    7  C7  UNL     1       0.068  -0.696   1.626  1.00  0.00    -0.008 C 
HETATM    8  C8  UNL     1      -0.862   0.471   1.373  1.00  0.00     0.048 C 
HETATM    9  C9  UNL     1       1.444  -0.271   1.142  1.00  0.00     0.047 C 
HETATM   10  C10 UNL     1       1.434  -0.016  -0.336  1.00  0.00     0.084 C 
HETATM   11  C11 UNL     1       0.929  -1.206  -1.124  1.00  0.00     0.047 C 
ENDROOT
BRANCH   3  12
HETATM   12  N1  UNL     1      -1.859   1.868  -0.315  1.00  0.00    -0.066 N 
ATOM     13  H13 UNL     1      -1.513   2.726   0.115  1.00  0.00     0.275 HD
ATOM     14  H12 UNL     1      -1.862   2.161  -1.292  1.00  0.00     0.275 HD
ATOM     15  H11 UNL     1      -2.804   1.655   0.004  1.00  0.00     0.275 HD
ENDBRANCH   3  12
BRANCH  10  16
HETATM   16  O1  UNL     1       2.681   0.411  -0.730  1.00  0.00    -0.385 OA
ATOM     17  H1  UNL     1       3.310  -0.285  -0.582  1.00  0.00     0.211 HD
ENDBRANCH  10  16
TORSDOF 2
