REMARK  9 active torsions:
REMARK  status: ('A' for Active; 'I' for Inactive)
REMARK    1  A    between atoms: O1_2  and  C2_3 
REMARK    2  A    between atoms: C2_3  and  C3_5 
REMARK    3  A    between atoms: C3_5  and  C4_7 
REMARK    4  A    between atoms: C4_7  and  C5_8 
REMARK    5  A    between atoms: C5_8  and  N2_9 
REMARK    6  A    between atoms: C7_11  and  N3_12 
REMARK    7  A    between atoms: N3_12  and  C8_14 
REMARK    8  A    between atoms: C9_15  and  N4_16 
REMARK    9  A    between atoms: N4_16  and  C10_18 
ROOT
HETATM    1  C8  UNL     1      -2.379  -0.719   0.565  1.00  0.00     0.119 A 
HETATM    2  C9  UNL     1      -3.738  -0.959   0.804  1.00  0.00     0.134 A 
HETATM    3  C12 UNL     1      -3.582  -0.476   2.054  1.00  0.00     0.253 A 
HETATM    4  O4  UNL     1      -4.299  -0.280   3.086  1.00  0.00    -0.281 OA
HETATM    5  C13 UNL     1      -2.222  -0.227   1.840  1.00  0.00     0.253 A 
HETATM    6  O5  UNL     1      -1.294   0.248   2.542  1.00  0.00    -0.281 OA
ENDROOT
BRANCH   1   7
HETATM    7  N3  UNL     1      -1.620  -0.924  -0.613  1.00  0.00    -0.349 N 
ATOM      8  H3  UNL     1      -2.131  -1.177  -1.459  1.00  0.00     0.166 HD
BRANCH   7   9
HETATM    9  C7  UNL     1      -0.227  -0.809  -0.715  1.00  0.00     0.067 A 
HETATM   10  C6  UNL     1       0.764  -0.961   0.215  1.00  0.00     0.141 A 
HETATM   11  N2  UNL     1       1.958  -0.718  -0.360  1.00  0.00    -0.298 N 
HETATM   12  N8  UNL     1       1.749  -0.420  -1.619  1.00  0.00    -0.308 N 
HETATM   13  C14 UNL     1       0.440  -0.460  -1.890  1.00  0.00     0.138 A 
ATOM     14  H8  UNL     1       2.479  -0.191  -2.294  1.00  0.00     0.186 HD
BRANCH  11  15
HETATM   15  C5  UNL     1       3.230  -0.790   0.351  1.00  0.00     0.177 C 
BRANCH  15  16
HETATM   16  C4  UNL     1       3.524   0.526   0.913  1.00  0.00     0.027 C 
BRANCH  16  17
HETATM   17  C3  UNL     1       4.537   1.277   0.672  1.00  0.00     0.119 C 
HETATM   18  N1  UNL     1       4.583   2.556   1.379  1.00  0.00    -0.096 NA
BRANCH  17  19
HETATM   19  C2  UNL     1       5.625   0.982  -0.220  1.00  0.00     0.306 C 
HETATM   20  O2  UNL     1       6.554   1.869  -0.324  1.00  0.00    -0.258 OA
BRANCH  19  21
HETATM   21  O1  UNL     1       5.828  -0.124  -0.993  1.00  0.00    -0.322 OA
HETATM   22  C1  UNL     1       6.955  -0.295  -1.840  1.00  0.00     0.213 C 
ENDBRANCH  19  21
ENDBRANCH  17  19
ENDBRANCH  16  17
ENDBRANCH  15  16
ENDBRANCH  11  15
ENDBRANCH   7   9
ENDBRANCH   1   7
BRANCH   2  23
HETATM   23  N4  UNL     1      -4.863  -1.477   0.106  1.00  0.00    -0.184 N 
ATOM     24  H4  UNL     1      -4.954  -2.480  -0.053  1.00  0.00     0.184 HD
BRANCH  23  25
HETATM   25  C10 UNL     1      -5.758  -0.671  -0.319  1.00  0.00     0.701 A 
HETATM   26  N5  UNL     1      -5.753   0.655  -0.174  1.00  0.00    -0.128 N 
HETATM   27  N6  UNL     1      -6.844   1.124  -0.747  1.00  0.00    -0.237 N 
ATOM     28  H5  UNL     1      -5.035   1.207   0.295  1.00  0.00     0.205 HD
HETATM   29  C11 UNL     1      -7.560   0.114  -1.265  1.00  0.00     0.353 A 
ATOM     30  H6  UNL     1      -7.105   2.109  -0.790  1.00  0.00     0.192 HD
HETATM   31  O3  UNL     1      -8.646   0.244  -1.872  1.00  0.00    -0.245 OA
HETATM   32  N7  UNL     1      -6.866  -1.005  -0.988  1.00  0.00    -0.139 N 
ATOM     33  H7  UNL     1      -7.140  -1.953  -1.246  1.00  0.00     0.189 HD
ENDBRANCH  23  25
ENDBRANCH   2  23
TORSDOF 9
