REMARK  8 active torsions:
REMARK  status: ('A' for Active; 'I' for Inactive)
REMARK    1  A    between atoms: C2_2  and  O1_3 
REMARK    2  A    between atoms: O1_3  and  C3_4 
REMARK       I    between atoms: C3_4  and  N1_6 
REMARK    3  A    between atoms: N1_6  and  C4_8 
REMARK    4  A    between atoms: C4_8  and  C6_10 
REMARK    5  A    between atoms: C6_10  and  C7_11 
REMARK       I    between atoms: C7_11  and  N2_13 
REMARK    6  A    between atoms: N2_13  and  N3_14 
REMARK    7  A    between atoms: N3_14  and  C8_16 
REMARK    8  A    between atoms: C8_16  and  N4_18 
REMARK       I    between atoms: N4_18  and  C9_20 
ROOT
HETATM    1  C7  UNL     1       0.659  -0.694   0.531  1.00  0.00     0.314 C 
HETATM    2  O3  UNL     1      -0.202  -1.583   0.134  1.00  0.00    -0.255 OA
HETATM    3  N2  UNL     1       1.648  -0.867   1.365  1.00  0.00    -0.285 NA
ENDROOT
BRANCH   1   4
HETATM    4  C6  UNL     1       0.458   0.708  -0.067  1.00  0.00     0.146 C 
BRANCH   4   5
HETATM    5  C4  UNL     1      -0.769   0.784  -0.895  1.00  0.00     0.092 C 
HETATM    6  C5  UNL     1      -0.668  -0.142  -2.115  1.00  0.00     0.032 C 
BRANCH   5   7
HETATM    7  N1  UNL     1      -1.975   0.506  -0.144  1.00  0.00    -0.332 N 
HETATM    8  C3  UNL     1      -3.279   0.898  -0.495  1.00  0.00     0.360 C 
HETATM    9  O2  UNL     1      -3.579   1.536  -1.507  1.00  0.00    -0.239 OA
ATOM     10  H1  UNL     1      -1.869  -0.024   0.721  1.00  0.00     0.165 HD
BRANCH   8  11
HETATM   11  O1  UNL     1      -4.305   0.533   0.376  1.00  0.00    -0.304 OA
BRANCH  11  12
HETATM   12  C2  UNL     1      -5.668   0.795   0.227  1.00  0.00     0.176 C 
HETATM   13  C1  UNL     1      -6.353   0.293   1.506  1.00  0.00     0.034 C 
ENDBRANCH  11  12
ENDBRANCH   8  11
ENDBRANCH   5   7
ENDBRANCH   4   5
ENDBRANCH   1   4
BRANCH   3  14
HETATM   14  N3  UNL     1       2.692  -1.056   2.248  1.00  0.00    -0.205 N 
ATOM     15  H3  UNL     1       2.522  -1.290   3.226  1.00  0.00     0.204 HD
BRANCH  14  16
HETATM   16  C8  UNL     1       4.015  -0.912   1.741  1.00  0.00     0.203 C 
HETATM   17  S1  UNL     1       5.280  -1.118   2.715  1.00  0.00    -0.038 SA
BRANCH  16  18
HETATM   18  N4  UNL     1       4.228  -0.568   0.355  1.00  0.00    -0.302 N 
HETATM   19  C9  UNL     1       5.526  -0.406  -0.153  1.00  0.00     0.219 C 
HETATM   20  C10 UNL     1       5.672  -0.058  -1.603  1.00  0.00     0.117 C 
HETATM   21  O4  UNL     1       6.551  -0.539   0.536  1.00  0.00    -0.274 OA
ATOM     22  H4  UNL     1       3.426  -0.441  -0.262  1.00  0.00     0.171 HD
ENDBRANCH  16  18
ENDBRANCH  14  16
ENDBRANCH   3  14
TORSDOF 8
