REMARK  11 active torsions:
REMARK  status: ('A' for Active; 'I' for Inactive)
REMARK    1  A    between atoms: N1_1  and  C1_5 
REMARK    2  A    between atoms: C1_5  and  N2_6 
REMARK    3  A    between atoms: C1_5  and  C2_10 
REMARK    4  A    between atoms: C2_10  and  C3_11 
REMARK    5  A    between atoms: C3_11  and  C4_12 
REMARK    6  A    between atoms: C3_11  and  N3_18 
REMARK    7  A    between atoms: C4_12  and  C5_13 
REMARK       I    between atoms: N3_18  and  C10_20 
REMARK    8  A    between atoms: C10_20  and  C11_22 
REMARK    9  A    between atoms: C11_22  and  N4_23 
REMARK   10  A    between atoms: C11_22  and  C12_27 
REMARK   11  A    between atoms: C12_27  and  C13_28 
ROOT
HETATM    1  C3  UNL     1      -1.139  -0.432  -1.133  1.00  0.00     0.088 C 
ENDROOT
BRANCH   1   2
HETATM    2  C2  UNL     1      -1.376  -1.221  -2.373  1.00  0.00     0.087 C 
BRANCH   2   3
HETATM    3  C1  UNL     1      -1.160  -2.677  -2.374  1.00  0.00     0.380 C 
BRANCH   3   4
HETATM    4  N1  UNL     1      -1.407  -3.247  -3.725  1.00  0.00    -0.050 N 
ATOM      5  H13 UNL     1      -1.442  -4.265  -3.771  1.00  0.00     0.276 HD
ATOM      6  H12 UNL     1      -2.348  -3.109  -4.093  1.00  0.00     0.276 HD
ATOM      7  H11 UNL     1      -0.658  -2.810  -4.262  1.00  0.00     0.276 HD
ENDBRANCH   3   4
BRANCH   3   8
HETATM    8  N2  UNL     1      -2.248  -3.312  -1.593  1.00  0.00    -0.050 N 
ATOM      9  H23 UNL     1      -3.189  -3.174  -1.961  1.00  0.00     0.276 HD
ATOM     10  H22 UNL     1      -2.283  -4.330  -1.639  1.00  0.00     0.276 HD
ATOM     11  H21 UNL     1      -2.079  -2.921  -0.666  1.00  0.00     0.276 HD
ENDBRANCH   3   8
ENDBRANCH   2   3
ENDBRANCH   1   2
BRANCH   1  12
HETATM   12  C4  UNL     1      -1.965  -0.841   0.000  1.00  0.00     0.029 C 
BRANCH  12  13
HETATM   13  C5  UNL     1      -1.819  -0.075   1.275  1.00  0.00    -0.013 C 
HETATM   14  C6  UNL     1      -2.108   1.353   1.259  1.00  0.00     0.005 C 
HETATM   15  C7  UNL     1      -3.246   1.627   2.232  1.00  0.00     0.000 C 
HETATM   16  C8  UNL     1      -3.965   0.295   2.204  1.00  0.00     0.000 C 
HETATM   17  C9  UNL     1      -2.764  -0.650   2.316  1.00  0.00     0.005 C 
ENDBRANCH  12  13
ENDBRANCH   1  12
BRANCH   1  18
HETATM   18  N3  UNL     1       0.304  -0.508  -0.868  1.00  0.00    -0.355 N 
HETATM   19  C10 UNL     1       1.174   0.588  -1.041  1.00  0.00     0.248 C 
HETATM   20  O1  UNL     1       0.699   1.682  -1.440  1.00  0.00    -0.271 OA
ATOM     21  H3  UNL     1       0.694  -1.393  -0.544  1.00  0.00     0.162 HD
BRANCH  19  22
HETATM   22  C11 UNL     1       2.624   0.546  -0.784  1.00  0.00     0.275 C 
BRANCH  22  23
HETATM   23  N4  UNL     1       3.093  -0.735  -0.331  1.00  0.00    -0.066 N 
ATOM     24  H43 UNL     1       2.573  -1.039   0.492  1.00  0.00     0.275 HD
ATOM     25  H42 UNL     1       2.822  -1.469  -0.985  1.00  0.00     0.275 HD
ATOM     26  H41 UNL     1       4.097  -0.764  -0.153  1.00  0.00     0.275 HD
ENDBRANCH  22  23
BRANCH  22  27
HETATM   27  C12 UNL     1       2.986   1.605   0.233  1.00  0.00     0.047 C 
BRANCH  27  28
HETATM   28  C13 UNL     1       4.452   1.619   0.544  1.00  0.00    -0.012 A 
HETATM   29  C14 UNL     1       4.862   2.662   1.557  1.00  0.00     0.005 A 
HETATM   30  C15 UNL     1       5.274   2.794   0.142  1.00  0.00     0.005 A 
ENDBRANCH  27  28
ENDBRANCH  22  27
ENDBRANCH  19  22
ENDBRANCH   1  18
TORSDOF 11
