REMARK  9 active torsions:
REMARK  status: ('A' for Active; 'I' for Inactive)
REMARK    1  A    between atoms: C2_2  and  C3_3 
REMARK    2  A    between atoms: C3_3  and  C5_5 
REMARK    3  A    between atoms: C6_7  and  C7_8 
REMARK    4  A    between atoms: C6_7  and  C12_13 
REMARK    5  A    between atoms: C7_8  and  C8_9 
REMARK    6  A    between atoms: C12_13  and  C15_16 
REMARK    7  A    between atoms: C15_16  and  O2_17 
REMARK    8  A    between atoms: O2_17  and  C16_18 
REMARK    9  A    between atoms: C24_29  and  O6_30 
ROOT
HETATM    1  C5  UNL     1      -1.160   1.462  -1.121  1.00  0.00     0.199 C 
HETATM    2  O1  UNL     1      -1.448   0.922   0.094  1.00  0.00    -0.362 OA
HETATM    3  C6  UNL     1      -0.618  -0.173   0.350  1.00  0.00     0.116 C 
HETATM    4  C18 UNL     1       0.703   0.259  -0.189  1.00  0.00     0.196 C 
HETATM    5  O4  UNL     1       1.128  -0.582  -1.202  1.00  0.00    -0.217 OA
HETATM    6  O5  UNL     1       2.274  -0.761  -1.569  1.00  0.00    -0.226 OA
HETATM    7  C19 UNL     1       3.363  -0.660  -0.780  1.00  0.00     0.122 C 
HETATM    8  C20 UNL     1       3.527  -1.863   0.112  1.00  0.00     0.044 C 
HETATM    9  C21 UNL     1       5.011  -2.116   0.201  1.00  0.00     0.003 C 
HETATM   10  C22 UNL     1       5.423  -1.869  -1.256  1.00  0.00     0.003 C 
HETATM   11  C23 UNL     1       4.673  -0.584  -1.540  1.00  0.00     0.044 C 
HETATM   12  C24 UNL     1       3.197   0.561   0.085  1.00  0.00     0.163 C 
HETATM   13  C25 UNL     1       1.806   0.672   0.658  1.00  0.00     0.062 C 
HETATM   14  C26 UNL     1       1.726   2.169   1.029  1.00  0.00     0.016 C 
HETATM   15  C27 UNL     1       0.305   1.486  -1.026  1.00  0.00     0.197 C 
HETATM   16  O7  UNL     1       1.001   2.323  -1.524  1.00  0.00    -0.291 OA
ENDROOT
BRANCH   3  17
HETATM   17  C7  UNL     1      -1.096  -1.250  -0.647  1.00  0.00     0.070 C 
BRANCH  17  18
HETATM   18  C8  UNL     1      -0.440  -2.550  -0.531  1.00  0.00    -0.022 C 
HETATM   19  C9  UNL     1      -1.142  -3.664  -0.654  1.00  0.00    -0.091 C 
HETATM   20  C10 UNL     1      -0.496  -5.021  -0.532  1.00  0.00     0.042 C 
HETATM   21  C11 UNL     1      -2.590  -3.608  -0.977  1.00  0.00     0.042 C 
ENDBRANCH  17  18
ENDBRANCH   3  17
BRANCH   3  22
HETATM   22  C12 UNL     1      -0.876  -0.495   1.732  1.00  0.00     0.009 C 
HETATM   23  C13 UNL     1      -0.152  -1.654   2.353  1.00  0.00     0.020 C 
HETATM   24  C14 UNL     1      -0.721   0.647   2.718  1.00  0.00     0.020 C 
BRANCH  22  25
HETATM   25  C15 UNL     1      -2.374  -0.830   1.891  1.00  0.00     0.190 C 
BRANCH  25  26
HETATM   26  O2  UNL     1      -3.197   0.234   1.519  1.00  0.00    -0.321 OA
BRANCH  26  27
HETATM   27  C16 UNL     1      -4.563   0.236   1.551  1.00  0.00     0.254 C 
HETATM   28  C17 UNL     1      -5.420   1.382   1.149  1.00  0.00     0.126 C 
HETATM   29  O3  UNL     1      -5.149  -0.805   1.949  1.00  0.00    -0.266 OA
ENDBRANCH  26  27
ENDBRANCH  25  26
ENDBRANCH  22  25
ENDBRANCH   3  22
BRANCH   1  30
HETATM   30  C3  UNL     1      -1.903   2.712  -1.332  1.00  0.00     0.018 C 
HETATM   31  C4  UNL     1      -2.061   3.156  -2.775  1.00  0.00     0.013 C 
BRANCH  30  32
HETATM   32  C2  UNL     1      -1.742   3.876  -0.451  1.00  0.00     0.002 C 
HETATM   33  C1  UNL     1      -0.612   4.807  -0.723  1.00  0.00     0.005 C 
ENDBRANCH  30  32
ENDBRANCH   1  30
BRANCH  12  34
HETATM   34  O6  UNL     1       3.648   1.706  -0.568  1.00  0.00    -0.392 OA
ATOM     35  H6  UNL     1       3.543   2.476  -0.022  1.00  0.00     0.210 HD
ENDBRANCH  12  34
TORSDOF 9
