REMARK  13 active torsions:
REMARK  status: ('A' for Active; 'I' for Inactive)
REMARK    1  A    between atoms: N2_4  and  C1_6 
REMARK    2  A    between atoms: C1_6  and  C2_7 
REMARK    3  A    between atoms: C2_7  and  C3_8 
REMARK    4  A    between atoms: C3_8  and  N3_9 
REMARK    5  A    between atoms: N3_9  and  C4_11 
REMARK    6  A    between atoms: C4_11  and  C5_12 
REMARK    7  A    between atoms: C4_11  and  C8_19 
REMARK    8  A    between atoms: C5_12  and  C6_13 
REMARK    9  A    between atoms: C6_13  and  C7_14 
REMARK   10  A    between atoms: C7_14  and  N4_15 
REMARK   11  A    between atoms: C8_19  and  N5_20 
REMARK   12  A    between atoms: C10_22  and  N6_23 
REMARK   13  A    between atoms: C11_27  and  O1_28 
ROOT
HETATM    1  C4  UNL     1       0.378   0.441  -0.951  1.00  0.00     0.104 C 
ENDROOT
BRANCH   1   2
HETATM    2  N3  UNL     1       1.753   0.060  -1.186  1.00  0.00    -0.415 N 
ATOM      3  H3  UNL     1       2.257   0.357  -2.021  1.00  0.00     0.153 HD
BRANCH   2   4
HETATM    4  C3  UNL     1       2.362  -0.747  -0.195  1.00  0.00     0.115 C 
BRANCH   4   5
HETATM    5  C2  UNL     1       3.839  -1.024  -0.503  1.00  0.00     0.040 C 
BRANCH   5   6
HETATM    6  C1  UNL     1       4.298  -1.905   0.668  1.00  0.00     0.140 C 
BRANCH   6   7
HETATM    7  N2  UNL     1       5.669  -2.264   0.563  1.00  0.00    -0.343 N 
HETATM    8  N1  UNL     1       6.516  -1.359   0.424  1.00  0.00    -0.349 N 
ATOM      9  H12 UNL     1       6.214  -0.385   0.388  1.00  0.00     0.176 HD
ATOM     10  H11 UNL     1       7.500  -1.617   0.349  1.00  0.00     0.176 HD
ATOM     11  H2  UNL     1       5.955  -3.242   0.601  1.00  0.00     0.179 HD
ENDBRANCH   6   7
ENDBRANCH   5   6
ENDBRANCH   4   5
ENDBRANCH   2   4
ENDBRANCH   1   2
BRANCH   1  12
HETATM   12  C5  UNL     1       0.357   1.316   0.299  1.00  0.00     0.028 C 
BRANCH  12  13
HETATM   13  C6  UNL     1       1.242   2.540   0.047  1.00  0.00     0.029 C 
BRANCH  13  14
HETATM   14  C7  UNL     1       1.223   3.396   1.289  1.00  0.00     0.230 C 
BRANCH  14  15
HETATM   15  N4  UNL     1       2.019   4.577   1.174  1.00  0.00    -0.079 N 
ATOM     16  H43 UNL     1       2.976   4.344   0.909  1.00  0.00     0.274 HD
ATOM     17  H42 UNL     1       1.745   5.120   0.355  1.00  0.00     0.274 HD
ATOM     18  H41 UNL     1       2.006   5.156   2.014  1.00  0.00     0.274 HD
ENDBRANCH  14  15
ENDBRANCH  13  14
ENDBRANCH  12  13
ENDBRANCH   1  12
BRANCH   1  19
HETATM   19  C8  UNL     1      -0.479  -0.779  -0.767  1.00  0.00     0.285 C 
BRANCH  19  20
HETATM   20  N5  UNL     1      -1.843  -0.582  -0.525  1.00  0.00     0.017 N 
HETATM   21  C9  UNL     1      -2.234  -0.804   0.877  1.00  0.00     0.295 C 
HETATM   22  C10 UNL     1      -3.573  -0.169   1.162  1.00  0.00     0.241 C 
HETATM   23  C11 UNL     1      -4.483  -0.617   0.019  1.00  0.00     0.173 C 
HETATM   24  C12 UNL     1      -3.691  -0.373  -1.245  1.00  0.00     0.165 C 
HETATM   25  C13 UNL     1      -2.671  -1.464  -1.362  1.00  0.00     0.286 C 
HETATM   26  N7  UNL     1      -2.524   0.484  -1.001  1.00  0.00    -0.037 NA
BRANCH  22  27
HETATM   27  N6  UNL     1      -4.104  -0.689   2.406  1.00  0.00    -0.071 N 
ATOM     28  H63 UNL     1      -4.154  -1.708   2.407  1.00  0.00     0.274 HD
ATOM     29  H62 UNL     1      -3.451  -0.573   3.181  1.00  0.00     0.274 HD
ATOM     30  H61 UNL     1      -5.009  -0.260   2.599  1.00  0.00     0.274 HD
ENDBRANCH  22  27
BRANCH  23  31
HETATM   31  O1  UNL     1      -4.629  -2.002   0.196  1.00  0.00    -0.392 OA
ATOM     32  H1  UNL     1      -5.195  -2.281  -0.515  1.00  0.00     0.210 HD
ENDBRANCH  23  31
ENDBRANCH  19  20
ENDBRANCH   1  19
TORSDOF 13
