REMARK  4 active torsions:
REMARK  status: ('A' for Active; 'I' for Inactive)
REMARK    1  A    between atoms: C2_2  and  C4_4 
REMARK    2  A    between atoms: C8_8  and  C9_9 
REMARK    3  A    between atoms: C9_9  and  O1_10 
REMARK    4  A    between atoms: C9_9  and  C10_12 
ROOT
HETATM    1  C9  UNL     1       0.605  -0.628  -0.301  1.00  0.00     0.157 C 
ENDROOT
BRANCH   1   2
HETATM    2  C8  UNL     1      -0.257   0.384   0.344  1.00  0.00     0.023 C 
HETATM    3  C4  UNL     1      -1.723   0.161   0.267  1.00  0.00    -0.004 C 
HETATM    4  C5  UNL     1      -1.920  -1.115   1.029  1.00  0.00     0.005 C 
HETATM    5  C6  UNL     1      -1.091  -0.832   2.281  1.00  0.00     0.001 C 
HETATM    6  C7  UNL     1      -0.083   0.248   1.871  1.00  0.00     0.008 C 
BRANCH   3   7
HETATM    7  C2  UNL     1      -2.358   0.223  -1.057  1.00  0.00    -0.018 C 
HETATM    8  C1  UNL     1      -2.063   1.567  -1.683  1.00  0.00     0.010 C 
HETATM    9  C3  UNL     1      -3.880   0.209  -0.812  1.00  0.00     0.010 C 
ENDBRANCH   3   7
ENDBRANCH   1   2
BRANCH   1  10
HETATM   10  O1  UNL     1       0.375  -0.783  -1.670  1.00  0.00    -0.390 OA
ATOM     11  H1  UNL     1       0.929  -1.434  -2.085  1.00  0.00     0.210 HD
ENDBRANCH   1  10
BRANCH   1  12
HETATM   12  C10 UNL     1       2.065  -0.318  -0.202  1.00  0.00    -0.009 A 
HETATM   13  C11 UNL     1       2.581   0.835   0.316  1.00  0.00     0.056 A 
HETATM   14  C12 UNL     1       3.964   1.006   0.345  1.00  0.00     0.155 A 
HETATM   15  F1  UNL     1       4.476   2.161   0.864  1.00  0.00    -0.203 F 
HETATM   16  C13 UNL     1       4.829   0.045  -0.134  1.00  0.00     0.156 A 
HETATM   17  F2  UNL     1       6.181   0.265  -0.081  1.00  0.00    -0.203 F 
HETATM   18  C14 UNL     1       4.300  -1.118  -0.657  1.00  0.00     0.065 A 
HETATM   19  C15 UNL     1       2.933  -1.303  -0.693  1.00  0.00     0.022 A 
HETATM   20 BR1  UNL     1       2.262  -2.936  -1.428  1.00  0.00    -0.050 Br
ENDBRANCH   1  12
TORSDOF 4
