REMARK  1 active torsions:
REMARK  status: ('A' for Active; 'I' for Inactive)
REMARK    1  A    between atoms: N1_4  and  C4_5 
ROOT
HETATM    1  C4  UNL     1       0.447  -0.338  -0.485  1.00  0.00     0.226 C 
HETATM    2  C5  UNL     1       0.985   1.037  -0.256  1.00  0.00     0.055 C 
HETATM    3  C6  UNL     1       2.463   1.096  -0.411  1.00  0.00     0.115 C 
HETATM    4  N2  UNL     1       3.163  -0.129  -0.252  1.00  0.00    -0.421 N 
ATOM      5  H2  UNL     1       4.038  -0.316  -0.742  1.00  0.00     0.153 HD
HETATM    6  C7  UNL     1       2.576  -1.083   0.629  1.00  0.00     0.115 C 
HETATM    7  C8  UNL     1       1.138  -1.411   0.312  1.00  0.00     0.055 C 
ENDROOT
BRANCH   1   8
HETATM    8  N1  UNL     1      -0.964  -0.488  -0.336  1.00  0.00     0.093 N 
HETATM    9  C3  UNL     1      -1.740   0.264  -1.291  1.00  0.00     0.273 C 
HETATM   10  C2  UNL     1      -3.080   0.502  -0.633  1.00  0.00     0.032 C 
HETATM   11  C1  UNL     1      -2.998  -0.211   0.699  1.00  0.00     0.032 C 
HETATM   12  C9  UNL     1      -1.486  -0.164   0.967  1.00  0.00     0.273 C 
ENDBRANCH   1   8
TORSDOF 1
