REMARK  9 active torsions:
REMARK  status: ('A' for Active; 'I' for Inactive)
REMARK    1  A    between atoms: C2_3  and  N2_4 
REMARK    2  A    between atoms: N2_4  and  C3_6 
REMARK    3  A    between atoms: C3_6  and  C4_7 
REMARK    4  A    between atoms: C4_7  and  N3_8 
REMARK    5  A    between atoms: C7_17  and  N5_18 
REMARK    6  A    between atoms: N5_18  and  C8_20 
REMARK    7  A    between atoms: C8_20  and  C9_21 
REMARK    8  A    between atoms: C9_21  and  O2_22 
REMARK    9  A    between atoms: C10_26  and  N7_27 
ROOT
HETATM    1  C1  UNL     1       2.111  -2.366  -0.077  1.00  0.00     0.177 C 
HETATM    2  N1  UNL     1       1.296  -1.151  -0.035  1.00  0.00    -0.171 N 
HETATM    3  C2  UNL     1       1.858   0.059  -0.056  1.00  0.00     0.684 A 
HETATM    4  N4  UNL     1       1.054   1.133  -0.015  1.00  0.00    -0.155 N 
ATOM      5  H4  UNL     1       1.470   2.064  -0.030  1.00  0.00     0.187 HD
HETATM    6  C5  UNL     1      -0.295   1.014   0.046  1.00  0.00     0.277 A 
HETATM    7  O1  UNL     1      -1.062   2.005   0.085  1.00  0.00    -0.266 OA
HETATM    8  C6  UNL     1      -0.853  -0.245   0.067  1.00  0.00     0.122 A 
HETATM    9  C7  UNL     1      -2.220  -0.414   0.128  1.00  0.00     0.136 A 
HETATM   10  N6  UNL     1      -2.723  -1.667   0.146  1.00  0.00    -0.176 N 
ATOM     11  H6  UNL     1      -3.733  -1.801   0.192  1.00  0.00     0.186 HD
HETATM   12  C10 UNL     1      -1.916  -2.740   0.105  1.00  0.00     0.679 A 
HETATM   13  N8  UNL     1      -0.582  -2.595   0.045  1.00  0.00    -0.175 N 
ATOM     14  H8  UNL     1       0.020  -3.418   0.015  1.00  0.00     0.186 HD
HETATM   15  C11 UNL     1      -0.036  -1.354   0.025  1.00  0.00     0.158 A 
ENDROOT
BRANCH   3  16
HETATM   16  N2  UNL     1       3.141   0.136  -0.114  1.00  0.00    -0.224 N 
ATOM     17  H2  UNL     1       3.674  -0.733  -0.142  1.00  0.00     0.177 HD
BRANCH  16  18
HETATM   18  C3  UNL     1       3.869   1.383  -0.142  1.00  0.00     0.165 C 
BRANCH  18  19
HETATM   19  C4  UNL     1       5.304   1.101   0.245  1.00  0.00     0.249 C 
BRANCH  19  20
HETATM   20  N3  UNL     1       6.058   2.329   0.226  1.00  0.00    -0.078 N 
ATOM     21  H33 UNL     1       5.988   2.810  -0.671  1.00  0.00     0.274 HD
ATOM     22  H32 UNL     1       5.636   3.050   0.811  1.00  0.00     0.274 HD
ATOM     23  H31 UNL     1       7.026   2.139   0.487  1.00  0.00     0.274 HD
ENDBRANCH  19  20
ENDBRANCH  18  19
ENDBRANCH  16  18
ENDBRANCH   3  16
BRANCH   9  24
HETATM   24  N5  UNL     1      -2.975   0.619   0.167  1.00  0.00    -0.373 N 
ATOM     25  H5  UNL     1      -2.539   1.541   0.152  1.00  0.00     0.161 HD
BRANCH  24  26
HETATM   26  C8  UNL     1      -4.421   0.539   0.232  1.00  0.00     0.147 C 
BRANCH  26  27
HETATM   27  C9  UNL     1      -4.944   1.916  -0.167  1.00  0.00     0.183 C 
BRANCH  27  28
HETATM   28  O2  UNL     1      -6.319   1.978  -0.146  1.00  0.00    -0.399 OA
ATOM     29  H2  UNL     1      -6.645   2.835  -0.394  1.00  0.00     0.209 HD
ENDBRANCH  27  28
ENDBRANCH  26  27
ENDBRANCH  24  26
ENDBRANCH   9  24
BRANCH  12  30
HETATM   30  N7  UNL     1      -2.382  -3.935   0.121  1.00  0.00    -0.234 N 
ATOM     31  H72 UNL     1      -3.395  -4.045   0.167  1.00  0.00     0.174 HD
ATOM     32  H71 UNL     1      -1.769  -4.750   0.090  1.00  0.00     0.174 HD
ENDBRANCH  12  30
TORSDOF 9
