REMARK  5 active torsions:
REMARK  status: ('A' for Active; 'I' for Inactive)
REMARK    1  A    between atoms: C2_2  and  C4_4 
REMARK    2  A    between atoms: C9_10  and  C10_11 
REMARK    3  A    between atoms: C10_11  and  O2_12 
REMARK    4  A    between atoms: N1_20  and  O3_21 
REMARK    5  A    between atoms: C18_24  and  O4_25 
ROOT
HETATM    1  C4  UNL     1       1.729  -0.324   0.416  1.00  0.00     0.128 A 
HETATM    2  O1  UNL     1       1.799   0.330   1.747  1.00  0.00    -0.364 OA
HETATM    3  C5  UNL     1       0.722  -0.383   1.311  1.00  0.00     0.177 A 
HETATM    4  C6  UNL     1      -0.234   0.220   0.284  1.00  0.00     0.070 C 
HETATM    5  C7  UNL     1      -1.143  -0.870  -0.200  1.00  0.00     0.019 A 
HETATM    6  C8  UNL     1      -1.718  -1.625   0.980  1.00  0.00    -0.005 A 
HETATM    7  C9  UNL     1      -0.906  -2.287   0.155  1.00  0.00    -0.046 A 
HETATM    8  C11 UNL     1      -2.189  -0.477  -1.171  1.00  0.00     0.019 C 
HETATM    9  C12 UNL     1      -2.881   0.822  -0.794  1.00  0.00     0.008 C 
HETATM   10  C13 UNL     1      -1.842   1.854  -0.543  1.00  0.00     0.013 C 
HETATM   11  C14 UNL     1      -2.378   3.221  -0.280  1.00  0.00     0.012 C 
HETATM   12  C15 UNL     1      -0.881   1.487   0.602  1.00  0.00     0.073 C 
HETATM   13  C16 UNL     1      -1.610   1.515   1.924  1.00  0.00     0.042 C 
HETATM   14  N1  UNL     1       0.144   2.500   0.522  1.00  0.00    -0.262 N 
HETATM   15  C17 UNL     1       1.154   2.013  -0.085  1.00  0.00     0.132 C 
HETATM   16  C18 UNL     1       0.955   0.596  -0.498  1.00  0.00     0.140 C 
ENDROOT
BRANCH   7  17
HETATM   17  C10 UNL     1      -0.283  -3.627  -0.074  1.00  0.00     0.199 C 
BRANCH  17  18
HETATM   18  O2  UNL     1      -0.655  -4.549   0.899  1.00  0.00    -0.397 OA
ATOM     19  H2  UNL     1      -0.259  -5.400   0.754  1.00  0.00     0.209 HD
ENDBRANCH  17  18
ENDBRANCH   7  17
BRANCH  16  20
HETATM   20  O4  UNL     1       1.015   0.386  -1.825  1.00  0.00    -0.380 OA
ATOM     21  H4  UNL     1       0.528   0.965  -2.400  1.00  0.00     0.211 HD
ENDBRANCH  16  20
BRANCH   1  22
HETATM   22  C2  UNL     1       2.971  -0.979   0.057  1.00  0.00     0.018 C 
HETATM   23  C1  UNL     1       3.022  -1.669  -1.260  1.00  0.00     0.012 C 
HETATM   24  C3  UNL     1       4.132   0.024   0.087  1.00  0.00     0.012 C 
ENDBRANCH   1  22
BRANCH  14  25
HETATM   25  O3  UNL     1       0.000   3.780   1.039  1.00  0.00    -0.287 OA
ATOM     26  H3  UNL     1       0.675   4.447   0.986  1.00  0.00     0.244 HD
ENDBRANCH  14  25
TORSDOF 5
