REMARK  15 active torsions:
REMARK  status: ('A' for Active; 'I' for Inactive)
REMARK    1  A    between atoms: C2_2  and  S1_3 
REMARK    2  A    between atoms: S1_3  and  C3_4 
REMARK    3  A    between atoms: C3_4  and  C4_5 
REMARK    4  A    between atoms: C4_5  and  N1_7 
REMARK    5  A    between atoms: C4_5  and  C6_11 
REMARK       I    between atoms: C6_11  and  N2_13 
REMARK    6  A    between atoms: N2_13  and  C7_15 
REMARK    7  A    between atoms: C8_19  and  O2_20 
REMARK    8  A    between atoms: C9_25  and  N5_26 
REMARK    9  A    between atoms: C10_30  and  O3_31 
REMARK   10  A    between atoms: O3_31  and  C11_32 
REMARK   11  A    between atoms: C11_32  and  C12_34 
REMARK   12  A    between atoms: C12_34  and  N6_36 
REMARK   13  A    between atoms: N6_36  and  C14_38 
REMARK   14  A    between atoms: C14_38  and  N8_41 
REMARK   15  A    between atoms: N8_41  and  S2_43 
ROOT
HETATM    1  C14 UNL     1      -4.834   1.137  -1.227  1.00  0.00     0.297 C 
HETATM    2  C15 UNL     1      -5.196   2.517  -1.694  1.00  0.00     0.106 C 
HETATM    3  N7  UNL     1      -5.480   3.564  -2.066  1.00  0.00    -0.193 NA
ENDROOT
BRANCH   1   4
HETATM    4  N6  UNL     1      -3.910   0.574  -2.130  1.00  0.00    -0.377 N 
ATOM      5  H6  UNL     1      -3.813   0.919  -3.085  1.00  0.00     0.157 HD
BRANCH   4   6
HETATM    6  C12 UNL     1      -3.124  -0.495  -1.641  1.00  0.00     0.175 C 
HETATM    7  C13 UNL     1      -2.371  -1.082  -2.831  1.00  0.00     0.042 C 
BRANCH   6   8
HETATM    8  C11 UNL     1      -2.190  -0.164  -0.537  1.00  0.00     0.281 C 
HETATM    9  O4  UNL     1      -2.040   0.961  -0.015  1.00  0.00    -0.263 OA
BRANCH   8  10
HETATM   10  O3  UNL     1      -1.404  -1.187  -0.031  1.00  0.00    -0.306 OA
BRANCH  10  11
HETATM   11  C10 UNL     1      -0.471  -1.122   0.984  1.00  0.00     0.240 C 
HETATM   12  C7  UNL     1       0.943  -1.425   0.533  1.00  0.00     0.325 C 
HETATM   13  N3  UNL     1       1.421  -2.550   1.305  1.00  0.00     0.001 N 
HETATM   14  C8  UNL     1       0.569  -3.732   1.172  1.00  0.00     0.526 C 
ATOM     15  H32 UNL     1       2.389  -2.769   1.070  1.00  0.00     0.285 HD
ATOM     16  H31 UNL     1       1.542  -2.295   2.285  1.00  0.00     0.285 HD
HETATM   17  N4  UNL     1      -0.756  -3.427   1.690  1.00  0.00     0.009 N 
HETATM   18  C9  UNL     1      -0.779  -2.023   2.157  1.00  0.00     0.418 C 
ATOM     19  H42 UNL     1      -1.493  -3.623   1.012  1.00  0.00     0.285 HD
ATOM     20  H41 UNL     1      -1.050  -4.082   2.414  1.00  0.00     0.285 HD
BRANCH  12  21
HETATM   21  N2  UNL     1       1.871  -0.356   0.712  1.00  0.00    -0.329 N 
HETATM   22  C6  UNL     1       2.506   0.250  -0.405  1.00  0.00     0.256 C 
HETATM   23  O1  UNL     1       2.252  -0.146  -1.572  1.00  0.00    -0.271 OA
ATOM     24  H2  UNL     1       2.081  -0.023   1.653  1.00  0.00     0.164 HD
BRANCH  22  25
HETATM   25  C4  UNL     1       3.493   1.365  -0.290  1.00  0.00     0.208 C 
HETATM   26  C5  UNL     1       2.854   2.611  -0.913  1.00  0.00     0.057 C 
BRANCH  25  27
HETATM   27  C3  UNL     1       4.665   0.980  -1.140  1.00  0.00     0.122 C 
BRANCH  27  28
HETATM   28  S1  UNL     1       5.939   2.227  -1.282  1.00  0.00    -0.167 SA
BRANCH  28  29
HETATM   29  C2  UNL     1       6.773   2.520   0.280  1.00  0.00     0.069 C 
HETATM   30  C1  UNL     1       7.850   3.573   0.074  1.00  0.00     0.016 C 
ENDBRANCH  28  29
ENDBRANCH  27  28
ENDBRANCH  25  27
BRANCH  25  31
HETATM   31  N1  UNL     1       3.798   1.689   1.066  1.00  0.00    -0.061 N 
ATOM     32  H13 UNL     1       4.309   0.921   1.502  1.00  0.00     0.275 HD
ATOM     33  H12 UNL     1       4.509   2.420   1.099  1.00  0.00     0.275 HD
ATOM     34  H11 UNL     1       3.000   1.951   1.645  1.00  0.00     0.275 HD
ENDBRANCH  25  31
ENDBRANCH  22  25
ENDBRANCH  12  21
BRANCH  14  35
HETATM   35  O2  UNL     1       0.443  -4.183  -0.115  1.00  0.00    -0.349 OA
ATOM     36  H2  UNL     1      -0.110  -4.950  -0.201  1.00  0.00     0.213 HD
ENDBRANCH  14  35
BRANCH  18  37
HETATM   37  N5  UNL     1      -2.043  -1.800   2.769  1.00  0.00    -0.047 N 
ATOM     38  H53 UNL     1      -2.827  -2.030   2.159  1.00  0.00     0.276 HD
ATOM     39  H52 UNL     1      -2.251  -2.470   3.510  1.00  0.00     0.276 HD
ATOM     40  H51 UNL     1      -2.059  -0.832   3.091  1.00  0.00     0.276 HD
ENDBRANCH  18  37
ENDBRANCH  10  11
ENDBRANCH   8  10
ENDBRANCH   6   8
ENDBRANCH   4   6
ENDBRANCH   1   4
BRANCH   1  41
HETATM   41  N8  UNL     1      -6.098   0.434  -1.111  1.00  0.00    -0.285 N 
ATOM     42  H8  UNL     1      -6.647   0.156  -1.925  1.00  0.00     0.175 HD
BRANCH  41  43
HETATM   43  S2  UNL     1      -6.595   0.109   0.476  1.00  0.00     0.225 S 
HETATM   44  C16 UNL     1      -5.481  -0.917   1.352  1.00  0.00     0.186 C 
HETATM   45  O5  UNL     1      -6.855   1.391   1.219  1.00  0.00    -0.206 OA
HETATM   46  O6  UNL     1      -7.933  -0.606   0.411  1.00  0.00    -0.206 OA
ENDBRANCH  41  43
ENDBRANCH   1  41
TORSDOF 15
