REMARK  7 active torsions:
REMARK  status: ('A' for Active; 'I' for Inactive)
REMARK    1  A    between atoms: C7_11  and  O2_12 
REMARK    2  A    between atoms: O2_12  and  C8_13 
REMARK    3  A    between atoms: C8_13  and  C9_15 
REMARK    4  A    between atoms: C9_15  and  O4_16 
REMARK    5  A    between atoms: O4_16  and  C10_17 
REMARK    6  A    between atoms: C10_17  and  C11_19 
REMARK    7  A    between atoms: C11_19  and  C12_22 
ROOT
HETATM    1  O2  UNL     1      -0.807   0.840   0.002  1.00  0.00    -0.314 OA
ENDROOT
BRANCH   1   2
HETATM    2  C7  UNL     1      -1.643   0.017   0.827  1.00  0.00     0.142 C 
HETATM    3  C2  UNL     1      -2.304  -1.001  -0.052  1.00  0.00     0.064 C 
HETATM    4  C1  UNL     1      -1.331  -1.802  -0.838  1.00  0.00     0.019 C 
HETATM    5  C3  UNL     1      -3.266  -0.282  -0.926  1.00  0.00     0.055 C 
HETATM    6  N1  UNL     1      -3.287  -0.443  -2.205  1.00  0.00    -0.399 N 
HETATM    7  C4  UNL     1      -4.182   0.616  -0.227  1.00  0.00     0.171 C 
ATOM      8  H12 UNL     1      -2.647  -1.070  -2.693  1.00  0.00     0.156 HD
ATOM      9  H11 UNL     1      -3.948   0.051  -2.805  1.00  0.00     0.156 HD
HETATM   10  O1  UNL     1      -5.005   1.314  -0.861  1.00  0.00    -0.291 OA
HETATM   11  C5  UNL     1      -4.057   0.630   1.262  1.00  0.00     0.087 C 
HETATM   12  C6  UNL     1      -2.604   0.862   1.582  1.00  0.00     0.041 C 
ENDBRANCH   1   2
BRANCH   1  13
HETATM   13  C8  UNL     1       0.572   0.819   0.224  1.00  0.00     0.283 C 
HETATM   14  O3  UNL     1       1.036   0.085   1.133  1.00  0.00    -0.263 OA
BRANCH  13  15
HETATM   15  C9  UNL     1       1.509   1.634  -0.576  1.00  0.00     0.289 C 
BRANCH  15  16
HETATM   16  O4  UNL     1       2.842   1.416  -0.215  1.00  0.00    -0.309 OA
BRANCH  16  17
HETATM   17  C10 UNL     1       3.530   0.223  -0.315  1.00  0.00     0.299 C 
HETATM   18  O5  UNL     1       2.949  -0.778  -0.770  1.00  0.00    -0.262 OA
BRANCH  17  19
HETATM   19  C11 UNL     1       4.944   0.208   0.132  1.00  0.00     0.212 C 
HETATM   20 CL1  UNL     1       4.974   0.665   1.870  1.00  0.00    -0.089 Cl
HETATM   21 CL2  UNL     1       5.904   1.376  -0.771  1.00  0.00    -0.089 Cl
BRANCH  19  22
HETATM   22  C12 UNL     1       5.559  -1.160   0.036  1.00  0.00     0.167 C 
HETATM   23 CL3  UNL     1       5.557  -1.798  -1.610  1.00  0.00    -0.127 Cl
ENDBRANCH  19  22
ENDBRANCH  17  19
ENDBRANCH  16  17
ENDBRANCH  15  16
ENDBRANCH  13  15
ENDBRANCH   1  13
TORSDOF 7
