REMARK  16 active torsions:
REMARK  status: ('A' for Active; 'I' for Inactive)
REMARK    1  A    between atoms: C2_2  and  C3_3 
REMARK    2  A    between atoms: N1_8  and  C7_9 
REMARK    3  A    between atoms: C7_9  and  C8_10 
REMARK    4  A    between atoms: C8_10  and  C9_11 
REMARK    5  A    between atoms: C9_11  and  N2_12 
REMARK    6  A    between atoms: N2_12  and  C10_13 
REMARK       I    between atoms: N2_12  and  C15_19 
REMARK    7  A    between atoms: C10_13  and  C11_14 
REMARK    8  A    between atoms: C11_14  and  C12_15 
REMARK    9  A    between atoms: C12_15  and  N3_16 
REMARK   10  A    between atoms: C15_19  and  C16_21 
REMARK   11  A    between atoms: C17_22  and  C18_23 
REMARK   12  A    between atoms: C18_23  and  C19_24 
REMARK   13  A    between atoms: C19_24  and  N4_25 
REMARK       I    between atoms: N4_25  and  C20_27 
REMARK   14  A    between atoms: C20_27  and  O4_29 
REMARK   15  A    between atoms: O4_29  and  C21_30 
REMARK   16  A    between atoms: C33_43  and  O6_44 
ROOT
HETATM    1  N4  UNL     1       0.941   2.178  -3.066  1.00  0.00    -0.337 N 
ATOM      2  H4  UNL     1       1.520   2.635  -2.361  1.00  0.00     0.164 HD
HETATM    3  C20 UNL     1       1.072   0.764  -3.207  1.00  0.00     0.360 C 
HETATM    4  O3  UNL     1       0.439   0.066  -4.025  1.00  0.00    -0.239 OA
ENDROOT
BRANCH   1   5
HETATM    5  C19 UNL     1       0.066   3.002  -3.831  1.00  0.00     0.128 C 
BRANCH   5   6
HETATM    6  C18 UNL     1      -1.413   2.727  -3.644  1.00  0.00     0.047 C 
BRANCH   6   7
HETATM    7  C17 UNL     1      -1.793   2.958  -2.247  1.00  0.00    -0.020 C 
HETATM    8  C16 UNL     1      -2.348   2.134  -1.435  1.00  0.00     0.070 C 
BRANCH   8   9
HETATM    9  C15 UNL     1      -2.747   0.785  -1.664  1.00  0.00     0.243 C 
HETATM   10  N2  UNL     1      -3.373  -0.004  -0.582  1.00  0.00    -0.345 N 
HETATM   11  O2  UNL     1      -2.598   0.217  -2.753  1.00  0.00    -0.268 OA
BRANCH  10  12
HETATM   12  C9  UNL     1      -3.733  -1.329  -0.919  1.00  0.00     0.154 C 
BRANCH  12  13
HETATM   13  C8  UNL     1      -4.999  -1.638  -1.605  1.00  0.00     0.010 C 
BRANCH  13  14
HETATM   14  C7  UNL     1      -6.303  -1.351  -1.031  1.00  0.00     0.083 C 
BRANCH  14  15
HETATM   15  N1  UNL     1      -6.727  -1.908   0.169  1.00  0.00    -0.382 N 
HETATM   16  C3  UNL     1      -8.059  -1.610   0.600  1.00  0.00     0.107 C 
HETATM   17  C4  UNL     1      -8.115  -1.660   2.091  1.00  0.00     0.193 C 
HETATM   18  O1  UNL     1      -6.994  -2.288   2.624  1.00  0.00    -0.388 OA
HETATM   19  C5  UNL     1      -6.705  -3.480   1.969  1.00  0.00     0.187 C 
HETATM   20  C6  UNL     1      -6.391  -3.243   0.492  1.00  0.00     0.149 C 
BRANCH  16  21
HETATM   21  C2  UNL     1      -8.696  -0.420  -0.033  1.00  0.00     0.023 C 
HETATM   22  C1  UNL     1     -10.175  -0.372   0.347  1.00  0.00     0.007 C 
ENDBRANCH  16  21
ENDBRANCH  14  15
ENDBRANCH  13  14
ENDBRANCH  12  13
ENDBRANCH  10  12
BRANCH  10  23
HETATM   23  C10 UNL     1      -3.414   0.611   0.697  1.00  0.00     0.128 C 
BRANCH  23  24
HETATM   24  C11 UNL     1      -4.612   1.460   0.926  1.00  0.00     0.050 C 
BRANCH  24  25
HETATM   25  C12 UNL     1      -4.536   2.156   2.286  1.00  0.00     0.273 C 
BRANCH  25  26
HETATM   26  N3  UNL     1      -5.691   2.976   2.451  1.00  0.00     0.080 N 
HETATM   27  C13 UNL     1      -6.936   2.310   2.618  1.00  0.00     0.309 C 
HETATM   28  C14 UNL     1      -5.841   3.895   1.324  1.00  0.00     0.309 C 
ENDBRANCH  25  26
ENDBRANCH  24  25
ENDBRANCH  23  24
ENDBRANCH  10  23
ENDBRANCH   8   9
ENDBRANCH   6   7
ENDBRANCH   5   6
ENDBRANCH   1   5
BRANCH   3  29
HETATM   29  O4  UNL     1       1.970   0.077  -2.382  1.00  0.00    -0.298 OA
BRANCH  29  30
HETATM   30  C21 UNL     1       2.200  -1.297  -2.413  1.00  0.00     0.141 C 
HETATM   31  C22 UNL     1       1.933  -1.912  -1.080  1.00  0.00     0.111 C 
HETATM   32  C23 UNL     1       2.744  -1.145  -0.060  1.00  0.00     0.134 C 
HETATM   33  O5  UNL     1       2.171  -0.865   0.956  1.00  0.00    -0.297 OA
HETATM   34  C24 UNL     1       4.141  -0.826  -0.420  1.00  0.00     0.068 C 
HETATM   35  C25 UNL     1       4.529  -1.757  -1.547  1.00  0.00    -0.000 C 
HETATM   36  C38 UNL     1       5.086  -0.934   0.768  1.00  0.00    -0.029 C 
HETATM   37  C26 UNL     1       5.952  -1.554  -1.970  1.00  0.00     0.006 C 
HETATM   38  C40 UNL     1       3.660  -1.500  -2.734  1.00  0.00     0.038 C 
HETATM   39  C27 UNL     1       6.640  -0.537  -1.039  1.00  0.00     0.006 C 
HETATM   40  C28 UNL     1       6.516  -1.078   0.358  1.00  0.00     0.003 C 
HETATM   41  C29 UNL     1       7.522  -0.610   1.347  1.00  0.00    -0.036 C 
HETATM   42  C30 UNL     1       7.692  -1.793   2.338  1.00  0.00     0.016 C 
HETATM   43  C31 UNL     1       8.895  -0.416   0.791  1.00  0.00     0.012 C 
HETATM   44  C35 UNL     1       7.077   0.529   2.235  1.00  0.00    -0.004 C 
HETATM   45  C32 UNL     1       9.286   0.969   0.426  1.00  0.00     0.032 C 
HETATM   46  C33 UNL     1       8.925   2.024   1.418  1.00  0.00     0.118 C 
HETATM   47  C34 UNL     1       8.171   1.478   2.584  1.00  0.00     0.037 C 
HETATM   48  C36 UNL     1       5.909   1.281   1.648  1.00  0.00     0.006 C 
HETATM   49  C37 UNL     1       4.781   0.271   1.614  1.00  0.00     0.011 C 
HETATM   50  C39 UNL     1       4.663  -2.203   1.525  1.00  0.00     0.016 C 
BRANCH  46  51
HETATM   51  O6  UNL     1       8.199   3.081   0.815  1.00  0.00    -0.396 OA
ATOM     52  H6  UNL     1       7.969   3.753   1.446  1.00  0.00     0.210 HD
ENDBRANCH  46  51
ENDBRANCH  29  30
ENDBRANCH   3  29
TORSDOF 16
