REMARK  2 active torsions:
REMARK  status: ('A' for Active; 'I' for Inactive)
REMARK    1  A    between atoms: C2_2  and  C3_4 
REMARK    2  A    between atoms: C8_10  and  O3_11 
ROOT
HETATM    1  C3  UNL     1      -0.827   0.724  -0.062  1.00  0.00     0.048 C 
HETATM    2  C4  UNL     1      -0.373   1.453  -1.305  1.00  0.00     0.025 C 
HETATM    3  C5  UNL     1       1.072   1.846  -1.062  1.00  0.00     0.034 C 
HETATM    4  C6  UNL     1       1.954   0.689  -0.757  1.00  0.00     0.126 C 
HETATM    5  O2  UNL     1       3.233   1.096  -0.502  1.00  0.00    -0.383 OA
HETATM    6  C7  UNL     1       4.056  -0.050  -0.594  1.00  0.00     0.199 C 
HETATM    7  C8  UNL     1       3.721  -0.926   0.575  1.00  0.00     0.142 C 
HETATM    8  C9  UNL     1       2.303  -1.462   0.333  1.00  0.00     0.041 C 
HETATM    9  C10 UNL     1       1.408  -0.213   0.369  1.00  0.00     0.023 C 
HETATM   10  C11 UNL     1       0.036  -0.488   0.015  1.00  0.00     0.013 C 
HETATM   11  C12 UNL     1      -0.772  -1.514   0.745  1.00  0.00     0.017 C 
HETATM   12  C13 UNL     1      -1.980  -1.436  -0.204  1.00  0.00     0.033 C 
HETATM   13  C14 UNL     1      -2.174   0.075  -0.235  1.00  0.00    -0.059 C 
HETATM   14  C15 UNL     1      -3.433   0.352  -0.401  1.00  0.00     0.015 C 
HETATM   15  C16 UNL     1      -4.189  -0.928  -0.490  1.00  0.00     0.208 C 
HETATM   16  F1  UNL     1      -5.438  -0.866   0.051  1.00  0.00    -0.244 F 
HETATM   17  C17 UNL     1      -3.275  -1.848   0.363  1.00  0.00     0.103 C 
HETATM   18 BR1  UNL     1      -3.703  -3.678   0.000  1.00  0.00    -0.087 Br
ENDROOT
BRANCH   1  19
HETATM   19  C2  UNL     1      -0.821   1.615   1.105  1.00  0.00     0.136 C 
HETATM   20  C1  UNL     1      -1.655   2.849   1.030  1.00  0.00     0.092 C 
HETATM   21  O1  UNL     1      -0.211   1.463   2.134  1.00  0.00    -0.297 OA
ENDBRANCH   1  19
BRANCH   7  22
HETATM   22  O3  UNL     1       4.622  -1.937   0.802  1.00  0.00    -0.393 OA
ATOM     23  H3  UNL     1       4.410  -2.492   1.543  1.00  0.00     0.210 HD
ENDBRANCH   7  22
TORSDOF 2
