REMARK  2 active torsions:
REMARK  status: ('A' for Active; 'I' for Inactive)
REMARK    1  A    between atoms: C2_2  and  C3_3 
REMARK    2  A    between atoms: C6_6  and  O1_7 
ROOT
HETATM    1  C3  UNL     1      -1.683   0.366   0.348  1.00  0.00     0.025 C 
HETATM    2  C4  UNL     1      -1.297  -1.056   0.320  1.00  0.00     0.001 C 
HETATM    3  C5  UNL     1      -2.482  -1.712   0.827  1.00  0.00     0.040 C 
HETATM    4  C6  UNL     1      -3.592  -1.433  -0.219  1.00  0.00     0.148 C 
HETATM    5  C7  UNL     1      -3.625  -0.021  -0.752  1.00  0.00     0.161 C 
HETATM    6  O2  UNL     1      -3.808   0.049  -2.159  1.00  0.00    -0.382 OA
HETATM    7  C8  UNL     1      -2.409  -0.270  -2.147  1.00  0.00     0.181 C 
HETATM    8  C9  UNL     1      -2.324   0.548  -0.968  1.00  0.00     0.017 C 
HETATM    9  C10 UNL     1      -1.798   1.834  -1.377  1.00  0.00     0.015 C 
HETATM   10  C11 UNL     1      -0.271   1.683  -1.432  1.00  0.00     0.007 C 
HETATM   11  C12 UNL     1       0.336   0.391  -1.621  1.00  0.00     0.007 A 
HETATM   12  C13 UNL     1       0.770  -0.648  -0.784  1.00  0.00     0.011 A 
HETATM   13  C14 UNL     1       0.116  -1.149   0.491  1.00  0.00    -0.004 C 
HETATM   14  C15 UNL     1       0.837  -0.677   1.715  1.00  0.00     0.007 C 
HETATM   15  C16 UNL     1       2.213  -1.313   1.689  1.00  0.00     0.025 C 
HETATM   16  C17 UNL     1       3.240  -0.680   0.834  1.00  0.00     0.084 C 
HETATM   17  C18 UNL     1       3.394  -1.241  -0.560  1.00  0.00     0.104 C 
HETATM   18  C19 UNL     1       2.924  -0.235  -1.634  1.00  0.00     0.255 C 
HETATM   19  F1  UNL     1       2.466  -0.948  -2.701  1.00  0.00    -0.205 F 
HETATM   20  F2  UNL     1       3.855   0.686  -1.929  1.00  0.00    -0.205 F 
HETATM   21  C20 UNL     1       1.696   0.348  -0.900  1.00  0.00     0.050 A 
HETATM   22  C21 UNL     1       2.244   1.342  -0.057  1.00  0.00     0.133 C 
HETATM   23  N1  UNL     1       3.170   0.729   0.909  1.00  0.00    -0.411 N 
HETATM   24  C22 UNL     1       4.382   1.433   1.062  1.00  0.00     0.143 C 
ENDROOT
BRANCH   1  25
HETATM   25  C2  UNL     1      -2.519   0.844   1.479  1.00  0.00    -0.031 C 
HETATM   26  C1  UNL     1      -2.200   1.784   2.358  1.00  0.00     0.007 C 
ENDBRANCH   1  25
BRANCH   4  27
HETATM   27  O1  UNL     1      -4.802  -1.706   0.414  1.00  0.00    -0.393 OA
ATOM     28  H1  UNL     1      -5.482  -1.535  -0.227  1.00  0.00     0.210 HD
ENDBRANCH   4  27
TORSDOF 2
