REMARK  12 active torsions:
REMARK  status: ('A' for Active; 'I' for Inactive)
REMARK    1  A    between atoms: C2_2  and  C3_3 
REMARK    2  A    between atoms: C3_3  and  C4_4 
REMARK    3  A    between atoms: C5_5  and  C6_6 
REMARK    4  A    between atoms: C6_6  and  C7_7 
REMARK    5  A    between atoms: C7_7  and  C8_8 
REMARK    6  A    between atoms: C8_8  and  C9_9 
REMARK    7  A    between atoms: C9_9  and  C10_10 
REMARK    8  A    between atoms: C10_10  and  N1_11 
REMARK    9  A    between atoms: N1_11  and  N2_12 
REMARK   10  A    between atoms: C13_19  and  O1_20 
REMARK   11  A    between atoms: C14_22  and  O2_23 
REMARK   12  A    between atoms: C15_25  and  O3_26 
ROOT
HETATM    1  C3  UNL     1      -1.463   0.430   0.151  1.00  0.00     0.010 C 
HETATM    2  C11 UNL     1      -2.217  -0.909   0.044  1.00  0.00     0.060 C 
HETATM    3  C12 UNL     1      -2.868  -1.134  -1.236  1.00  0.00     0.059 C 
HETATM    4  N3  UNL     1      -3.835  -0.472  -1.748  1.00  0.00    -0.375 N 
ATOM      5  H3  UNL     1      -4.147  -0.797  -2.663  1.00  0.00     0.161 HD
HETATM    6  C13 UNL     1      -4.536   0.643  -1.235  1.00  0.00     0.248 C 
HETATM    7  C14 UNL     1      -3.862   1.317  -0.058  1.00  0.00     0.196 C 
HETATM    8  C15 UNL     1      -2.425   1.587  -0.221  1.00  0.00     0.163 C 
ENDROOT
BRANCH   1   9
HETATM    9  C2  UNL     1      -1.090   0.643   1.547  1.00  0.00     0.012 C 
HETATM   10  C1  UNL     1      -0.219  -0.211   2.323  1.00  0.00     0.006 C 
ENDBRANCH   1   9
BRANCH   1  11
HETATM   11  C4  UNL     1      -0.450   0.452  -0.909  1.00  0.00    -0.018 C 
HETATM   12  C5  UNL     1       0.694  -0.345  -1.180  1.00  0.00    -0.030 C 
BRANCH  12  13
HETATM   13  C6  UNL     1       1.899  -0.493  -0.343  1.00  0.00     0.027 C 
BRANCH  13  14
HETATM   14  C7  UNL     1       2.937  -1.387  -1.111  1.00  0.00     0.004 C 
BRANCH  14  15
HETATM   15  C8  UNL     1       4.154  -1.567  -0.265  1.00  0.00     0.006 C 
BRANCH  15  16
HETATM   16  C9  UNL     1       4.807  -0.266   0.040  1.00  0.00     0.061 C 
BRANCH  16  17
HETATM   17  C10 UNL     1       6.052  -0.497   0.875  1.00  0.00     0.181 C 
BRANCH  17  18
HETATM   18  N1  UNL     1       6.993   0.288   0.734  1.00  0.00    -0.350 NA
BRANCH  18  19
HETATM   19  N2  UNL     1       7.851   1.177   0.689  1.00  0.00    -0.281 N 
ATOM     20  H22 UNL     1       7.218   1.703   1.292  1.00  0.00     0.191 HD
ATOM     21  H21 UNL     1       8.629   1.826   0.572  1.00  0.00     0.191 HD
ENDBRANCH  18  19
ENDBRANCH  17  18
ENDBRANCH  16  17
ENDBRANCH  15  16
ENDBRANCH  14  15
ENDBRANCH  13  14
ENDBRANCH  12  13
ENDBRANCH   1  11
BRANCH   8  22
HETATM   22  O3  UNL     1      -2.136   2.142  -1.449  1.00  0.00    -0.392 OA
ATOM     23  H3  UNL     1      -2.726   2.851  -1.677  1.00  0.00     0.210 HD
ENDBRANCH   8  22
BRANCH   7  24
HETATM   24  O2  UNL     1      -4.259   0.801   1.159  1.00  0.00    -0.389 OA
ATOM     25  H2  UNL     1      -3.836   1.224   1.897  1.00  0.00     0.210 HD
ENDBRANCH   7  24
BRANCH   6  26
HETATM   26  O1  UNL     1      -5.846   0.317  -0.887  1.00  0.00    -0.374 OA
ATOM     27  H1  UNL     1      -6.317   1.066  -0.542  1.00  0.00     0.212 HD
ENDBRANCH   6  26
TORSDOF 12
