REMARK  3 active torsions:
REMARK  status: ('A' for Active; 'I' for Inactive)
REMARK    1  A    between atoms: C2_3  and  N2_4 
REMARK    2  A    between atoms: N2_4  and  C3_6 
REMARK    3  A    between atoms: C7_14  and  C8_15 
ROOT
HETATM    1  N1  UNL     1       2.768  -3.230   1.225  1.00  0.00    -0.196 NA
HETATM    2  C1  UNL     1       2.706  -2.161   0.854  1.00  0.00     0.078 C 
HETATM    3  C2  UNL     1       2.601  -0.804   0.387  1.00  0.00     0.245 C 
ENDROOT
BRANCH   3   4
HETATM    4  N2  UNL     1       1.491  -0.100   1.106  1.00  0.00    -0.363 N 
ATOM      5  H2  UNL     1       1.636   0.663   1.767  1.00  0.00     0.162 HD
BRANCH   4   6
HETATM    6  C3  UNL     1       0.215  -0.616   0.763  1.00  0.00     0.118 A 
HETATM    7  N3  UNL     1      -0.025  -1.794   1.270  1.00  0.00    -0.338 N 
HETATM    8  C4  UNL     1      -1.165  -2.581   1.137  1.00  0.00     0.182 A 
ATOM      9  H3  UNL     1       0.722  -2.191   1.840  1.00  0.00     0.168 HD
HETATM   10  N4  UNL     1      -2.157  -2.023   0.260  1.00  0.00    -0.347 N 
HETATM   11  C5  UNL     1      -1.930  -0.744  -0.301  1.00  0.00     0.119 A 
ATOM     12  H4  UNL     1      -3.010  -2.540   0.046  1.00  0.00     0.167 HD
HETATM   13  C6  UNL     1      -0.741   0.007  -0.073  1.00  0.00     0.072 A 
HETATM   14  C9  UNL     1      -2.903  -0.205  -1.107  1.00  0.00     0.287 A 
HETATM   15  C7  UNL     1      -0.582   1.230  -0.643  1.00  0.00     0.111 A 
HETATM   16  N9  UNL     1      -1.620   1.664  -1.428  1.00  0.00    -0.293 N 
HETATM   17  N10 UNL     1      -2.710   0.996  -1.650  1.00  0.00    -0.264 N 
ATOM     18  H9  UNL     1      -1.528   2.579  -1.870  1.00  0.00     0.187 HD
ATOM     19  H10 UNL     1      -3.431   1.397  -2.250  1.00  0.00     0.190 HD
HETATM   20  O1  UNL     1      -3.975  -0.834  -1.339  1.00  0.00    -0.264 OA
BRANCH  15  21
HETATM   21  C8  UNL     1       0.557   2.101  -0.475  1.00  0.00     0.166 A 
HETATM   22  N5  UNL     1       0.406   3.324  -1.192  1.00  0.00    -0.267 N 
HETATM   23  N6  UNL     1       1.436   4.088  -1.015  1.00  0.00    -0.227 N 
ATOM     24  H5  UNL     1      -0.403   3.564  -1.766  1.00  0.00     0.190 HD
HETATM   25  N7  UNL     1       2.286   3.476  -0.225  1.00  0.00    -0.227 N 
ATOM     26  H6  UNL     1       1.565   5.014  -1.423  1.00  0.00     0.210 HD
HETATM   27  N8  UNL     1       1.707   2.344   0.039  1.00  0.00    -0.267 N 
ATOM     28  H7  UNL     1       3.191   3.811   0.105  1.00  0.00     0.210 HD
ATOM     29  H8  UNL     1       2.159   1.659   0.645  1.00  0.00     0.190 HD
ENDBRANCH  15  21
ENDBRANCH   4   6
ENDBRANCH   3   4
TORSDOF 3
