REMARK  8 active torsions:
REMARK  status: ('A' for Active; 'I' for Inactive)
REMARK    1  A    between atoms: O1_2  and  C2_3 
REMARK    2  A    between atoms: C6_7  and  C7_8 
REMARK    3  A    between atoms: C7_8  and  C8_10 
REMARK    4  A    between atoms: C8_10  and  O4_12 
REMARK    5  A    between atoms: O4_12  and  C9_13 
REMARK    6  A    between atoms: C11_15  and  C12_16 
REMARK    7  A    between atoms: C12_16  and  O5_17 
REMARK    8  A    between atoms: O5_17  and  C13_18 
ROOT
HETATM    1  C9  UNL     1       1.166   0.627   0.488  1.00  0.00     0.141 C 
HETATM    2  C10 UNL     1       0.228   1.611   1.037  1.00  0.00     0.041 C 
HETATM    3  C11 UNL     1      -0.991   1.367   0.093  1.00  0.00     0.021 C 
HETATM    4  C17 UNL     1      -1.130  -0.127   0.273  1.00  0.00    -0.025 C 
HETATM    5  C18 UNL     1      -1.912  -0.436   1.535  1.00  0.00     0.017 C 
HETATM    6  C19 UNL     1      -1.714  -0.853  -0.887  1.00  0.00    -0.001 C 
HETATM    7  C20 UNL     1      -3.207  -0.794  -1.022  1.00  0.00     0.006 C 
HETATM    8  C21 UNL     1      -3.651  -2.156  -1.584  1.00  0.00     0.005 C 
HETATM    9  C22 UNL     1      -2.354  -2.866  -1.870  1.00  0.00    -0.014 C 
HETATM   10  C23 UNL     1      -2.453  -4.352  -1.697  1.00  0.00     0.010 C 
HETATM   11  C24 UNL     1      -1.459  -2.331  -0.756  1.00  0.00    -0.006 C 
HETATM   12  C25 UNL     1      -0.019  -2.613  -1.037  1.00  0.00     0.006 C 
HETATM   13  C26 UNL     1       0.802  -1.410  -0.745  1.00  0.00     0.013 C 
HETATM   14  C27 UNL     1       0.304  -0.630   0.450  1.00  0.00    -0.009 C 
HETATM   15  C28 UNL     1       0.525  -1.407   1.698  1.00  0.00     0.018 C 
ENDROOT
BRANCH   1  16
HETATM   16  O4  UNL     1       2.393   0.469   1.085  1.00  0.00    -0.309 OA
BRANCH  16  17
HETATM   17  C8  UNL     1       3.629   0.617   0.485  1.00  0.00     0.330 C 
HETATM   18  O3  UNL     1       3.618   0.926  -0.720  1.00  0.00    -0.256 OA
BRANCH  17  19
HETATM   19  C7  UNL     1       4.886   0.428   1.205  1.00  0.00     0.234 C 
HETATM   20  O2  UNL     1       4.910   0.115   2.422  1.00  0.00    -0.286 OA
BRANCH  19  21
HETATM   21  C6  UNL     1       6.144   0.604   0.504  1.00  0.00     0.117 C 
HETATM   22  C2  UNL     1       6.397  -0.335  -0.652  1.00  0.00     0.139 C 
HETATM   23  C3  UNL     1       7.872  -0.024  -0.877  1.00  0.00     0.060 C 
HETATM   24  C4  UNL     1       8.350  -0.001   0.527  1.00  0.00    -0.027 C 
HETATM   25  C5  UNL     1       7.356   0.361   1.330  1.00  0.00    -0.015 C 
BRANCH  22  26
HETATM   26  O1  UNL     1       6.155  -1.646  -0.421  1.00  0.00    -0.389 OA
HETATM   27  C1  UNL     1       5.341  -2.317  -1.275  1.00  0.00     0.202 C 
ENDBRANCH  22  26
ENDBRANCH  19  21
ENDBRANCH  17  19
ENDBRANCH  16  17
ENDBRANCH   1  16
BRANCH   3  28
HETATM   28  C12 UNL     1      -2.092   2.211   0.617  1.00  0.00     0.176 C 
BRANCH  28  29
HETATM   29  O5  UNL     1      -3.268   2.168  -0.072  1.00  0.00    -0.359 OA
BRANCH  29  30
HETATM   30  C13 UNL     1      -4.262   2.962   0.443  1.00  0.00     0.283 C 
HETATM   31  C14 UNL     1      -5.555   2.211   0.676  1.00  0.00     0.228 C 
HETATM   32  O6  UNL     1      -6.361   3.002   1.481  1.00  0.00    -0.384 OA
HETATM   33  C15 UNL     1      -6.329   4.307   1.042  1.00  0.00     0.194 C 
HETATM   34  C16 UNL     1      -5.818   4.455  -0.371  1.00  0.00     0.197 C 
HETATM   35  O7  UNL     1      -4.552   3.935  -0.539  1.00  0.00    -0.357 OA
ENDBRANCH  29  30
ENDBRANCH  28  29
ENDBRANCH   3  28
TORSDOF 8
