REMARK  7 active torsions:
REMARK  status: ('A' for Active; 'I' for Inactive)
REMARK    1  A    between atoms: C1_2  and  C2_3 
REMARK       I    between atoms: C1_2  and  N1_8 
REMARK    2  A    between atoms: N2_11  and  C9_12 
REMARK    3  A    between atoms: C9_12  and  C10_13 
REMARK    4  A    between atoms: N3_15  and  C12_16 
REMARK    5  A    between atoms: N4_18  and  C14_19 
REMARK    6  A    between atoms: C14_19  and  C15_20 
REMARK    7  A    between atoms: C19_25  and  C20_26 
ROOT
HETATM    1  C10 UNL     1       0.521  -1.307   0.512  1.00  0.00     0.073 A 
HETATM    2  C11 UNL     1      -0.698  -1.109  -0.171  1.00  0.00     0.146 A 
HETATM    3  N3  UNL     1      -1.658  -0.764   0.701  1.00  0.00    -0.254 N 
HETATM    4  N5  UNL     1      -1.072  -0.744   1.880  1.00  0.00    -0.236 N 
ATOM      5  H5  UNL     1      -1.544  -0.514   2.754  1.00  0.00     0.209 HD
HETATM    6  N6  UNL     1       0.196  -1.058   1.785  1.00  0.00    -0.287 N 
ATOM      7  H6  UNL     1       0.844  -1.106   2.571  1.00  0.00     0.188 HD
ENDROOT
BRANCH   3   8
HETATM    8  C12 UNL     1      -3.027  -0.478   0.443  1.00  0.00     0.052 C 
HETATM    9  C13 UNL     1      -3.666  -0.491  -0.718  1.00  0.00     0.113 C 
HETATM   10  N4  UNL     1      -5.029  -0.152  -0.588  1.00  0.00    -0.378 N 
HETATM   11  C19 UNL     1      -5.169   0.479   0.699  1.00  0.00     0.094 C 
HETATM   12  C25 UNL     1      -4.009  -0.095   1.494  1.00  0.00     0.086 C 
BRANCH  10  13
HETATM   13  C14 UNL     1      -6.114  -0.390  -1.550  1.00  0.00     0.168 C 
BRANCH  13  14
HETATM   14  C15 UNL     1      -6.225  -1.877  -1.789  1.00  0.00     0.000 A 
HETATM   15  C16 UNL     1      -7.007  -2.525  -2.698  1.00  0.00     0.017 A 
HETATM   16  C17 UNL     1      -6.934  -3.874  -2.724  1.00  0.00     0.008 A 
HETATM   17  C18 UNL     1      -6.079  -4.467  -1.832  1.00  0.00     0.050 A 
HETATM   18  S1  UNL     1      -5.412  -3.142  -0.996  1.00  0.00    -0.105 SA
ENDBRANCH  13  14
ENDBRANCH  10  13
BRANCH  11  19
HETATM   19  C20 UNL     1      -5.163   1.967   0.686  1.00  0.00     0.009 C 
HETATM   20  C21 UNL     1      -3.916   2.597   0.128  1.00  0.00     0.007 C 
HETATM   21  C22 UNL     1      -4.334   4.029  -0.199  1.00  0.00     0.000 C 
HETATM   22  C23 UNL     1      -5.846   4.068  -0.092  1.00  0.00     0.000 C 
HETATM   23  C24 UNL     1      -6.234   2.597  -0.165  1.00  0.00     0.007 C 
ENDBRANCH  11  19
ENDBRANCH   3   8
BRANCH   1  24
HETATM   24  C9  UNL     1       1.803  -1.695  -0.074  1.00  0.00     0.332 C 
BRANCH  24  25
HETATM   25  N2  UNL     1       2.825  -1.793   0.923  1.00  0.00     0.097 N 
HETATM   26  C8  UNL     1       4.090  -2.217   0.330  1.00  0.00     0.292 C 
HETATM   27  C7  UNL     1       4.838  -1.006  -0.225  1.00  0.00     0.156 C 
HETATM   28  N1  UNL     1       5.237  -0.204   0.899  1.00  0.00    -0.348 N 
HETATM   29  C1  UNL     1       6.307   0.697   0.969  1.00  0.00     0.224 C 
HETATM   30  C27 UNL     1       4.406  -0.387   2.099  1.00  0.00     0.156 C 
HETATM   31  O1  UNL     1       6.435   1.313   2.106  1.00  0.00    -0.273 OA
HETATM   32  C26 UNL     1       2.972  -0.658   1.770  1.00  0.00     0.292 C 
BRANCH  29  33
HETATM   33  C2  UNL     1       7.297   1.043  -0.036  1.00  0.00     0.078 C 
HETATM   34  C3  UNL     1       6.754   1.500  -1.349  1.00  0.00     0.014 C 
HETATM   35  C4  UNL     1       7.888   1.142  -2.310  1.00  0.00     0.001 C 
HETATM   36  C5  UNL     1       8.338  -0.207  -1.832  1.00  0.00     0.001 C 
HETATM   37  C6  UNL     1       8.208  -0.124  -0.324  1.00  0.00     0.014 C 
ENDBRANCH  29  33
ENDBRANCH  24  25
ENDBRANCH   1  24
TORSDOF 7
