REMARK  2 active torsions:
REMARK  status: ('A' for Active; 'I' for Inactive)
REMARK    1  A    between atoms: O1_1  and  C1_3 
REMARK    2  A    between atoms: C1_3  and  C2_4 
ROOT
HETATM    1  C2  UNL     1       0.358   0.034  -0.223  1.00  0.00     0.081 A 
HETATM    2  C3  UNL     1      -0.558   1.201   0.073  1.00  0.00     0.138 C 
HETATM    3  N1  UNL     1      -1.595   0.263  -0.359  1.00  0.00    -0.245 NA
HETATM    4  C4  UNL     1      -1.770  -0.885   0.546  1.00  0.00     0.131 C 
HETATM    5  C5  UNL     1      -0.340  -1.221   0.099  1.00  0.00     0.117 A 
HETATM    6  N2  UNL     1      -0.640  -0.387  -1.151  1.00  0.00    -0.227 NA
ENDROOT
BRANCH   1   7
HETATM    7  C1  UNL     1       1.770   0.193  -0.566  1.00  0.00     0.194 C 
BRANCH   7   8
HETATM    8  O1  UNL     1       2.498   0.615   0.547  1.00  0.00    -0.399 OA
ATOM      9  H1  UNL     1       3.416   0.718   0.324  1.00  0.00     0.209 HD
ENDBRANCH   7   8
ENDBRANCH   1   7
TORSDOF 2
