REMARK  5 active torsions:
REMARK  status: ('A' for Active; 'I' for Inactive)
REMARK    1  A    between atoms: C2_2  and  C3_3 
REMARK    2  A    between atoms: C5_5  and  N1_6 
REMARK       I    between atoms: N1_6  and  C6_8 
REMARK       I    between atoms: C6_8  and  N3_12 
REMARK    3  A    between atoms: N3_12  and  C7_14 
REMARK    4  A    between atoms: C10_17  and  N4_18 
REMARK       I    between atoms: C11_20  and  N6_22 
REMARK    5  A    between atoms: N7_31  and  C17_32 
ROOT
HETATM    1  N1  UNL     1      -1.023   1.668   1.165  1.00  0.00    -0.222 N 
ATOM      2  H1  UNL     1      -1.566   2.523   1.285  1.00  0.00     0.178 HD
HETATM    3  C6  UNL     1       0.259   1.793   0.598  1.00  0.00     0.668 C 
HETATM    4  N2  UNL     1       0.859   2.940   0.828  1.00  0.00    -0.235 N 
ATOM      5  H21 UNL     1       1.788   3.031   0.417  1.00  0.00     0.174 HD
ATOM      6  H22 UNL     1       0.397   3.660   1.384  1.00  0.00     0.174 HD
HETATM    7  N3  UNL     1       0.896   0.800  -0.169  1.00  0.00    -0.216 N 
ATOM      8  H3  UNL     1       0.605   0.626  -1.131  1.00  0.00     0.178 HD
ENDROOT
BRANCH   1   9
HETATM    9  C5  UNL     1      -1.634   0.435   1.590  1.00  0.00     0.110 C 
HETATM   10  C4  UNL     1      -1.905  -0.445   0.432  1.00  0.00     0.052 C 
HETATM   11  C3  UNL     1      -3.352  -0.828   0.230  1.00  0.00     0.094 C 
HETATM   12  N7  UNL     1      -4.258   0.251   0.448  1.00  0.00    -0.313 N 
HETATM   13  C16 UNL     1      -3.918   1.209   1.456  1.00  0.00     0.226 C 
HETATM   14  C15 UNL     1      -2.861   0.773   2.406  1.00  0.00     0.129 C 
HETATM   15  O1  UNL     1      -4.478   2.334   1.523  1.00  0.00    -0.273 OA
BRANCH  11  16
HETATM   16  C2  UNL     1      -3.643  -2.094   0.956  1.00  0.00     0.021 C 
HETATM   17  C1  UNL     1      -5.092  -2.544   0.797  1.00  0.00     0.007 C 
ENDBRANCH  11  16
BRANCH  12  18
HETATM   18  C17 UNL     1      -5.479   0.464  -0.256  1.00  0.00     0.037 A 
HETATM   19  C18 UNL     1      -5.492   0.300  -1.630  1.00  0.00     0.030 A 
HETATM   20  C19 UNL     1      -6.627   0.489  -2.384  1.00  0.00     0.002 A 
HETATM   21  C20 UNL     1      -7.802   0.853  -1.771  1.00  0.00     0.000 A 
HETATM   22  C21 UNL     1      -7.774   1.013  -0.397  1.00  0.00     0.002 A 
HETATM   23  C22 UNL     1      -6.647   0.828   0.374  1.00  0.00     0.030 A 
ENDBRANCH  12  18
ENDBRANCH   1   9
BRANCH   7  24
HETATM   24  C7  UNL     1       1.971   0.026   0.424  1.00  0.00     0.173 C 
HETATM   25  C8  UNL     1       3.127   0.908   0.835  1.00  0.00     0.034 C 
HETATM   26  C9  UNL     1       4.230  -0.158   0.994  1.00  0.00     0.033 C 
HETATM   27  C10 UNL     1       4.105  -0.827  -0.367  1.00  0.00     0.158 C 
HETATM   28  C14 UNL     1       2.581  -0.937  -0.558  1.00  0.00     0.284 C 
HETATM   29  F1  UNL     1       2.252  -0.675  -1.865  1.00  0.00    -0.202 F 
HETATM   30  F2  UNL     1       2.219  -2.215  -0.193  1.00  0.00    -0.202 F 
BRANCH  27  31
HETATM   31  N4  UNL     1       4.662   0.016  -1.377  1.00  0.00    -0.354 N 
HETATM   32  C11 UNL     1       5.882   0.202  -1.672  1.00  0.00     0.186 C 
HETATM   33  N5  UNL     1       6.156   1.117  -2.746  1.00  0.00    -0.064 NA
HETATM   34  N6  UNL     1       6.973  -0.419  -1.026  1.00  0.00    -0.364 N 
HETATM   35  C12 UNL     1       7.965   0.349  -0.258  1.00  0.00     0.151 C 
HETATM   36  C13 UNL     1       7.225  -1.861  -1.056  1.00  0.00     0.151 C 
ATOM     37  H4  UNL     1       3.988   0.539  -1.936  1.00  0.00     0.162 HD
ENDBRANCH  27  31
ENDBRANCH   7  24
TORSDOF 5
