REMARK  5 active torsions:
REMARK  status: ('A' for Active; 'I' for Inactive)
REMARK    1  A    between atoms: C2_2  and  C3_3 
REMARK    2  A    between atoms: C3_3  and  C4_4 
REMARK    3  A    between atoms: C5_5  and  O1_6 
REMARK    4  A    between atoms: C12_17  and  C13_18 
REMARK    5  A    between atoms: C16_26  and  C17_27 
ROOT
HETATM    1  C4  UNL     1       1.493  -0.615   0.518  1.00  0.00    -0.015 A 
HETATM    2  C5  UNL     1       0.312  -1.288   0.574  1.00  0.00     0.106 A 
HETATM    3  C6  UNL     1      -0.843  -0.602   0.178  1.00  0.00     0.118 A 
HETATM    4  C7  UNL     1      -0.786   0.719  -0.256  1.00  0.00     0.062 A 
HETATM    5  C8  UNL     1       0.440   1.404  -0.311  1.00  0.00    -0.004 A 
HETATM    6  C9  UNL     1       1.555   0.692   0.089  1.00  0.00    -0.030 A 
HETATM    7  C10 UNL     1       2.931   1.276   0.123  1.00  0.00     0.142 C 
HETATM    8  C11 UNL     1       3.046   2.504  -0.652  1.00  0.00     0.222 C 
HETATM    9  O2  UNL     1       4.158   3.091  -0.693  1.00  0.00    -0.273 OA
HETATM   10  N1  UNL     1       1.893   2.972  -1.321  1.00  0.00    -0.346 N 
ATOM     11  H1  UNL     1       2.006   3.450  -2.215  1.00  0.00     0.163 HD
HETATM   12  C12 UNL     1       0.540   2.799  -0.783  1.00  0.00     0.180 C 
HETATM   13  C14 UNL     1      -2.015   1.380  -0.630  1.00  0.00     0.210 C 
HETATM   14  O4  UNL     1      -2.048   2.551  -1.021  1.00  0.00    -0.285 OA
HETATM   15  C15 UNL     1      -3.285   0.668  -0.552  1.00  0.00     0.084 C 
HETATM   16  N2  UNL     1      -4.419   1.290  -0.602  1.00  0.00    -0.397 N 
ATOM     17  H21 UNL     1      -5.307   0.792  -0.547  1.00  0.00     0.156 HD
ATOM     18  H22 UNL     1      -4.446   2.305  -0.697  1.00  0.00     0.156 HD
HETATM   19  C16 UNL     1      -3.246  -0.801  -0.414  1.00  0.00     0.182 C 
HETATM   20  O5  UNL     1      -2.063  -1.234   0.214  1.00  0.00    -0.336 OA
ENDROOT
BRANCH   1  21
HETATM   21  C3  UNL     1       2.728  -1.368   0.925  1.00  0.00     0.042 C 
BRANCH  21  22
HETATM   22  C2  UNL     1       3.112  -2.252  -0.233  1.00  0.00     0.000 C 
HETATM   23  C1  UNL     1       4.356  -3.070   0.074  1.00  0.00     0.005 C 
ENDBRANCH  21  22
ENDBRANCH   1  21
BRANCH   2  24
HETATM   24  O1  UNL     1       0.151  -2.597   0.993  1.00  0.00    -0.357 OA
ATOM     25  H1  UNL     1      -0.674  -3.067   1.032  1.00  0.00     0.217 HD
ENDBRANCH   2  24
BRANCH  12  26
HETATM   26  C13 UNL     1       0.475   3.784   0.324  1.00  0.00     0.261 C 
HETATM   27  O3  UNL     1       1.375   4.517   0.630  1.00  0.00    -0.304 OA
ENDBRANCH  12  26
BRANCH  19  28
HETATM   28  C17 UNL     1      -4.411  -1.357   0.377  1.00  0.00     0.034 C 
HETATM   29  C18 UNL     1      -5.742  -1.059  -0.226  1.00  0.00     0.008 C 
ENDBRANCH  19  28
TORSDOF 5
