REMARK  7 active torsions:
REMARK  status: ('A' for Active; 'I' for Inactive)
REMARK    1  A    between atoms: C2_2  and  N1_3 
REMARK    2  A    between atoms: N1_3  and  C3_5 
REMARK    3  A    between atoms: C4_10  and  N4_11 
REMARK    4  A    between atoms: N4_11  and  C5_13 
REMARK    5  A    between atoms: C8_21  and  C9_22 
REMARK    6  A    between atoms: N9_32  and  C15_34 
REMARK    7  A    between atoms: C15_34  and  C16_35 
ROOT
HETATM    1  C3  UNL     1      -2.822   1.404   0.451  1.00  0.00     0.132 A 
HETATM    2  N2  UNL     1      -3.963   0.654   0.517  1.00  0.00    -0.283 N 
ATOM      3  H2  UNL     1      -4.802   0.921   1.033  1.00  0.00     0.188 HD
HETATM    4  N3  UNL     1      -3.836  -0.452  -0.169  1.00  0.00    -0.283 N 
ATOM      5  H3  UNL     1      -4.545  -1.177  -0.277  1.00  0.00     0.188 HD
HETATM    6  C4  UNL     1      -2.606  -0.462  -0.706  1.00  0.00     0.134 A 
HETATM    7  C8  UNL     1      -1.941   0.704  -0.329  1.00  0.00     0.082 A 
ENDROOT
BRANCH   7   8
HETATM    8  C9  UNL     1      -0.565   1.056  -0.712  1.00  0.00     0.066 A 
HETATM    9  C10 UNL     1      -0.311   1.829  -1.829  1.00  0.00     0.119 A 
HETATM   10  N7  UNL     1       0.922   2.174  -2.233  1.00  0.00    -0.362 N 
HETATM   11  C11 UNL     1       1.963   1.720  -1.475  1.00  0.00     0.064 A 
ATOM     12  H7  UNL     1       1.073   2.746  -3.064  1.00  0.00     0.165 HD
HETATM   13  C12 UNL     1       3.266   2.050  -1.850  1.00  0.00     0.049 A 
HETATM   14  C19 UNL     1       1.754   0.950  -0.357  1.00  0.00     0.104 A 
HETATM   15  C13 UNL     1       4.268   1.573  -1.061  1.00  0.00     0.092 A 
HETATM   16  N8  UNL     1       4.049   0.814   0.039  1.00  0.00    -0.350 N 
HETATM   17  C14 UNL     1       2.814   0.469   0.442  1.00  0.00     0.134 A 
ATOM     18  H8  UNL     1       4.851   0.492   0.582  1.00  0.00     0.166 HD
HETATM   19  N9  UNL     1       2.508  -0.218   1.429  1.00  0.00    -0.354 N 
ATOM     20  H9  UNL     1       1.493  -0.306   1.474  1.00  0.00     0.166 HD
HETATM   21  N10 UNL     1       0.496   0.630   0.007  1.00  0.00    -0.349 N 
ATOM     22  H10 UNL     1       0.343   0.058   0.837  1.00  0.00     0.166 HD
BRANCH  19  23
HETATM   23  C15 UNL     1       3.069  -0.903   2.486  1.00  0.00     0.067 C 
BRANCH  23  24
HETATM   24  C16 UNL     1       4.489  -0.604   2.880  1.00  0.00     0.024 A 
HETATM   25  C17 UNL     1       5.030  -1.404   4.072  1.00  0.00     0.010 A 
HETATM   26  C18 UNL     1       5.553  -1.631   2.703  1.00  0.00     0.010 A 
ENDBRANCH  23  24
ENDBRANCH  19  23
ENDBRANCH   7   8
BRANCH   1  27
HETATM   27  N1  UNL     1      -2.735   2.516   1.044  1.00  0.00    -0.375 N 
ATOM     28  H1  UNL     1      -3.585   2.763   1.551  1.00  0.00     0.161 HD
BRANCH  27  29
HETATM   29  C2  UNL     1      -1.732   3.483   1.160  1.00  0.00     0.116 C 
HETATM   30  C1  UNL     1      -2.033   4.655   0.210  1.00  0.00     0.026 C 
ENDBRANCH  27  29
ENDBRANCH   1  27
BRANCH   6  31
HETATM   31  N4  UNL     1      -2.011  -1.451  -1.538  1.00  0.00    -0.352 N 
ATOM     32  H4  UNL     1      -1.062  -1.293  -1.876  1.00  0.00     0.163 HD
BRANCH  31  33
HETATM   33  C5  UNL     1      -2.686  -2.671  -1.929  1.00  0.00     0.205 C 
HETATM   34  C6  UNL     1      -3.011  -3.589  -0.801  1.00  0.00     0.171 C 
HETATM   35  N5  UNL     1      -4.193  -4.286  -1.253  1.00  0.00    -0.339 N 
HETATM   36  C7  UNL     1      -4.758  -3.569  -2.334  1.00  0.00     0.317 C 
ATOM     37  H5  UNL     1      -4.560  -5.152  -0.858  1.00  0.00     0.164 HD
HETATM   38  O1  UNL     1      -5.751  -3.840  -3.055  1.00  0.00    -0.247 OA
HETATM   39  N6  UNL     1      -3.985  -2.374  -2.529  1.00  0.00    -0.320 N 
ATOM     40  H6  UNL     1      -4.278  -1.510  -2.985  1.00  0.00     0.166 HD
ENDBRANCH  31  33
ENDBRANCH   6  31
TORSDOF 7
