REMARK  17 active torsions:
REMARK  status: ('A' for Active; 'I' for Inactive)
REMARK    1  A    between atoms: C2_2  and  N1_3 
REMARK    2  A    between atoms: N1_3  and  C3_4 
REMARK    3  A    between atoms: N1_3  and  C15_26 
REMARK    4  A    between atoms: C3_4  and  C4_5 
REMARK    5  A    between atoms: C5_6  and  C6_7 
REMARK    6  A    between atoms: C6_7  and  N2_8 
REMARK       I    between atoms: N2_8  and  C7_10 
REMARK    7  A    between atoms: C7_10  and  C8_12 
REMARK    8  A    between atoms: C8_12  and  N3_13 
REMARK    9  A    between atoms: C10_17  and  N5_18 
REMARK   10  A    between atoms: C15_26  and  C16_27 
REMARK   11  A    between atoms: C16_27  and  O3_28 
REMARK   12  A    between atoms: C16_27  and  C17_30 
REMARK   13  A    between atoms: C17_30  and  N7_31 
REMARK   14  A    between atoms: N8_33  and  C19_34 
REMARK   15  A    between atoms: C19_34  and  C20_35 
REMARK   16  A    between atoms: C20_35  and  O4_36 
REMARK   17  A    between atoms: O4_36  and  C21_37 
ROOT
HETATM    1  N1  UNL     1       1.281  -0.967  -1.108  1.00  0.00     0.101 N 
ENDROOT
BRANCH   1   2
HETATM    2  C2  UNL     1       1.506   0.275  -1.804  1.00  0.00     0.269 C 
HETATM    3  C1  UNL     1       2.980   0.571  -1.822  1.00  0.00     0.037 C 
ENDBRANCH   1   2
BRANCH   1   4
HETATM    4  C3  UNL     1      -0.122  -1.319  -1.090  1.00  0.00     0.365 C 
BRANCH   4   5
HETATM    5  C4  UNL     1      -0.843  -0.360  -0.254  1.00  0.00    -0.075 C 
HETATM    6  C5  UNL     1      -1.456   0.431   0.419  1.00  0.00    -0.085 C 
BRANCH   6   7
HETATM    7  C6  UNL     1      -2.234   1.400   1.232  1.00  0.00     0.217 C 
BRANCH   7   8
HETATM    8  N2  UNL     1      -3.456   1.758   0.540  1.00  0.00    -0.349 N 
HETATM    9  C7  UNL     1      -3.363   2.371  -0.740  1.00  0.00     0.239 C 
HETATM   10  O1  UNL     1      -2.264   2.615  -1.293  1.00  0.00    -0.272 OA
ATOM     11  H2  UNL     1      -4.366   1.574   0.963  1.00  0.00     0.163 HD
BRANCH   9  12
HETATM   12  C8  UNL     1      -4.603   2.760  -1.500  1.00  0.00     0.272 C 
BRANCH  12  13
HETATM   13  N3  UNL     1      -5.780   2.388  -0.700  1.00  0.00    -0.224 N 
HETATM   14  N4  UNL     1      -6.405   3.131   0.196  1.00  0.00    -0.291 N 
HETATM   15  C9  UNL     1      -7.422   2.461   0.718  1.00  0.00     0.158 A 
ATOM     16  H4  UNL     1      -6.142   4.083   0.449  1.00  0.00     0.188 HD
HETATM   17  C10 UNL     1      -7.450   1.216   0.122  1.00  0.00     0.136 A 
HETATM   18  N6  UNL     1      -6.418   1.227  -0.741  1.00  0.00    -0.267 N 
ATOM     19  H6  UNL     1      -6.161   0.447  -1.346  1.00  0.00     0.190 HD
BRANCH  17  20
HETATM   20  N5  UNL     1      -8.340   0.143   0.340  1.00  0.00    -0.361 N 
HETATM   21  C11 UNL     1      -9.360   0.271   1.347  1.00  0.00     0.150 C 
HETATM   22  C12 UNL     1     -10.502  -0.688   1.175  1.00  0.00     0.187 C 
HETATM   23  O2  UNL     1     -10.045  -1.941   0.831  1.00  0.00    -0.388 OA
HETATM   24  C13 UNL     1      -9.423  -1.939  -0.415  1.00  0.00     0.187 C 
HETATM   25  C14 UNL     1      -8.216  -1.056  -0.445  1.00  0.00     0.150 C 
ENDBRANCH  17  20
ENDBRANCH  12  13
ENDBRANCH   9  12
ENDBRANCH   7   8
ENDBRANCH   6   7
ENDBRANCH   4   5
ENDBRANCH   1   4
BRANCH   1  26
HETATM   26  C15 UNL     1       2.168  -1.993  -1.526  1.00  0.00     0.306 C 
BRANCH  26  27
HETATM   27  C16 UNL     1       1.950  -3.328  -0.913  1.00  0.00     0.166 C 
BRANCH  27  28
HETATM   28  O3  UNL     1       2.905  -4.216  -1.467  1.00  0.00    -0.392 OA
ATOM     29  H3  UNL     1       2.766  -5.070  -1.075  1.00  0.00     0.210 HD
ENDBRANCH  27  28
BRANCH  27  30
HETATM   30  C17 UNL     1       2.057  -3.303   0.574  1.00  0.00     0.180 C 
BRANCH  30  31
HETATM   31  N7  UNL     1       3.345  -2.879   1.082  1.00  0.00    -0.270 N 
HETATM   32  C18 UNL     1       3.816  -1.672   1.415  1.00  0.00     0.215 A 
HETATM   33  N8  UNL     1       5.082  -1.748   1.841  1.00  0.00    -0.270 N 
HETATM   34  N10 UNL     1       5.405  -3.030   1.771  1.00  0.00    -0.005 NA
HETATM   35  N11 UNL     1       4.372  -3.718   1.318  1.00  0.00    -0.005 NA
BRANCH  33  36
HETATM   36  C19 UNL     1       5.960  -0.663   2.299  1.00  0.00     0.173 C 
BRANCH  36  37
HETATM   37  C20 UNL     1       6.670  -0.165   1.042  1.00  0.00     0.197 C 
BRANCH  37  38
HETATM   38  O4  UNL     1       7.525   0.876   1.421  1.00  0.00    -0.348 OA
BRANCH  38  39
HETATM   39  C21 UNL     1       8.333   1.574   0.539  1.00  0.00     0.089 A 
HETATM   40  C22 UNL     1       8.327   1.263  -0.795  1.00  0.00     0.055 A 
HETATM   41  C23 UNL     1       9.157   2.001  -1.624  1.00  0.00     0.090 A 
HETATM   42  N9  UNL     1       9.932   2.975  -1.137  1.00  0.00    -0.374 N 
HETATM   43  C24 UNL     1       9.963   3.309   0.175  1.00  0.00     0.109 A 
ATOM     44  H9  UNL     1      10.528   3.491  -1.784  1.00  0.00     0.164 HD
HETATM   45  C25 UNL     1       9.130   2.573   1.021  1.00  0.00     0.060 A 
HETATM   46  S1  UNL     1       9.134   2.969   2.745  1.00  0.00    -0.048 SA
ENDBRANCH  38  39
ENDBRANCH  37  38
ENDBRANCH  36  37
ENDBRANCH  33  36
ENDBRANCH  30  31
ENDBRANCH  27  30
ENDBRANCH  26  27
ENDBRANCH   1  26
TORSDOF 17
