REMARK  10 active torsions:
REMARK  status: ('A' for Active; 'I' for Inactive)
REMARK    1  A    between atoms: O1_2  and  C2_3 
REMARK    2  A    between atoms: C2_3  and  C3_5 
REMARK       I    between atoms: C3_5  and  N1_7 
REMARK    3  A    between atoms: N1_7  and  C4_9 
REMARK    4  A    between atoms: C7_16  and  C8_17 
REMARK    5  A    between atoms: C8_17  and  N4_18 
REMARK       I    between atoms: N4_18  and  C9_20 
REMARK    6  A    between atoms: C9_20  and  C10_22 
REMARK    7  A    between atoms: C10_22  and  N5_23 
REMARK    8  A    between atoms: N5_23  and  C11_25 
REMARK    9  A    between atoms: N11_39  and  C14_40 
REMARK   10  A    between atoms: C14_40  and  O7_41 
ROOT
HETATM    1  C4  UNL     1      -3.128   0.629   0.525  1.00  0.00     0.708 A 
HETATM    2  N2  UNL     1      -1.992   0.607   1.325  1.00  0.00    -0.021 N 
ATOM      3  H2  UNL     1      -1.970   1.178   2.170  1.00  0.00     0.203 HD
HETATM    4  C5  UNL     1      -0.922  -0.144   1.018  1.00  0.00     0.710 A 
HETATM    5  N3  UNL     1       0.211  -0.100   1.739  1.00  0.00    -0.200 N 
ATOM      6  H3  UNL     1       0.231   0.472   2.583  1.00  0.00     0.183 HD
HETATM    7  C6  UNL     1       1.342  -0.792   1.387  1.00  0.00     0.120 A 
HETATM    8  C7  UNL     1       1.341  -1.557   0.268  1.00  0.00     0.045 A 
HETATM    9  C12 UNL     1       0.139  -1.584  -0.449  1.00  0.00     0.280 A 
HETATM   10  O5  UNL     1       0.081  -2.298  -1.494  1.00  0.00    -0.266 OA
HETATM   11  N10 UNL     1      -0.957  -0.899  -0.094  1.00  0.00    -0.057 N 
HETATM   12  C13 UNL     1      -2.053  -0.872  -0.855  1.00  0.00     0.366 A 
HETATM   13  O6  UNL     1      -2.086  -1.579  -1.890  1.00  0.00    -0.245 OA
HETATM   14  N11 UNL     1      -3.157  -0.112  -0.573  1.00  0.00    -0.109 N 
ENDROOT
BRANCH   8  15
HETATM   15  C8  UNL     1       2.480  -2.382  -0.218  1.00  0.00     0.168 C 
BRANCH  15  16
HETATM   16  N4  UNL     1       3.528  -1.543  -0.720  1.00  0.00    -0.355 N 
HETATM   17  C9  UNL     1       4.297  -0.510  -0.268  1.00  0.00     0.236 C 
HETATM   18  O4  UNL     1       4.281  -0.031   0.873  1.00  0.00    -0.272 OA
ATOM     19  H4  UNL     1       3.765  -1.785  -1.682  1.00  0.00     0.162 HD
BRANCH  17  20
HETATM   20  C10 UNL     1       5.250   0.148  -1.248  1.00  0.00     0.240 C 
BRANCH  20  21
HETATM   21  N5  UNL     1       5.920   1.241  -0.585  1.00  0.00    -0.215 N 
ATOM     22  H5  UNL     1       5.403   2.108  -0.439  1.00  0.00     0.178 HD
BRANCH  21  23
HETATM   23  C11 UNL     1       7.115   1.180  -0.175  1.00  0.00     0.710 A 
HETATM   24  N6  UNL     1       7.875   0.058  -0.335  1.00  0.00    -0.115 N 
HETATM   25  N7  UNL     1       9.057   0.243   0.180  1.00  0.00    -0.213 N 
ATOM     26  H6  UNL     1       7.563  -0.800  -0.791  1.00  0.00     0.207 HD
HETATM   27  N8  UNL     1       9.080   1.458   0.670  1.00  0.00    -0.213 N 
ATOM     28  H7  UNL     1       9.822  -0.432   0.198  1.00  0.00     0.210 HD
HETATM   29  N9  UNL     1       7.891   2.057   0.463  1.00  0.00    -0.115 N 
ATOM     30  H8  UNL     1       9.879   1.886   1.138  1.00  0.00     0.210 HD
ATOM     31  H9  UNL     1       7.633   3.004   0.742  1.00  0.00     0.207 HD
ENDBRANCH  21  23
ENDBRANCH  20  21
ENDBRANCH  17  20
ENDBRANCH  15  16
ENDBRANCH   8  15
BRANCH  14  32
HETATM   32  C14 UNL     1      -4.213  -0.100  -1.582  1.00  0.00     0.319 C 
BRANCH  32  33
HETATM   33  O7  UNL     1      -3.881   0.859  -2.555  1.00  0.00    -0.381 OA
ATOM     34  H7  UNL     1      -4.568   0.867  -3.211  1.00  0.00     0.211 HD
ENDBRANCH  32  33
ENDBRANCH  14  32
BRANCH   1  35
HETATM   35  N1  UNL     1      -4.028   1.373   0.950  1.00  0.00    -0.150 N 
HETATM   36  C3  UNL     1      -5.294   1.775   0.608  1.00  0.00     0.335 C 
HETATM   37  O3  UNL     1      -5.559   2.797  -0.107  1.00  0.00    -0.261 OA
ATOM     38  H1  UNL     1      -3.736   1.822   1.818  1.00  0.00     0.188 HD
BRANCH  36  39
HETATM   39  C2  UNL     1      -6.437   0.971   1.086  1.00  0.00     0.351 C 
HETATM   40  O2  UNL     1      -6.191   0.001   1.881  1.00  0.00    -0.254 OA
BRANCH  39  41
HETATM   41  O1  UNL     1      -7.706   1.232   0.694  1.00  0.00    -0.319 OA
HETATM   42  C1  UNL     1      -8.843   0.476   1.088  1.00  0.00     0.213 C 
ENDBRANCH  39  41
ENDBRANCH  36  39
ENDBRANCH   1  35
TORSDOF 10
