REMARK  13 active torsions:
REMARK  status: ('A' for Active; 'I' for Inactive)
REMARK    1  A    between atoms: N1_1  and  C1_5 
REMARK    2  A    between atoms: C1_5  and  C2_6 
REMARK    3  A    between atoms: C1_5  and  C3_9 
REMARK    4  A    between atoms: C3_9  and  C4_11 
REMARK    5  A    between atoms: C4_11  and  C5_12 
REMARK    6  A    between atoms: C5_12  and  C6_13 
REMARK    7  A    between atoms: C8_18  and  C9_19 
REMARK    8  A    between atoms: C9_19  and  O5_20 
REMARK    9  A    between atoms: C9_19  and  C10_22 
REMARK       I    between atoms: C10_22  and  N2_24 
REMARK   10  A    between atoms: N2_24  and  C11_26 
REMARK   11  A    between atoms: N3_27  and  N4_28 
REMARK   12  A    between atoms: N6_33  and  O7_34 
REMARK   13  A    between atoms: N7_36  and  O8_37 
ROOT
HETATM    1  C6  UNL     1       1.521   1.301  -0.361  1.00  0.00     0.130 C 
HETATM    2  S1  UNL     1       2.443   2.729   0.343  1.00  0.00    -0.077 SA
HETATM    3  S2  UNL     1       0.875   4.091   0.919  1.00  0.00    -0.018 SA
HETATM    4  C7  UNL     1      -0.582   3.052   0.995  1.00  0.00     0.210 C 
HETATM    5  O4  UNL     1      -1.237   3.059   2.023  1.00  0.00    -0.284 OA
HETATM    6  C8  UNL     1      -0.917   2.235  -0.194  1.00  0.00     0.176 C 
HETATM    7  C12 UNL     1       0.244   1.802  -0.971  1.00  0.00     0.156 C 
HETATM    8  O9  UNL     1       0.197   1.841  -2.186  1.00  0.00    -0.296 OA
ENDROOT
BRANCH   6   9
HETATM    9  C9  UNL     1      -1.766   1.064   0.314  1.00  0.00     0.230 C 
BRANCH   9  10
HETATM   10  O5  UNL     1      -2.896   1.675   0.907  1.00  0.00    -0.385 OA
ATOM     11  H5  UNL     1      -3.422   0.949   1.222  1.00  0.00     0.210 HD
ENDBRANCH   9  10
BRANCH   9  12
HETATM   12  C10 UNL     1      -2.238   0.205  -0.781  1.00  0.00     0.266 C 
HETATM   13  O6  UNL     1      -1.408  -0.445  -1.450  1.00  0.00    -0.270 OA
HETATM   14  N2  UNL     1      -3.610   0.086  -1.107  1.00  0.00    -0.151 N 
ATOM     15  H2  UNL     1      -4.022   0.727  -1.784  1.00  0.00     0.187 HD
BRANCH  14  16
HETATM   16  C11 UNL     1      -4.360  -0.836  -0.552  1.00  0.00     0.767 A 
HETATM   17  N3  UNL     1      -5.666  -1.057  -0.770  1.00  0.00    -0.005 N 
HETATM   18  N5  UNL     1      -6.102  -2.074  -0.037  1.00  0.00    -0.162 N 
HETATM   19  N6  UNL     1      -5.069  -2.500   0.648  1.00  0.00    -0.035 N 
ATOM     20  H5  UNL     1      -7.050  -2.449  -0.012  1.00  0.00     0.215 HD
HETATM   21  N7  UNL     1      -3.991  -1.762   0.354  1.00  0.00     0.064 N 
BRANCH  17  22
HETATM   22  N4  UNL     1      -6.483  -0.344  -1.634  1.00  0.00    -0.308 N 
ATOM     23  H42 UNL     1      -6.148   0.438  -2.197  1.00  0.00     0.179 HD
ATOM     24  H41 UNL     1      -7.475  -0.512  -1.800  1.00  0.00     0.179 HD
ENDBRANCH  17  22
BRANCH  19  25
HETATM   25  O7  UNL     1      -5.099  -3.556   1.541  1.00  0.00    -0.250 OA
ATOM     26  H7  UNL     1      -4.350  -3.865   2.038  1.00  0.00     0.248 HD
ENDBRANCH  19  25
BRANCH  21  27
HETATM   27  O8  UNL     1      -2.751  -1.940   0.891  1.00  0.00    -0.251 OA
ATOM     28  H8  UNL     1      -2.491  -2.593   1.530  1.00  0.00     0.247 HD
ENDBRANCH  21  27
ENDBRANCH  14  16
ENDBRANCH   9  12
ENDBRANCH   6   9
BRANCH   1  29
HETATM   29  C5  UNL     1       2.382   0.680  -1.392  1.00  0.00     0.031 C 
BRANCH  29  30
HETATM   30  C4  UNL     1       3.701   0.162  -0.964  1.00  0.00     0.083 C 
BRANCH  30  31
HETATM   31  C3  UNL     1       3.679  -0.921   0.041  1.00  0.00     0.168 C 
HETATM   32  O3  UNL     1       2.618  -1.356   0.434  1.00  0.00    -0.295 OA
BRANCH  31  33
HETATM   33  C1  UNL     1       4.919  -1.518   0.607  1.00  0.00     0.352 C 
BRANCH  33  34
HETATM   34  N1  UNL     1       4.566  -2.596   1.538  1.00  0.00    -0.058 N 
ATOM     35  H13 UNL     1       5.378  -3.026   1.981  1.00  0.00     0.275 HD
ATOM     36  H12 UNL     1       4.117  -2.260   2.390  1.00  0.00     0.275 HD
ATOM     37  H11 UNL     1       3.993  -3.261   1.018  1.00  0.00     0.275 HD
ENDBRANCH  33  34
BRANCH  33  38
HETATM   38  C2  UNL     1       5.749  -0.555   1.360  1.00  0.00     0.212 C 
HETATM   39  O1  UNL     1       5.989  -0.747   2.588  1.00  0.00    -0.646 OA
HETATM   40  O2  UNL     1       6.312   0.589   0.812  1.00  0.00    -0.646 OA
ENDBRANCH  33  38
ENDBRANCH  31  33
ENDBRANCH  30  31
ENDBRANCH  29  30
ENDBRANCH   1  29
TORSDOF 13
