REMARK  12 active torsions:
REMARK  status: ('A' for Active; 'I' for Inactive)
REMARK    1  A    between atoms: C2_2  and  N1_3 
REMARK       I    between atoms: N1_3  and  C3_5 
REMARK    2  A    between atoms: C3_5  and  C4_7 
REMARK    3  A    between atoms: C4_7  and  O2_8 
REMARK    4  A    between atoms: C5_11  and  N2_12 
REMARK    5  A    between atoms: C7_16  and  N4_17 
REMARK    6  A    between atoms: N4_17  and  C8_19 
REMARK    7  A    between atoms: C8_19  and  C9_20 
REMARK    8  A    between atoms: C10_21  and  C11_22 
REMARK    9  A    between atoms: C11_22  and  O4_23 
REMARK   10  A    between atoms: O4_23  and  C12_24 
REMARK   11  A    between atoms: C20_42  and  C21_43 
REMARK   12  A    between atoms: C21_43  and  O7_44 
ROOT
HETATM    1  N2  UNL     1       1.773  -0.621   0.455  1.00  0.00    -0.244 N 
HETATM    2  C6  UNL     1       1.451   0.024   1.588  1.00  0.00     0.210 A 
HETATM    3  N3  UNL     1       0.302   0.741   1.702  1.00  0.00    -0.187 N 
ATOM      4  H3  UNL     1       0.073   1.226   2.570  1.00  0.00     0.185 HD
HETATM    5  C7  UNL     1      -0.537   0.797   0.628  1.00  0.00     0.683 A 
HETATM    6  N8  UNL     1      -0.232   0.157  -0.514  1.00  0.00    -0.141 N 
ATOM      7  H8  UNL     1      -0.860   0.198  -1.317  1.00  0.00     0.189 HD
HETATM    8  C19 UNL     1       0.922  -0.542  -0.577  1.00  0.00     0.345 A 
HETATM    9  O5  UNL     1       1.200  -1.137  -1.649  1.00  0.00    -0.246 OA
ENDROOT
BRANCH   5  10
HETATM   10  N4  UNL     1      -1.606   1.489   0.799  1.00  0.00    -0.215 N 
ATOM     11  H4  UNL     1      -1.760   1.942   1.700  1.00  0.00     0.178 HD
BRANCH  10  12
HETATM   12  C8  UNL     1      -2.592   1.648  -0.232  1.00  0.00     0.232 C 
BRANCH  12  13
HETATM   13  C9  UNL     1      -3.364   0.409  -0.332  1.00  0.00    -0.084 C 
HETATM   14  C10 UNL     1      -4.019  -0.617  -0.432  1.00  0.00    -0.078 C 
BRANCH  14  15
HETATM   15  C11 UNL     1      -4.807  -1.845  -0.577  1.00  0.00     0.269 C 
BRANCH  15  16
HETATM   16  O4  UNL     1      -6.122  -1.486  -0.901  1.00  0.00    -0.343 OA
BRANCH  16  17
HETATM   17  C12 UNL     1      -6.839  -0.698  -0.025  1.00  0.00     0.064 A 
HETATM   18  C13 UNL     1      -7.257   0.483  -0.448  1.00  0.00     0.052 A 
HETATM   19  C14 UNL     1      -6.971   0.892  -1.732  1.00  0.00     0.106 A 
HETATM   20  C16 UNL     1      -7.980   1.302   0.403  1.00  0.00     0.116 A 
HETATM   21  N5  UNL     1      -7.411   2.099  -2.131  1.00  0.00    -0.361 N 
HETATM   22  C15 UNL     1      -8.119   2.913  -1.314  1.00  0.00     0.181 A 
ATOM     23  H5  UNL     1      -7.204   2.411  -3.080  1.00  0.00     0.166 HD
HETATM   24  N6  UNL     1      -8.392   2.504  -0.064  1.00  0.00    -0.338 N 
ATOM     25  H6  UNL     1      -8.926   3.117   0.552  1.00  0.00     0.168 HD
HETATM   26  N7  UNL     1      -8.248   0.933   1.588  1.00  0.00    -0.375 N 
HETATM   27  C17 UNL     1      -7.878  -0.303   2.208  1.00  0.00     0.128 A 
ATOM     28  H7  UNL     1      -8.784   1.587   2.159  1.00  0.00     0.161 HD
HETATM   29  C18 UNL     1      -7.091  -1.229   1.328  1.00  0.00     0.085 A 
ENDBRANCH  16  17
ENDBRANCH  15  16
ENDBRANCH  14  15
ENDBRANCH  12  13
ENDBRANCH  10  12
ENDBRANCH   5  10
BRANCH   1  30
HETATM   30  C5  UNL     1       2.992  -1.389   0.314  1.00  0.00     0.386 C 
HETATM   31  O3  UNL     1       4.005  -0.691   0.931  1.00  0.00    -0.296 OA
HETATM   32  C4  UNL     1       4.890  -0.269  -0.081  1.00  0.00     0.278 C 
HETATM   33  C20 UNL     1       4.749  -1.403  -1.073  1.00  0.00     0.222 C 
HETATM   34  O6  UNL     1       3.349  -1.600  -0.994  1.00  0.00    -0.330 OA
BRANCH  32  35
HETATM   35  C3  UNL     1       6.249  -0.072   0.425  1.00  0.00     0.283 C 
HETATM   36  N1  UNL     1       6.914   1.155   0.187  1.00  0.00    -0.357 N 
ATOM     37  H1  UNL     1       6.457   1.904  -0.333  1.00  0.00     0.162 HD
HETATM   38  O1  UNL     1       6.813  -0.983   1.061  1.00  0.00    -0.267 OA
BRANCH  36  39
HETATM   39  C2  UNL     1       8.258   1.321   0.699  1.00  0.00     0.118 C 
HETATM   40  C1  UNL     1       8.827   2.674   0.365  1.00  0.00     0.026 C 
ENDBRANCH  36  39
ENDBRANCH  32  35
BRANCH  32  41
HETATM   41  O2  UNL     1       4.399   0.869  -0.738  1.00  0.00    -0.356 OA
ATOM     42  H2  UNL     1       3.517   0.741  -1.066  1.00  0.00     0.213 HD
ENDBRANCH  32  41
BRANCH  33  43
HETATM   43  C21 UNL     1       5.453  -2.659  -0.650  1.00  0.00     0.202 C 
BRANCH  43  44
HETATM   44  O7  UNL     1       5.066  -3.725  -1.496  1.00  0.00    -0.398 OA
ATOM     45  H7  UNL     1       5.512  -4.520  -1.228  1.00  0.00     0.209 HD
ENDBRANCH  43  44
ENDBRANCH  33  43
ENDBRANCH   1  30
TORSDOF 12
