REMARK  9 active torsions:
REMARK  status: ('A' for Active; 'I' for Inactive)
REMARK    1  A    between atoms: C4_7  and  S1_8 
REMARK    2  A    between atoms: S1_8  and  C5_9 
REMARK    3  A    between atoms: S1_8  and  N5_23 
REMARK    4  A    between atoms: C5_9  and  N3_10 
REMARK    5  A    between atoms: C5_9  and  C10_20 
REMARK       I    between atoms: N3_10  and  C6_12 
REMARK    6  A    between atoms: C6_12  and  C7_14 
REMARK    7  A    between atoms: C7_14  and  N4_17 
REMARK    8  A    between atoms: N4_17  and  O2_18 
REMARK    9  A    between atoms: C13_28  and  N7_29 
ROOT
HETATM    1  S1  UNL     1       0.250   0.909   0.873  1.00  0.00    -0.029 SA
ENDROOT
BRANCH   1   2
HETATM    2  C4  UNL     1      -0.470  -0.647   0.665  1.00  0.00     0.110 A 
HETATM    3  C3  UNL     1      -1.309  -0.902  -0.407  1.00  0.00     0.083 A 
HETATM    4  N2  UNL     1      -1.580   0.055  -1.307  1.00  0.00    -0.349 N 
HETATM    5  C18 UNL     1      -1.859  -2.140  -0.540  1.00  0.00     0.063 A 
HETATM    6  C2  UNL     1      -2.400  -0.237  -2.333  1.00  0.00     0.186 A 
ATOM      7  H2  UNL     1      -1.173   0.986  -1.215  1.00  0.00     0.166 HD
HETATM    8  N1  UNL     1      -2.968  -1.439  -2.510  1.00  0.00    -0.314 N 
HETATM    9  C1  UNL     1      -3.849  -1.735  -3.621  1.00  0.00     0.160 C 
HETATM   10  C19 UNL     1      -2.692  -2.396  -1.603  1.00  0.00     0.260 A 
HETATM   11  O5  UNL     1      -3.188  -3.542  -1.708  1.00  0.00    -0.267 OA
HETATM   12  C17 UNL     1      -1.572  -3.116   0.393  1.00  0.00     0.036 A 
HETATM   13  C16 UNL     1      -0.734  -2.844   1.453  1.00  0.00     0.090 A 
HETATM   14  N10 UNL     1      -0.206  -1.613   1.559  1.00  0.00    -0.358 N 
ATOM     15  H10 UNL     1       0.414  -1.406   2.342  1.00  0.00     0.166 HD
ENDBRANCH   1   2
BRANCH   1  16
HETATM   16  C5  UNL     1       1.814   1.050   0.054  1.00  0.00     0.265 C 
BRANCH  16  17
HETATM   17  N3  UNL     1       2.773   0.102   0.529  1.00  0.00    -0.336 N 
HETATM   18  C6  UNL     1       3.350  -0.861  -0.338  1.00  0.00     0.245 C 
HETATM   19  O1  UNL     1       3.026  -0.903  -1.553  1.00  0.00    -0.271 OA
ATOM     20  H3  UNL     1       3.048   0.118   1.511  1.00  0.00     0.164 HD
BRANCH  18  21
HETATM   21  C7  UNL     1       4.353  -1.857   0.144  1.00  0.00     0.130 C 
HETATM   22  C8  UNL     1       3.640  -2.728   1.176  1.00  0.00     0.046 C 
HETATM   23  C9  UNL     1       5.558  -1.209   0.745  1.00  0.00     0.046 C 
BRANCH  21  24
HETATM   24  N4  UNL     1       4.781  -2.725  -0.934  1.00  0.00    -0.084 NA
BRANCH  24  25
HETATM   25  O2  UNL     1       3.678  -3.367  -1.389  1.00  0.00    -0.295 OA
ATOM     26  H2  UNL     1       3.959  -3.936  -2.096  1.00  0.00     0.238 HD
ENDBRANCH  24  25
ENDBRANCH  21  24
ENDBRANCH  18  21
ENDBRANCH  16  17
BRANCH  16  27
HETATM   27  C10 UNL     1       2.368   2.412   0.227  1.00  0.00     0.208 C 
HETATM   28  O3  UNL     1       1.937   3.168   1.119  1.00  0.00    -0.646 OA
HETATM   29  O4  UNL     1       3.391   2.879  -0.613  1.00  0.00    -0.646 OA
ENDBRANCH  16  27
ENDBRANCH   1  16
BRANCH   1  30
HETATM   30  N5  UNL     1      -0.781   2.218   0.548  1.00  0.00    -0.266 N 
HETATM   31  C11 UNL     1      -0.702   3.047  -0.499  1.00  0.00     0.197 A 
HETATM   32  N6  UNL     1      -1.696   3.979  -0.430  1.00  0.00    -0.345 N 
HETATM   33  C12 UNL     1      -2.414   3.733   0.681  1.00  0.00     0.122 A 
ATOM     34  H6  UNL     1      -1.865   4.729  -1.101  1.00  0.00     0.167 HD
HETATM   35  C13 UNL     1      -3.532   4.347   1.260  1.00  0.00     0.131 A 
HETATM   36  C15 UNL     1      -1.826   2.619   1.289  1.00  0.00     0.150 A 
HETATM   37  N8  UNL     1      -4.040   3.867   2.400  1.00  0.00    -0.337 N 
HETATM   38  C14 UNL     1      -3.481   2.802   2.984  1.00  0.00     0.183 A 
ATOM     39  H8  UNL     1      -4.853   4.313   2.824  1.00  0.00     0.168 HD
HETATM   40  N9  UNL     1      -2.398   2.197   2.435  1.00  0.00    -0.336 N 
ATOM     41  H9  UNL     1      -1.999   1.387   2.910  1.00  0.00     0.168 HD
BRANCH  35  42
HETATM   42  N7  UNL     1      -4.053   5.377   0.672  1.00  0.00    -0.383 N 
ATOM     43  H72 UNL     1      -3.665   5.743  -0.198  1.00  0.00     0.157 HD
ATOM     44  H71 UNL     1      -4.867   5.824   1.094  1.00  0.00     0.157 HD
ENDBRANCH  35  42
ENDBRANCH   1  30
TORSDOF 9
