REMARK  7 active torsions:
REMARK  status: ('A' for Active; 'I' for Inactive)
REMARK    1  A    between atoms: C2_2  and  C4_4 
REMARK    2  A    between atoms: C4_4  and  C5_5 
REMARK    3  A    between atoms: C4_4  and  C18_30 
REMARK    4  A    between atoms: C5_5  and  C6_6 
REMARK    5  A    between atoms: C8_12  and  N3_13 
REMARK    6  A    between atoms: C10_18  and  N5_19 
REMARK    7  A    between atoms: N5_19  and  C11_21 
ROOT
HETATM    1  C6  UNL     1       1.752  -0.068   0.751  1.00  0.00     0.084 A 
HETATM    2  N1  UNL     1       1.803  -1.372   1.067  1.00  0.00    -0.330 N 
ATOM      3  H1  UNL     1       2.618  -1.851   1.451  1.00  0.00     0.168 HD
HETATM    4  C7  UNL     1       0.599  -1.961   0.797  1.00  0.00     0.153 A 
HETATM    5  N2  UNL     1       0.161  -3.213   0.937  1.00  0.00    -0.174 N 
ATOM      6  H2  UNL     1       0.778  -3.934   1.311  1.00  0.00     0.186 HD
HETATM    7  C8  UNL     1      -1.095  -3.517   0.583  1.00  0.00     0.681 A 
HETATM    8  N4  UNL     1      -1.876  -2.566   0.101  1.00  0.00    -0.175 N 
ATOM      9  H4  UNL     1      -2.828  -2.822  -0.161  1.00  0.00     0.186 HD
HETATM   10  C10 UNL     1      -1.496  -1.255  -0.072  1.00  0.00     0.148 A 
HETATM   11  C17 UNL     1      -0.186  -0.947   0.299  1.00  0.00     0.123 A 
HETATM   12  N6  UNL     1       0.496   0.195   0.267  1.00  0.00    -0.340 N 
ATOM     13  H6  UNL     1       0.149   1.098  -0.057  1.00  0.00     0.167 HD
ENDROOT
BRANCH   1  14
HETATM   14  C5  UNL     1       2.796   0.964   0.868  1.00  0.00     0.094 C 
BRANCH  14  15
HETATM   15  C4  UNL     1       3.608   1.143  -0.379  1.00  0.00     0.128 C 
BRANCH  15  16
HETATM   16  C2  UNL     1       4.646   2.229  -0.144  1.00  0.00    -0.080 C 
HETATM   17  C1  UNL     1       4.537   3.345  -0.838  1.00  0.00     0.014 C 
HETATM   18  C3  UNL     1       5.750   2.061   0.826  1.00  0.00     0.043 C 
ENDBRANCH  15  16
BRANCH  15  19
HETATM   19  C18 UNL     1       4.328  -0.084  -0.857  1.00  0.00     0.395 C 
HETATM   20  F1  UNL     1       4.995   0.327  -2.037  1.00  0.00    -0.170 F 
HETATM   21  F2  UNL     1       5.184  -0.613   0.055  1.00  0.00    -0.170 F 
HETATM   22  F3  UNL     1       3.448  -1.057  -1.334  1.00  0.00    -0.170 F 
ENDBRANCH  15  19
ENDBRANCH  14  15
ENDBRANCH   1  14
BRANCH  10  23
HETATM   23  N5  UNL     1      -2.325  -0.456  -0.535  1.00  0.00    -0.369 N 
ATOM     24  H5  UNL     1      -3.187  -0.974  -0.706  1.00  0.00     0.161 HD
BRANCH  23  25
HETATM   25  C11 UNL     1      -2.545   0.844  -0.908  1.00  0.00     0.083 C 
HETATM   26  C12 UNL     1      -2.845   1.818   0.216  1.00  0.00     0.025 C 
HETATM   27  C13 UNL     1      -4.224   1.636   0.781  1.00  0.00     0.002 C 
HETATM   28  C14 UNL     1      -5.232   1.837  -0.350  1.00  0.00     0.000 C 
HETATM   29  C15 UNL     1      -5.010   0.671  -1.299  1.00  0.00     0.002 C 
HETATM   30  C16 UNL     1      -3.674   0.881  -1.947  1.00  0.00     0.025 C 
ENDBRANCH  23  25
ENDBRANCH  10  23
BRANCH   7  31
HETATM   31  N3  UNL     1      -1.537  -4.757   0.719  1.00  0.00    -0.230 N 
HETATM   32  C9  UNL     1      -0.635  -5.758   1.254  1.00  0.00     0.165 C 
ATOM     33  H3  UNL     1      -2.491  -5.003   0.453  1.00  0.00     0.177 HD
ENDBRANCH   7  31
TORSDOF 7
