REMARK  8 active torsions:
REMARK  status: ('A' for Active; 'I' for Inactive)
REMARK    1  A    between atoms: O1_2  and  C2_3 
REMARK    2  A    between atoms: C2_3  and  N1_5 
REMARK    3  A    between atoms: C3_7  and  C4_8 
REMARK    4  A    between atoms: C3_7  and  N4_17 
REMARK    5  A    between atoms: C4_8  and  O2_9 
REMARK    6  A    between atoms: O2_9  and  N2_10 
REMARK    7  A    between atoms: N2_10  and  C5_12 
REMARK    8  A    between atoms: N4_17  and  C7_19 
ROOT
HETATM    1  N1  UNL     1       0.045  -0.559  -2.910  1.00  0.00    -0.315 N 
ATOM      2  H1  UNL     1       0.170  -1.443  -3.403  1.00  0.00     0.170 HD
HETATM    3  C3  UNL     1       0.280  -0.586  -1.665  1.00  0.00     0.106 C 
ENDROOT
BRANCH   3   4
HETATM    4  C4  UNL     1       0.709  -1.897  -1.060  1.00  0.00     0.277 C 
BRANCH   4   5
HETATM    5  O2  UNL     1       1.951  -1.789  -0.482  1.00  0.00    -0.272 OA
BRANCH   5   6
HETATM    6  N2  UNL     1       2.281  -2.980   0.037  1.00  0.00    -0.255 N 
ATOM      7  H2  UNL     1       2.813  -3.003   0.907  1.00  0.00     0.195 HD
BRANCH   6   8
HETATM    8  C5  UNL     1       1.919  -4.220  -0.576  1.00  0.00     0.091 C 
HETATM    9  C6  UNL     1       2.687  -4.623  -1.772  1.00  0.00     0.090 C 
HETATM   10  N3  UNL     1       0.972  -4.963  -0.122  1.00  0.00    -0.388 N 
ATOM     11  H32 UNL     1       0.442  -4.685   0.704  1.00  0.00     0.157 HD
ATOM     12  H31 UNL     1       0.714  -5.848  -0.559  1.00  0.00     0.157 HD
ENDBRANCH   6   8
ENDBRANCH   5   6
ENDBRANCH   4   5
ENDBRANCH   3   4
BRANCH   3  13
HETATM   13  N4  UNL     1       0.150   0.568  -0.842  1.00  0.00    -0.373 N 
ATOM     14  H4  UNL     1       0.359   1.476  -1.258  1.00  0.00     0.161 HD
BRANCH  13  15
HETATM   15  C7  UNL     1      -0.254   0.539   0.530  1.00  0.00     0.083 C 
HETATM   16  C8  UNL     1      -1.618  -0.036   0.755  1.00  0.00     0.029 C 
HETATM   17  C9  UNL     1      -2.542   0.836   1.534  1.00  0.00    -0.016 C 
HETATM   18  C10 UNL     1      -3.265   1.851   0.672  1.00  0.00     0.010 C 
HETATM   19  C11 UNL     1      -1.937   1.515   2.715  1.00  0.00     0.013 C 
HETATM   20  C12 UNL     1      -0.528   1.950   2.565  1.00  0.00    -0.045 C 
HETATM   21  C13 UNL     1       0.363   1.056   3.408  1.00  0.00     0.015 C 
HETATM   22  C14 UNL     1      -0.344   3.376   3.047  1.00  0.00     0.015 C 
HETATM   23  C15 UNL     1      -0.110   1.917   1.112  1.00  0.00     0.034 C 
ENDBRANCH  13  15
ENDBRANCH   3  13
BRANCH   1  24
HETATM   24  C2  UNL     1      -0.360   0.515  -3.694  1.00  0.00     0.215 C 
HETATM   25  S1  UNL     1      -1.660   1.396  -3.274  1.00  0.00    -0.033 SA
BRANCH  24  26
HETATM   26  O1  UNL     1       0.337   0.849  -4.842  1.00  0.00    -0.332 OA
HETATM   27  C1  UNL     1       1.721   1.088  -4.892  1.00  0.00     0.212 C 
ENDBRANCH  24  26
ENDBRANCH   1  24
TORSDOF 8
