REMARK  6 active torsions:
REMARK  status: ('A' for Active; 'I' for Inactive)
REMARK    1  A    between atoms: O1_3  and  C3_4 
REMARK    2  A    between atoms: C3_4  and  C4_5 
REMARK    3  A    between atoms: C3_4  and  N2_9 
REMARK    4  A    between atoms: C4_5  and  N1_6 
REMARK    5  A    between atoms: N2_9  and  C7_11 
REMARK    6  A    between atoms: N3_14  and  C11_16 
ROOT
HETATM    1  C1  UNL     1       3.556  -2.909  -2.746  1.00  0.00     0.045 C 
HETATM    2  C2  UNL     1       2.872  -1.974  -2.419  1.00  0.00     0.045 C 
HETATM    3  O1  UNL     1       2.108  -0.939  -2.057  1.00  0.00    -0.277 OA
ENDROOT
BRANCH   3   4
HETATM    4  C3  UNL     1       1.669  -0.688  -0.703  1.00  0.00     0.263 C 
BRANCH   4   5
HETATM    5  C4  UNL     1       2.238   0.622  -0.328  1.00  0.00     0.325 C 
BRANCH   5   6
HETATM    6  N1  UNL     1       3.712   0.490  -0.412  1.00  0.00     0.084 N 
HETATM    7  C5  UNL     1       4.320   1.798  -0.175  1.00  0.00     0.309 C 
HETATM    8  C6  UNL     1       4.144  -0.440   0.632  1.00  0.00     0.309 C 
ENDBRANCH   5   6
ENDBRANCH   4   5
BRANCH   4   9
HETATM    9  N2  UNL     1       0.284  -0.879  -0.711  1.00  0.00    -0.388 N 
ATOM     10  H2  UNL     1      -0.173  -1.102  -1.595  1.00  0.00     0.156 HD
BRANCH   9  11
HETATM   11  C7  UNL     1      -0.502  -0.777   0.442  1.00  0.00     0.106 C 
HETATM   12  C8  UNL     1      -0.515   0.617   1.037  1.00  0.00     0.054 C 
HETATM   13  C9  UNL     1      -1.987   0.888   1.350  1.00  0.00     0.239 C 
HETATM   14  N3  UNL     1      -2.700   0.172   0.289  1.00  0.00    -0.069 N 
HETATM   15  C10 UNL     1      -2.724   0.992  -0.898  1.00  0.00     0.272 C 
HETATM   16  C13 UNL     1      -1.953  -1.026   0.087  1.00  0.00     0.261 C 
BRANCH  14  17
HETATM   17  C11 UNL     1      -4.036  -0.150   0.751  1.00  0.00     0.232 C 
HETATM   18  C12 UNL     1      -5.113   0.386  -0.165  1.00  0.00     0.035 C 
ENDBRANCH  14  17
ENDBRANCH   9  11
ENDBRANCH   4   9
ENDBRANCH   3   4
TORSDOF 6
