REMARK  6 active torsions:
REMARK  status: ('A' for Active; 'I' for Inactive)
REMARK    1  A    between atoms: N1_2  and  C2_4 
REMARK    2  A    between atoms: N3_11  and  C6_13 
REMARK    3  A    between atoms: C6_13  and  C7_14 
REMARK    4  A    between atoms: C8_15  and  C9_16 
REMARK    5  A    between atoms: C9_16  and  C10_18 
REMARK    6  A    between atoms: C11_19  and  C12_20 
ROOT
HETATM    1  C2  UNL     1      -3.782  -0.074  -0.506  1.00  0.00     0.679 A 
HETATM    2  N2  UNL     1      -4.008   1.231  -0.729  1.00  0.00    -0.201 N 
ATOM      3  H2  UNL     1      -4.897   1.508  -1.144  1.00  0.00     0.183 HD
HETATM    4  C3  UNL     1      -3.117   2.184  -0.430  1.00  0.00     0.129 A 
HETATM    5  C4  UNL     1      -1.912   1.842   0.129  1.00  0.00     0.071 A 
HETATM    6 BR1  UNL     1      -0.621   3.216   0.563  1.00  0.00    -0.046 Br
HETATM    7  C5  UNL     1      -1.644   0.517   0.372  1.00  0.00     0.139 A 
HETATM    8  N3  UNL     1      -0.587   0.083   0.875  1.00  0.00    -0.351 N 
ATOM      9  H3  UNL     1      -0.599  -0.933   0.966  1.00  0.00     0.166 HD
HETATM   10  N4  UNL     1      -2.610  -0.399   0.036  1.00  0.00    -0.175 N 
ATOM     11  H4  UNL     1      -2.419  -1.385   0.212  1.00  0.00     0.186 HD
ENDROOT
BRANCH   8  12
HETATM   12  C6  UNL     1       0.608   0.634   1.345  1.00  0.00     0.089 C 
BRANCH  12  13
HETATM   13  C7  UNL     1       1.545  -0.408   1.915  1.00  0.00     0.015 C 
HETATM   14  C8  UNL     1       2.752  -0.636   1.445  1.00  0.00     0.003 C 
BRANCH  14  15
HETATM   15  C9  UNL     1       3.352   0.101   0.292  1.00  0.00     0.159 C 
HETATM   16 BR2  UNL     1       3.929   1.877   0.798  1.00  0.00    -0.073 Br
BRANCH  15  17
HETATM   17  C10 UNL     1       4.508  -0.667  -0.225  1.00  0.00    -0.084 C 
HETATM   18  C11 UNL     1       5.450  -1.297  -0.638  1.00  0.00    -0.074 C 
BRANCH  18  19
HETATM   19  C12 UNL     1       6.613  -2.043  -1.141  1.00  0.00     0.315 C 
HETATM   20  F1  UNL     1       7.692  -1.206  -1.360  1.00  0.00    -0.242 F 
ENDBRANCH  18  19
ENDBRANCH  15  17
ENDBRANCH  14  15
ENDBRANCH  12  13
ENDBRANCH   8  12
BRANCH   1  21
HETATM   21  N1  UNL     1      -4.682  -0.944  -0.817  1.00  0.00    -0.230 N 
HETATM   22  C1  UNL     1      -5.944  -0.620  -1.399  1.00  0.00     0.165 C 
ATOM     23  H1  UNL     1      -4.479  -1.927  -0.635  1.00  0.00     0.177 HD
ENDBRANCH   1  21
TORSDOF 6
