REMARK  4 active torsions:
REMARK  status: ('A' for Active; 'I' for Inactive)
REMARK       I    between atoms: C2_2  and  N1_4 
REMARK    1  A    between atoms: N1_4  and  N2_6 
REMARK       I    between atoms: N2_6  and  C3_8 
REMARK       I    between atoms: C3_8  and  N4_15 
REMARK    2  A    between atoms: N3_9  and  C4_11 
REMARK    3  A    between atoms: N4_15  and  C8_17 
REMARK    4  A    between atoms: C8_17  and  C9_18 
ROOT
HETATM    1  N2  UNL     1      -0.559   1.741  -0.390  1.00  0.00    -0.130 N 
ATOM      2  H2  UNL     1       0.032   2.310  -0.996  1.00  0.00     0.205 HD
HETATM    3  C3  UNL     1      -0.444   0.301  -0.438  1.00  0.00     0.689 C 
HETATM    4  N3  UNL     1      -1.493  -0.375  -0.335  1.00  0.00    -0.217 N 
ATOM      5  H3  UNL     1      -2.323   0.208  -0.226  1.00  0.00     0.178 HD
HETATM    6  N4  UNL     1       0.879  -0.175  -0.596  1.00  0.00    -0.224 N 
ATOM      7  H4  UNL     1       1.090  -0.953  -1.221  1.00  0.00     0.177 HD
ENDROOT
BRANCH   1   8
HETATM    8  N1  UNL     1      -1.460   2.365   0.466  1.00  0.00    -0.256 N 
HETATM    9  C2  UNL     1      -1.820   3.718   0.304  1.00  0.00     0.232 C 
HETATM   10  C1  UNL     1      -2.783   4.385   1.221  1.00  0.00     0.119 C 
HETATM   11  O1  UNL     1      -1.321   4.413  -0.643  1.00  0.00    -0.272 OA
ATOM     12  H1  UNL     1      -1.871   1.830   1.231  1.00  0.00     0.190 HD
ENDBRANCH   1   8
BRANCH   4  13
HETATM   13  C4  UNL     1      -1.797  -1.740  -0.334  1.00  0.00     0.036 C 
HETATM   14  C5  UNL     1      -2.617  -2.048   0.932  1.00  0.00     0.038 C 
HETATM   15  C6  UNL     1      -2.707  -2.166  -1.479  1.00  0.00     0.038 C 
HETATM   16  C7  UNL     1      -0.651  -2.706  -0.321  1.00  0.00     0.038 C 
ENDBRANCH   4  13
BRANCH   6  17
HETATM   17  C8  UNL     1       1.919   0.480   0.159  1.00  0.00     0.155 C 
BRANCH  17  18
HETATM   18  C9  UNL     1       3.287  -0.104  -0.049  1.00  0.00     0.040 A 
HETATM   19  C10 UNL     1       4.425   0.548   0.711  1.00  0.00     0.025 C 
HETATM   20  C11 UNL     1       3.340  -1.608  -0.174  1.00  0.00     0.097 A 
HETATM   21  C12 UNL     1       3.670  -0.682  -1.342  1.00  0.00     0.138 A 
HETATM   22  O2  UNL     1       4.007  -0.735  -2.504  1.00  0.00    -0.297 OA
ENDBRANCH  17  18
ENDBRANCH   6  17
TORSDOF 4
