REMARK  5 active torsions:
REMARK  status: ('A' for Active; 'I' for Inactive)
REMARK    1  A    between atoms: C1_4  and  C2_6 
REMARK    2  A    between atoms: C3_9  and  C4_10 
REMARK    3  A    between atoms: C4_10  and  C5_11 
REMARK    4  A    between atoms: C10_16  and  C11_17 
REMARK    5  A    between atoms: C11_17  and  C12_18 
ROOT
HETATM    1  C4  UNL     1       0.179  -0.685  -0.714  1.00  0.00     0.006 C 
HETATM    2  C8  UNL     1      -0.546   0.481  -1.380  1.00  0.00     0.016 C 
HETATM    3  C9  UNL     1      -1.618   1.103  -0.561  1.00  0.00     0.006 C 
HETATM    4  C10 UNL     1      -2.427   0.085   0.155  1.00  0.00    -0.005 C 
HETATM    5  C13 UNL     1      -1.553  -0.572   1.152  1.00  0.00     0.006 C 
HETATM    6  C14 UNL     1      -0.184  -0.934   0.686  1.00  0.00     0.016 C 
ENDROOT
BRANCH   1   7
HETATM    7  C3  UNL     1       1.655  -0.225  -0.759  1.00  0.00     0.025 A 
HETATM    8  N3  UNL     1       2.088   0.631   0.132  1.00  0.00    -0.350 N 
HETATM    9  C2  UNL     1       3.334   1.024   0.137  1.00  0.00     0.115 A 
ATOM     10  H3  UNL     1       1.443   0.996   0.833  1.00  0.00     0.166 HD
HETATM   11  S1  UNL     1       3.986   0.162  -1.188  1.00  0.00    -0.079 SA
HETATM   12  C15 UNL     1       2.579  -0.670  -1.674  1.00  0.00     0.077 A 
BRANCH   9  13
HETATM   13  C1  UNL     1       4.069   1.953   1.024  1.00  0.00     0.144 C 
HETATM   14  N1  UNL     1       3.499   2.534   1.989  1.00  0.00    -0.385 N 
ATOM     15  H12 UNL     1       4.006   3.174   2.600  1.00  0.00     0.157 HD
ATOM     16  H11 UNL     1       2.509   2.387   2.187  1.00  0.00     0.157 HD
HETATM   17  N2  UNL     1       5.459   2.159   0.746  1.00  0.00    -0.080 NA
ENDBRANCH   9  13
ENDBRANCH   1   7
BRANCH   1  18
HETATM   18  C5  UNL     1       0.099  -1.811  -1.680  1.00  0.00     0.000 A 
HETATM   19  C6  UNL     1      -1.046  -2.734  -1.803  1.00  0.00     0.006 A 
HETATM   20  C7  UNL     1       0.249  -3.270  -1.303  1.00  0.00     0.006 A 
ENDBRANCH   1  18
BRANCH   4  21
HETATM   21  C11 UNL     1      -3.643   0.660   0.848  1.00  0.00     0.117 C 
BRANCH  21  22
HETATM   22  C12 UNL     1      -3.375   1.679   1.857  1.00  0.00     0.172 C 
HETATM   23  O1  UNL     1      -3.089   2.854   1.511  1.00  0.00    -0.648 OA
HETATM   24  O2  UNL     1      -3.431   1.382   3.206  1.00  0.00    -0.648 OA
ENDBRANCH  21  22
ENDBRANCH   4  21
TORSDOF 5
