REMARK  9 active torsions:
REMARK  status: ('A' for Active; 'I' for Inactive)
REMARK    1  A    between atoms: C1_2  and  C2_4 
REMARK    2  A    between atoms: C2_4  and  N2_5 
REMARK    3  A    between atoms: C2_4  and  N3_9 
REMARK    4  A    between atoms: N3_9  and  C3_11 
REMARK    5  A    between atoms: C3_11  and  C4_12 
REMARK    6  A    between atoms: C3_11  and  C12_22 
REMARK    7  A    between atoms: C4_12  and  O2_13 
REMARK    8  A    between atoms: O2_13  and  C5_14 
REMARK    9  A    between atoms: C5_14  and  C6_16 
ROOT
HETATM    1  C3  UNL     1      -1.706  -0.734   1.179  1.00  0.00     0.205 C 
ENDROOT
BRANCH   1   2
HETATM    2  N3  UNL     1      -1.742   0.615   0.768  1.00  0.00    -0.373 N 
ATOM      3  H3  UNL     1      -1.259   1.326   1.318  1.00  0.00     0.156 HD
BRANCH   2   4
HETATM    4  C2  UNL     1      -2.440   0.986  -0.396  1.00  0.00     0.368 C 
BRANCH   4   5
HETATM    5  C1  UNL     1      -2.652   2.477  -0.322  1.00  0.00     0.281 C 
HETATM    6  N1  UNL     1      -3.335   3.080  -1.408  1.00  0.00    -0.059 NA
HETATM    7  O1  UNL     1      -2.268   3.194   0.623  1.00  0.00    -0.273 OA
ENDBRANCH   4   5
BRANCH   4   8
HETATM    8  N2  UNL     1      -1.626   0.802  -1.602  1.00  0.00    -0.050 N 
ATOM      9  H23 UNL     1      -2.028   1.211  -2.446  1.00  0.00     0.277 HD
ATOM     10  H22 UNL     1      -0.765   1.349  -1.614  1.00  0.00     0.277 HD
ATOM     11  H21 UNL     1      -1.483  -0.207  -1.652  1.00  0.00     0.277 HD
ENDBRANCH   4   8
ENDBRANCH   2   4
ENDBRANCH   1   2
BRANCH   1  12
HETATM   12  C4  UNL     1      -1.034  -1.583   0.115  1.00  0.00     0.214 C 
BRANCH  12  13
HETATM   13  O2  UNL     1       0.256  -1.213  -0.206  1.00  0.00    -0.315 OA
BRANCH  13  14
HETATM   14  C5  UNL     1       1.379  -1.164   0.570  1.00  0.00     0.293 C 
HETATM   15  O3  UNL     1       1.262  -1.502   1.770  1.00  0.00    -0.259 OA
BRANCH  14  16
HETATM   16  C6  UNL     1       2.684  -0.747   0.093  1.00  0.00     0.039 A 
HETATM   17  C7  UNL     1       3.739  -0.737   0.969  1.00  0.00     0.017 A 
HETATM   18  C8  UNL     1       5.010  -0.355   0.594  1.00  0.00     0.001 A 
HETATM   19  C9  UNL     1       5.252   0.033  -0.697  1.00  0.00     0.000 A 
HETATM   20  C10 UNL     1       4.198   0.028  -1.591  1.00  0.00     0.001 A 
HETATM   21  C11 UNL     1       2.936  -0.355  -1.206  1.00  0.00     0.017 A 
ENDBRANCH  14  16
ENDBRANCH  13  14
ENDBRANCH  12  13
ENDBRANCH   1  12
BRANCH   1  22
HETATM   22  C12 UNL     1      -2.987  -1.336   1.557  1.00  0.00     0.198 C 
HETATM   23  O4  UNL     1      -4.052  -0.685   1.524  1.00  0.00    -0.646 OA
HETATM   24  O5  UNL     1      -3.042  -2.653   1.963  1.00  0.00    -0.646 OA
ENDBRANCH   1  22
TORSDOF 9
