REMARK  7 active torsions:
REMARK  status: ('A' for Active; 'I' for Inactive)
REMARK    1  A    between atoms: N1_3  and  N2_5 
REMARK    2  A    between atoms: N2_5  and  C3_7 
REMARK    3  A    between atoms: C3_7  and  C4_8 
REMARK    4  A    between atoms: C3_7  and  C6_12 
REMARK    5  A    between atoms: C4_8  and  C5_9 
REMARK       I    between atoms: C6_12  and  N4_14 
REMARK    6  A    between atoms: N4_14  and  N5_16 
REMARK    7  A    between atoms: C7_18  and  C8_19 
ROOT
HETATM    1  C6  UNL     1      -1.128   0.196  -0.098  1.00  0.00     0.260 C 
HETATM    2  O2  UNL     1      -0.754   0.129  -1.311  1.00  0.00    -0.269 OA
HETATM    3  N4  UNL     1      -0.253  -0.227   0.919  1.00  0.00    -0.269 N 
ATOM      4  H4  UNL     1      -0.526  -0.192   1.901  1.00  0.00     0.190 HD
ENDROOT
BRANCH   1   5
HETATM    5  C3  UNL     1      -2.492   0.720   0.235  1.00  0.00     0.201 C 
BRANCH   5   6
HETATM    6  N2  UNL     1      -3.351   0.131  -0.823  1.00  0.00    -0.323 N 
ATOM      7  H2  UNL     1      -3.803   0.735  -1.509  1.00  0.00     0.181 HD
BRANCH   6   8
HETATM    8  N1  UNL     1      -3.536  -1.226  -0.876  1.00  0.00    -0.320 N 
HETATM    9  C2  UNL     1      -3.296  -2.076   0.038  1.00  0.00     0.075 C 
HETATM   10  C1  UNL     1      -3.550  -3.525  -0.171  1.00  0.00     0.056 C 
ATOM     11  H1  UNL     1      -3.909  -1.597  -1.750  1.00  0.00     0.185 HD
ENDBRANCH   6   8
ENDBRANCH   5   6
BRANCH   5  12
HETATM   12  C4  UNL     1      -2.471   2.210   0.048  1.00  0.00     0.135 C 
BRANCH  12  13
HETATM   13  C5  UNL     1      -1.700   2.997   0.980  1.00  0.00     0.233 C 
HETATM   14  N3  UNL     1      -1.635   4.400   0.805  1.00  0.00    -0.062 NA
HETATM   15  O1  UNL     1      -1.085   2.508   1.938  1.00  0.00    -0.277 OA
ENDBRANCH  12  13
ENDBRANCH   5  12
ENDBRANCH   1   5
BRANCH   3  16
HETATM   16  N5  UNL     1       1.025  -0.705   0.527  1.00  0.00    -0.308 N 
HETATM   17  C7  UNL     1       1.796   0.148  -0.055  1.00  0.00     0.118 C 
ATOM     18  H5  UNL     1       1.316  -1.668   0.696  1.00  0.00     0.186 HD
BRANCH  17  19
HETATM   19  C8  UNL     1       3.134  -0.325  -0.474  1.00  0.00    -0.019 A 
HETATM   20  C9  UNL     1       3.540  -1.611  -0.255  1.00  0.00     0.013 A 
HETATM   21  C10 UNL     1       4.796  -2.083  -0.640  1.00  0.00     0.001 A 
HETATM   22  C11 UNL     1       5.646  -1.200  -1.265  1.00  0.00     0.000 A 
HETATM   23  C12 UNL     1       5.245   0.100  -1.490  1.00  0.00     0.001 A 
HETATM   24  C13 UNL     1       3.994   0.561  -1.104  1.00  0.00     0.013 A 
ENDBRANCH  17  19
ENDBRANCH   3  16
TORSDOF 7
