REMARK  9 active torsions:
REMARK  status: ('A' for Active; 'I' for Inactive)
REMARK    1  A    between atoms: C1_4  and  C2_5 
REMARK    2  A    between atoms: C1_4  and  N3_13 
REMARK    3  A    between atoms: C2_5  and  C3_6 
REMARK    4  A    between atoms: C8_15  and  C9_16 
REMARK    5  A    between atoms: C8_15  and  C10_21 
REMARK    6  A    between atoms: C10_21  and  O2_23 
REMARK    7  A    between atoms: O2_23  and  C11_24 
REMARK    8  A    between atoms: C11_24  and  C12_25 
REMARK    9  A    between atoms: C12_25  and  N6_26 
ROOT
HETATM    1  N3  UNL     1       0.392   0.245  -0.314  1.00  0.00    -0.338 N 
ATOM      2  H3  UNL     1       0.827   1.168  -0.302  1.00  0.00     0.167 HD
HETATM    3  C8  UNL     1       1.193  -0.717  -0.104  1.00  0.00     0.150 C 
ENDROOT
BRANCH   3   4
HETATM    4  C9  UNL     1       0.821  -2.113  -0.072  1.00  0.00     0.143 C 
HETATM    5  N4  UNL     1       1.593  -3.090   0.133  1.00  0.00    -0.386 N 
ATOM      6  H42 UNL     1       2.563  -2.813   0.286  1.00  0.00     0.157 HD
ATOM      7  H41 UNL     1       1.330  -4.075   0.156  1.00  0.00     0.157 HD
HETATM    8  N5  UNL     1      -0.560  -2.508  -0.290  1.00  0.00    -0.081 NA
ENDBRANCH   3   4
BRANCH   3   9
HETATM    9  C10 UNL     1       2.597  -0.256   0.113  1.00  0.00     0.313 C 
HETATM   10  O1  UNL     1       3.510  -1.061   0.331  1.00  0.00    -0.257 OA
BRANCH   9  11
HETATM   11  O2  UNL     1       2.936   1.085   0.079  1.00  0.00    -0.315 OA
BRANCH  11  12
HETATM   12  C11 UNL     1       4.232   1.514   0.284  1.00  0.00     0.206 C 
BRANCH  12  13
HETATM   13  C12 UNL     1       4.846   1.226   1.615  1.00  0.00     0.256 C 
BRANCH  13  14
HETATM   14  N6  UNL     1       6.209   1.789   1.557  1.00  0.00    -0.077 N 
ATOM     15  H63 UNL     1       6.760   1.446   0.770  1.00  0.00     0.274 HD
ATOM     16  H62 UNL     1       6.233   2.776   1.301  1.00  0.00     0.274 HD
ATOM     17  H61 UNL     1       6.628   1.592   2.466  1.00  0.00     0.274 HD
ENDBRANCH  13  14
ENDBRANCH  12  13
ENDBRANCH  11  12
ENDBRANCH   9  11
ENDBRANCH   3   9
BRANCH   1  18
HETATM   18  C1  UNL     1      -0.959   0.256  -0.554  1.00  0.00     0.081 C 
HETATM   19  N1  UNL     1      -1.363   0.093  -1.789  1.00  0.00    -0.389 N 
ATOM     20  H12 UNL     1      -2.367   0.101  -1.967  1.00  0.00     0.157 HD
ATOM     21  H11 UNL     1      -0.683  -0.059  -2.534  1.00  0.00     0.157 HD
BRANCH  18  22
HETATM   22  C2  UNL     1      -1.962   0.480   0.545  1.00  0.00     0.133 C 
BRANCH  22  23
HETATM   23  C3  UNL     1      -3.317   0.410  -0.066  1.00  0.00     0.015 A 
HETATM   24  C4  UNL     1      -4.000  -0.804  -0.154  1.00  0.00     0.025 A 
HETATM   25  C5  UNL     1      -5.247  -0.944  -0.696  1.00  0.00     0.003 A 
HETATM   26  C6  UNL     1      -5.855   0.196  -1.184  1.00  0.00     0.017 A 
HETATM   27  C7  UNL     1      -5.163   1.381  -1.087  1.00  0.00     0.088 A 
HETATM   28  N2  UNL     1      -3.942   1.495  -0.551  1.00  0.00    -0.369 N 
ATOM     29  H2  UNL     1      -3.486   2.406  -0.511  1.00  0.00     0.165 HD
ENDBRANCH  22  23
ENDBRANCH  18  22
ENDBRANCH   1  18
TORSDOF 9
