REMARK  2 active torsions:
REMARK  status: ('A' for Active; 'I' for Inactive)
REMARK    1  A    between atoms: C4_7  and  N2_8 
REMARK    2  A    between atoms: N2_8  and  C5_10 
ROOT
HETATM    1  C1  UNL     1      -3.661   0.349  -0.525  1.00  0.00     0.011 C 
HETATM    2  C2  UNL     1      -2.323  -0.277  -0.193  1.00  0.00     0.011 C 
HETATM    3  C3  UNL     1      -1.863   0.010   1.191  1.00  0.00     0.239 C 
HETATM    4  N1  UNL     1      -0.581   0.614   1.156  1.00  0.00    -0.054 N 
ATOM      5  H11 UNL     1       0.067   0.172   1.807  1.00  0.00     0.279 HD
ATOM      6  H12 UNL     1      -0.588   1.549   1.564  1.00  0.00     0.279 HD
HETATM    7  C4  UNL     1      -0.077   0.617  -0.182  1.00  0.00     0.280 C 
HETATM    8  C8  UNL     1      -1.260   0.329  -1.082  1.00  0.00     0.060 C 
ENDROOT
BRANCH   7   9
HETATM    9  N2  UNL     1       0.938  -0.345  -0.445  1.00  0.00    -0.392 N 
ATOM     10  H2  UNL     1       0.814  -1.089  -1.132  1.00  0.00     0.155 HD
BRANCH   9  11
HETATM   11  C5  UNL     1       2.137  -0.205   0.309  1.00  0.00     0.070 C 
HETATM   12  C6  UNL     1       2.957  -1.481   0.061  1.00  0.00     0.031 C 
HETATM   13  C7  UNL     1       3.006   0.957  -0.109  1.00  0.00     0.031 C 
ENDBRANCH   9  11
ENDBRANCH   7   9
TORSDOF 2
