REMARK  9 active torsions:
REMARK  status: ('A' for Active; 'I' for Inactive)
REMARK    1  A    between atoms: C2_2  and  O1_3 
REMARK    2  A    between atoms: C2_2  and  C9_17 
REMARK    3  A    between atoms: O1_3  and  N1_4 
REMARK    4  A    between atoms: N2_6  and  O2_7 
REMARK    5  A    between atoms: N2_6  and  N3_9 
REMARK    6  A    between atoms: N3_9  and  C3_11 
REMARK       I    between atoms: C9_17  and  N4_19 
REMARK    7  A    between atoms: N4_19  and  C10_21 
REMARK    8  A    between atoms: C10_21  and  C11_22 
REMARK    9  A    between atoms: C10_21  and  C13_29 
REMARK       I    between atoms: C11_22  and  N5_24 
ROOT
HETATM    1  C1  UNL     1       1.184  -2.076   0.287  1.00  0.00     0.052 C 
HETATM    2  C2  UNL     1       0.457  -0.854   0.733  1.00  0.00     0.241 C 
ENDROOT
BRANCH   2   3
HETATM    3  O1  UNL     1       0.827   0.228  -0.089  1.00  0.00    -0.247 OA
BRANCH   3   4
HETATM    4  N1  UNL     1       1.492   1.327   0.325  1.00  0.00    -0.165 N 
HETATM    5  N2  UNL     1       2.678   1.635   0.076  1.00  0.00    -0.079 N 
ATOM      6  H1  UNL     1       0.968   1.980   0.907  1.00  0.00     0.220 HD
BRANCH   5   7
HETATM    7  O2  UNL     1       3.136   2.832   0.624  1.00  0.00    -0.252 OA
ATOM      8  H2  UNL     1       4.037   3.066   0.435  1.00  0.00     0.248 HD
ENDBRANCH   5   7
BRANCH   5   9
HETATM    9  N3  UNL     1       3.578   0.915  -0.681  1.00  0.00    -0.289 N 
ATOM     10  H3  UNL     1       3.515   0.999  -1.696  1.00  0.00     0.184 HD
BRANCH   9  11
HETATM   11  C3  UNL     1       4.600   0.054  -0.146  1.00  0.00     0.103 C 
HETATM   12  C4  UNL     1       5.412  -0.580  -1.253  1.00  0.00     0.027 C 
HETATM   13  C5  UNL     1       6.660   0.251  -1.479  1.00  0.00     0.002 C 
HETATM   14  C6  UNL     1       7.546   0.109  -0.277  1.00  0.00     0.000 C 
HETATM   15  C7  UNL     1       6.751  -0.084   0.981  1.00  0.00     0.002 C 
HETATM   16  C8  UNL     1       5.454   0.730   0.890  1.00  0.00     0.027 C 
ENDBRANCH   9  11
ENDBRANCH   5   9
ENDBRANCH   3   4
ENDBRANCH   2   3
BRANCH   2  17
HETATM   17  C9  UNL     1      -0.993  -1.030   0.844  1.00  0.00     0.249 C 
HETATM   18  O3  UNL     1      -1.408  -1.980   1.565  1.00  0.00    -0.271 OA
HETATM   19  N4  UNL     1      -1.952  -0.213   0.202  1.00  0.00    -0.345 N 
ATOM     20  H4  UNL     1      -1.626   0.557  -0.382  1.00  0.00     0.163 HD
BRANCH  19  21
HETATM   21  C10 UNL     1      -3.375  -0.425   0.340  1.00  0.00     0.184 C 
BRANCH  21  22
HETATM   22  C11 UNL     1      -4.048   0.758   0.935  1.00  0.00     0.247 C 
HETATM   23  O4  UNL     1      -3.375   1.777   1.240  1.00  0.00    -0.271 OA
HETATM   24  N5  UNL     1      -5.426   0.750   1.161  1.00  0.00    -0.302 N 
HETATM   25  C12 UNL     1      -6.172   1.767   1.343  1.00  0.00     0.203 C 
ATOM     26  H5  UNL     1      -5.882  -0.162   1.183  1.00  0.00     0.171 HD
HETATM   27  N6  UNL     1      -7.561   1.547   1.558  1.00  0.00    -0.066 NA
HETATM   28  N7  UNL     1      -5.705   3.107   1.345  1.00  0.00    -0.066 NA
ENDBRANCH  21  22
BRANCH  21  29
HETATM   29  C13 UNL     1      -4.010  -0.801  -0.985  1.00  0.00    -0.022 C 
HETATM   30  C14 UNL     1      -3.819   0.277  -2.021  1.00  0.00     0.017 C 
HETATM   31  C15 UNL     1      -5.452  -1.206  -0.801  1.00  0.00     0.017 C 
HETATM   32  C16 UNL     1      -3.277  -2.033  -1.537  1.00  0.00     0.017 C 
ENDBRANCH  21  29
ENDBRANCH  19  21
ENDBRANCH   2  17
TORSDOF 9
