REMARK  19 active torsions:
REMARK  status: ('A' for Active; 'I' for Inactive)
REMARK    1  A    between atoms: C3_4  and  N2_5 
REMARK    2  A    between atoms: C7_13  and  C8_14 
REMARK    3  A    between atoms: C8_14  and  O1_15 
REMARK    4  A    between atoms: C8_14  and  O2_17 
REMARK    5  A    between atoms: C9_23  and  N6_24 
REMARK    6  A    between atoms: N6_24  and  C10_26 
REMARK    7  A    between atoms: C10_26  and  C11_27 
REMARK    8  A    between atoms: C11_27  and  N7_28 
REMARK    9  A    between atoms: N7_28  and  S1_30 
REMARK   10  A    between atoms: S1_30  and  N8_33 
REMARK   11  A    between atoms: N10_37  and  C13_38 
REMARK   12  A    between atoms: C13_38  and  O5_39 
REMARK   13  A    between atoms: O5_39  and  C14_40 
REMARK   14  A    between atoms: C14_40  and  C15_41 
REMARK   15  A    between atoms: C14_40  and  C16_44 
REMARK   16  A    between atoms: C15_41  and  O6_42 
REMARK   17  A    between atoms: C16_44  and  O7_45 
REMARK   18  A    between atoms: N11_47  and  N12_48 
REMARK   19  A    between atoms: C18_55  and  N14_56 
ROOT
HETATM    1  N1  UNL     1       7.665  -2.567   1.804  1.00  0.00    -0.191 NA
HETATM    2  C1  UNL     1       6.675  -2.053   1.512  1.00  0.00     0.107 C 
HETATM    3  C2  UNL     1       5.438  -1.400   1.168  1.00  0.00     0.133 A 
HETATM    4  C3  UNL     1       5.151  -1.114  -0.156  1.00  0.00     0.147 A 
HETATM    5  N5  UNL     1       3.962  -0.495  -0.408  1.00  0.00    -0.175 N 
ATOM      6  H5  UNL     1       3.717  -0.269  -1.372  1.00  0.00     0.186 HD
HETATM    7  C9  UNL     1       3.103  -0.174   0.577  1.00  0.00     0.681 A 
HETATM    8  N13 UNL     1       3.421  -0.468   1.834  1.00  0.00    -0.176 N 
ATOM      9  H13 UNL     1       2.766  -0.222   2.576  1.00  0.00     0.186 HD
HETATM   10  C18 UNL     1       4.570  -1.076   2.163  1.00  0.00     0.139 A 
ENDROOT
BRANCH   4  11
HETATM   11  N2  UNL     1       6.051  -1.450  -1.191  1.00  0.00    -0.327 N 
HETATM   12  C4  UNL     1       7.164  -0.821  -1.397  1.00  0.00     0.111 A 
HETATM   13  C5  UNL     1       7.970  -1.236  -2.442  1.00  0.00     0.091 A 
HETATM   14  N4  UNL     1       7.562   0.213  -0.638  1.00  0.00    -0.328 N 
HETATM   15  C6  UNL     1       9.151  -0.570  -2.662  1.00  0.00     0.108 A 
HETATM   16 CL1  UNL     1      10.219  -1.056  -3.981  1.00  0.00    -0.064 Cl
HETATM   17  N3  UNL     1       9.514   0.458  -1.882  1.00  0.00    -0.332 N 
HETATM   18  C7  UNL     1       8.719   0.856  -0.864  1.00  0.00     0.140 A 
ATOM     19  H3  UNL     1      10.394   0.942  -2.058  1.00  0.00     0.168 HD
ATOM     20  H4  UNL     1       6.968   0.519   0.133  1.00  0.00     0.169 HD
ATOM     21  H2  UNL     1       5.812  -2.227  -1.807  1.00  0.00     0.169 HD
BRANCH  18  22
HETATM   22  C8  UNL     1       9.173   2.002  -0.033  1.00  0.00     0.323 C 
BRANCH  22  23
HETATM   23  O1  UNL     1       8.141   2.900   0.197  1.00  0.00    -0.365 OA
ATOM     24  H1  UNL     1       8.431   3.632   0.728  1.00  0.00     0.213 HD
ENDBRANCH  22  23
BRANCH  22  25
HETATM   25  O2  UNL     1      10.239   2.652  -0.643  1.00  0.00    -0.365 OA
ATOM     26  H2  UNL     1      10.529   3.384  -0.112  1.00  0.00     0.213 HD
ENDBRANCH  22  25
ENDBRANCH  18  22
ENDBRANCH   4  11
BRANCH  10  27
HETATM   27  N14 UNL     1       4.830  -1.340   3.402  1.00  0.00    -0.384 N 
ATOM     28 2H14 UNL     1       5.704  -1.802   3.652  1.00  0.00     0.157 HD
ATOM     29 1H14 UNL     1       4.179  -1.097   4.148  1.00  0.00     0.157 HD
ENDBRANCH  10  27
BRANCH   7  30
HETATM   30  N6  UNL     1       2.001   0.410   0.250  1.00  0.00    -0.224 N 
ATOM     31  H6  UNL     1       1.835   0.599  -0.738  1.00  0.00     0.177 HD
BRANCH  30  32
HETATM   32  C10 UNL     1       0.996   0.809   1.187  1.00  0.00     0.158 C 
BRANCH  32  33
HETATM   33  C11 UNL     1       0.019  -0.342   1.327  1.00  0.00     0.154 C 
BRANCH  33  34
HETATM   34  N7  UNL     1      -0.996   0.062   2.273  1.00  0.00    -0.299 N 
ATOM     35  H7  UNL     1      -1.015   0.969   2.740  1.00  0.00     0.173 HD
BRANCH  34  36
HETATM   36  S1  UNL     1      -2.173  -1.177   2.516  1.00  0.00     0.343 S 
HETATM   37  O3  UNL     1      -2.792  -0.963   3.871  1.00  0.00    -0.181 OA
HETATM   38  O4  UNL     1      -1.577  -2.541   2.390  1.00  0.00    -0.181 OA
BRANCH  36  39
HETATM   39  N8  UNL     1      -3.430  -0.940   1.351  1.00  0.00    -0.106 N 
HETATM   40  N9  UNL     1      -3.969   0.330   1.132  1.00  0.00    -0.273 N 
HETATM   41  C12 UNL     1      -4.906   0.568   0.278  1.00  0.00     0.223 A 
ATOM     42  H9  UNL     1      -3.602   1.111   1.676  1.00  0.00     0.189 HD
HETATM   43  N10 UNL     1      -5.484  -0.455  -0.531  1.00  0.00    -0.238 N 
HETATM   44  N11 UNL     1      -5.008  -1.748  -0.380  1.00  0.00    -0.141 N 
HETATM   45  C17 UNL     1      -3.963  -2.007   0.575  1.00  0.00     0.393 A 
HETATM   46  O8  UNL     1      -3.517  -3.173   0.727  1.00  0.00    -0.240 OA
BRANCH  43  47
HETATM   47  C13 UNL     1      -6.530  -0.073  -1.456  1.00  0.00     0.320 C 
BRANCH  47  48
HETATM   48  O5  UNL     1      -7.563   0.466  -0.711  1.00  0.00    -0.361 OA
BRANCH  48  49
HETATM   49  C14 UNL     1      -8.643   0.881  -1.442  1.00  0.00     0.170 C 
BRANCH  49  50
HETATM   50  C15 UNL     1      -8.770   2.386  -1.265  1.00  0.00     0.198 C 
BRANCH  50  51
HETATM   51  O6  UNL     1      -9.854   2.889  -1.982  1.00  0.00    -0.398 OA
ATOM     52  H6  UNL     1      -9.933   3.829  -1.871  1.00  0.00     0.209 HD
ENDBRANCH  50  51
ENDBRANCH  49  50
BRANCH  49  53
HETATM   53  C16 UNL     1      -9.948   0.270  -0.990  1.00  0.00     0.198 C 
BRANCH  53  54
HETATM   54  O7  UNL     1     -10.233   0.578   0.316  1.00  0.00    -0.398 OA
ATOM     55  H7  UNL     1     -11.054   0.194   0.600  1.00  0.00     0.209 HD
ENDBRANCH  53  54
ENDBRANCH  49  53
ENDBRANCH  48  49
ENDBRANCH  47  48
ENDBRANCH  43  47
BRANCH  44  56
HETATM   56  N12 UNL     1      -5.562  -2.759  -1.162  1.00  0.00    -0.319 N 
ATOM     57 2H12 UNL     1      -6.303  -2.575  -1.839  1.00  0.00     0.179 HD
ATOM     58 1H12 UNL     1      -5.212  -3.711  -1.051  1.00  0.00     0.179 HD
ENDBRANCH  44  56
ENDBRANCH  36  39
ENDBRANCH  34  36
ENDBRANCH  33  34
ENDBRANCH  32  33
ENDBRANCH  30  32
ENDBRANCH   7  30
TORSDOF 19
