REMARK  5 active torsions:
REMARK  status: ('A' for Active; 'I' for Inactive)
REMARK    1  A    between atoms: C4_4  and  C5_5 
REMARK    2  A    between atoms: C8_11  and  C9_12 
REMARK    3  A    between atoms: C10_13  and  C11_14 
REMARK    4  A    between atoms: C20_30  and  C21_31 
REMARK    5  A    between atoms: C22_32  and  N5_33 
ROOT
HETATM    1  C5  UNL     1      -1.543  -0.279  -0.121  1.00  0.00     0.121 C 
HETATM    2  N1  UNL     1      -0.895  -0.974  -0.962  1.00  0.00    -0.339 N 
ATOM      3  H1  UNL     1      -1.497  -1.449  -1.635  1.00  0.00     0.167 HD
HETATM    4  C6  UNL     1       0.521  -1.241  -1.176  1.00  0.00     0.069 A 
HETATM    5  C7  UNL     1       0.826  -2.266  -2.043  1.00  0.00     0.083 A 
HETATM    6  S1  UNL     1       2.529  -2.280  -2.039  1.00  0.00    -0.088 SA
HETATM    7  C8  UNL     1       2.814  -1.002  -0.952  1.00  0.00     0.087 A 
HETATM    8  C17 UNL     1       1.548  -0.595  -0.617  1.00  0.00     0.089 A 
HETATM    9  N2  UNL     1       1.447   0.514   0.321  1.00  0.00    -0.305 N 
ATOM     10  H2  UNL     1       2.315   1.023   0.488  1.00  0.00     0.171 HD
HETATM   11  C18 UNL     1       0.322   0.990   1.035  1.00  0.00     0.326 C 
HETATM   12  O1  UNL     1       0.504   1.937   1.837  1.00  0.00    -0.247 OA
HETATM   13  N3  UNL     1      -1.003   0.504   0.937  1.00  0.00    -0.294 N 
ATOM     14  H3  UNL     1      -1.635   0.739   1.702  1.00  0.00     0.172 HD
ENDROOT
BRANCH   1  15
HETATM   15  C4  UNL     1      -2.996  -0.271  -0.247  1.00  0.00     0.024 A 
HETATM   16  C3  UNL     1      -3.856  -0.176   0.815  1.00  0.00     0.026 A 
HETATM   17  C2  UNL     1      -5.222  -0.175   0.611  1.00  0.00    -0.025 A 
HETATM   18  C1  UNL     1      -6.133  -0.071   1.758  1.00  0.00     0.051 C 
HETATM   19  C20 UNL     1      -5.786  -0.269  -0.655  1.00  0.00     0.094 A 
HETATM   20  N4  UNL     1      -4.920  -0.362  -1.683  1.00  0.00    -0.358 N 
HETATM   21  C19 UNL     1      -3.586  -0.365  -1.512  1.00  0.00     0.104 A 
ATOM     22  H4  UNL     1      -5.292  -0.433  -2.630  1.00  0.00     0.166 HD
BRANCH  19  23
HETATM   23  C21 UNL     1      -7.210  -0.270  -0.865  1.00  0.00    -0.026 C 
HETATM   24  C22 UNL     1      -8.406  -0.292  -1.043  1.00  0.00     0.010 C 
BRANCH  24  25
HETATM   25  N5  UNL     1      -9.790  -0.334  -1.243  1.00  0.00    -0.359 N 
ATOM     26  H52 UNL     1      -8.953  -0.828  -0.934  1.00  0.00     0.166 HD
ATOM     27  H51 UNL     1     -10.799  -0.353  -1.393  1.00  0.00     0.166 HD
ENDBRANCH  24  25
ENDBRANCH  19  23
ENDBRANCH   1  15
BRANCH   7  28
HETATM   28  C9  UNL     1       4.097  -0.483  -0.499  1.00  0.00    -0.051 C 
HETATM   29  C10 UNL     1       5.166  -0.068  -0.124  1.00  0.00    -0.061 C 
BRANCH  29  30
HETATM   30  C11 UNL     1       6.442   0.412   0.318  1.00  0.00     0.018 A 
HETATM   31  C12 UNL     1       7.543   0.181  -0.476  1.00  0.00     0.020 A 
HETATM   32  C13 UNL     1       8.779   0.631  -0.076  1.00  0.00     0.001 A 
HETATM   33  C14 UNL     1       8.954   1.317   1.113  1.00  0.00     0.000 A 
HETATM   34  C15 UNL     1       7.864   1.553   1.913  1.00  0.00     0.001 A 
HETATM   35  C16 UNL     1       6.637   1.096   1.496  1.00  0.00     0.020 A 
ENDBRANCH  29  30
ENDBRANCH   7  28
TORSDOF 5
