REMARK  10 active torsions:
REMARK  status: ('A' for Active; 'I' for Inactive)
REMARK    1  A    between atoms: C2_2  and  O1_3 
REMARK    2  A    between atoms: O1_3  and  C3_4 
REMARK    3  A    between atoms: C4_5  and  N1_6 
REMARK    4  A    between atoms: N1_6  and  C5_8 
REMARK    5  A    between atoms: C5_8  and  C6_9 
REMARK    6  A    between atoms: C5_8  and  C8_11 
REMARK    7  A    between atoms: C12_15  and  N2_16 
REMARK       I    between atoms: N2_16  and  C13_18 
REMARK    8  A    between atoms: C13_18  and  C14_20 
REMARK    9  A    between atoms: C14_20  and  S1_21 
REMARK   10  A    between atoms: C16_24  and  O3_25 
ROOT
HETATM    1  S1  UNL     1       7.089   1.732  -1.454  1.00  0.00    -0.042 SA
HETATM    2  C15 UNL     1       7.205   2.582   0.078  1.00  0.00     0.134 C 
HETATM    3  N3  UNL     1       7.292   3.134   1.089  1.00  0.00    -0.184 NA
ENDROOT
BRANCH   1   4
HETATM    4  C14 UNL     1       6.049   0.282  -1.304  1.00  0.00     0.193 C 
BRANCH   4   5
HETATM    5  C13 UNL     1       4.625   0.692  -1.025  1.00  0.00     0.232 C 
HETATM    6  N2  UNL     1       3.613  -0.255  -0.858  1.00  0.00    -0.324 N 
ATOM      7  H2  UNL     1       3.920  -1.224  -0.940  1.00  0.00     0.169 HD
HETATM    8  O2  UNL     1       4.447   1.927  -0.959  1.00  0.00    -0.272 OA
BRANCH   6   9
HETATM    9  C12 UNL     1       2.251  -0.097  -0.597  1.00  0.00     0.071 A 
HETATM   10  C11 UNL     1       1.684   1.139  -0.463  1.00  0.00     0.035 A 
HETATM   11  C10 UNL     1       0.311   1.320  -0.201  1.00  0.00     0.034 A 
HETATM   12  C4  UNL     1      -0.495   0.229  -0.072  1.00  0.00     0.065 A 
HETATM   13  C3  UNL     1       0.074  -1.049  -0.205  1.00  0.00     0.130 A 
HETATM   14  C16 UNL     1       1.408  -1.223  -0.461  1.00  0.00     0.130 A 
BRANCH  12  15
HETATM   15  N1  UNL     1      -1.881   0.380   0.191  1.00  0.00    -0.383 N 
ATOM     16  H1  UNL     1      -2.416  -0.473   0.354  1.00  0.00     0.160 HD
BRANCH  15  17
HETATM   17  C5  UNL     1      -2.595   1.608   0.249  1.00  0.00     0.081 C 
BRANCH  17  18
HETATM   18  C6  UNL     1      -3.954   1.344   0.894  1.00  0.00     0.020 C 
HETATM   19  C7  UNL     1      -4.795   0.364   0.155  1.00  0.00     0.007 C 
ENDBRANCH  17  18
BRANCH  17  20
HETATM   20  C8  UNL     1      -2.834   2.190  -1.158  1.00  0.00     0.020 C 
HETATM   21  C9  UNL     1      -3.585   3.474  -1.030  1.00  0.00     0.007 C 
ENDBRANCH  17  20
ENDBRANCH  15  17
ENDBRANCH  12  15
BRANCH  13  22
HETATM   22  O1  UNL     1      -0.776  -2.133  -0.067  1.00  0.00    -0.346 OA
BRANCH  22  23
HETATM   23  C2  UNL     1      -1.100  -2.813   1.097  1.00  0.00     0.171 C 
HETATM   24  C1  UNL     1      -2.092  -3.940   0.751  1.00  0.00     0.034 C 
ENDBRANCH  22  23
ENDBRANCH  13  22
BRANCH  14  25
HETATM   25  O3  UNL     1       2.001  -2.477  -0.599  1.00  0.00    -0.351 OA
HETATM   26  C17 UNL     1       2.586  -3.194   0.447  1.00  0.00     0.210 C 
ENDBRANCH  14  25
ENDBRANCH   6   9
ENDBRANCH   4   5
ENDBRANCH   1   4
TORSDOF 10
