REMARK  4 active torsions:
REMARK  status: ('A' for Active; 'I' for Inactive)
REMARK    1  A    between atoms: N2_4  and  N3_6 
REMARK       I    between atoms: N3_6  and  C1_8 
REMARK       I    between atoms: C1_8  and  N5_12 
REMARK    2  A    between atoms: N5_12  and  N6_14 
REMARK    3  A    between atoms: N6_14  and  O1_16 
REMARK    4  A    between atoms: O1_16  and  C2_17 
ROOT
HETATM    1  N3  UNL     1      -2.584   0.711   0.247  1.00  0.00    -0.117 N 
ATOM      2  H3  UNL     1      -2.308   1.383   0.963  1.00  0.00     0.207 HD
HETATM    3  C1  UNL     1      -1.628  -0.235  -0.223  1.00  0.00     0.707 C 
HETATM    4  N4  UNL     1      -1.853  -0.945  -1.254  1.00  0.00    -0.232 N 
ATOM      5  H41 UNL     1      -1.169  -1.622  -1.590  1.00  0.00     0.174 HD
ATOM      6  H42 UNL     1      -2.731  -0.845  -1.764  1.00  0.00     0.174 HD
HETATM    7  N5  UNL     1      -0.408  -0.374   0.485  1.00  0.00    -0.111 N 
ATOM      8  H5  UNL     1      -0.402  -0.361   1.505  1.00  0.00     0.207 HD
ENDROOT
BRANCH   1   9
HETATM    9  N2  UNL     1      -3.886   0.742  -0.246  1.00  0.00    -0.235 N 
HETATM   10  N1  UNL     1      -4.846   0.714   0.565  1.00  0.00    -0.330 N 
ATOM     11  H12 UNL     1      -4.657   0.669   1.566  1.00  0.00     0.178 HD
ATOM     12  H11 UNL     1      -5.800   0.737   0.204  1.00  0.00     0.178 HD
ATOM     13  H2  UNL     1      -4.058   0.787  -1.250  1.00  0.00     0.208 HD
ENDBRANCH   1   9
BRANCH   7  14
HETATM   14  N6  UNL     1       0.692  -0.517  -0.166  1.00  0.00    -0.184 N 
ATOM     15  H6  UNL     1       0.734  -0.536  -1.185  1.00  0.00     0.217 HD
BRANCH  14  16
HETATM   16  O1  UNL     1       1.822  -0.644   0.642  1.00  0.00    -0.189 OA
BRANCH  16  17
HETATM   17  C2  UNL     1       3.014  -0.187   0.100  1.00  0.00     0.251 C 
HETATM   18  N7  UNL     1       2.935   0.822  -0.706  1.00  0.00    -0.366 N 
ATOM     19  H72 UNL     1       2.030   1.242  -0.917  1.00  0.00     0.159 HD
ATOM     20  H71 UNL     1       3.812   1.158  -1.105  1.00  0.00     0.159 HD
HETATM   21  N8  UNL     1       4.274  -0.771   0.393  1.00  0.00    -0.055 NA
ENDBRANCH  16  17
ENDBRANCH  14  16
ENDBRANCH   7  14
TORSDOF 4
