REMARK  1 active torsions:
REMARK  status: ('A' for Active; 'I' for Inactive)
REMARK       I    between atoms: C2_4  and  N3_6 
REMARK    1  A    between atoms: N6_14  and  N7_15 
ROOT
HETATM    1  C1  UNL     1       2.428   1.415   0.169  1.00  0.00     0.148 C 
HETATM    2  N1  UNL     1       2.564   0.082  -0.332  1.00  0.00    -0.368 N 
ATOM      3  H1  UNL     1       3.268  -0.073  -1.054  1.00  0.00     0.161 HD
HETATM    4  C2  UNL     1       1.882  -0.934   0.044  1.00  0.00     0.202 C 
HETATM    5  N2  UNL     1       2.176  -2.182  -0.587  1.00  0.00    -0.063 NA
HETATM    6  N3  UNL     1       0.873  -0.930   1.018  1.00  0.00    -0.162 N 
ATOM      7  H3  UNL     1       1.102  -1.128   1.992  1.00  0.00     0.187 HD
HETATM    8  C3  UNL     1      -0.336  -0.678   0.682  1.00  0.00     0.698 C 
HETATM    9  N4  UNL     1      -1.405  -0.664   1.653  1.00  0.00    -0.186 N 
ATOM     10  H4  UNL     1      -1.244  -0.852   2.643  1.00  0.00     0.185 HD
HETATM   11  C4  UNL     1      -2.575  -0.399   1.186  1.00  0.00     0.213 C 
HETATM   12  N5  UNL     1      -2.820  -0.136  -0.192  1.00  0.00    -0.278 N 
ATOM     13  H5  UNL     1      -3.731  -0.320  -0.613  1.00  0.00     0.185 HD
HETATM   14  N6  UNL     1      -1.763   0.385  -0.947  1.00  0.00    -0.031 NA
HETATM   15  N8  UNL     1      -0.643  -0.409  -0.669  1.00  0.00    -0.115 N 
ATOM     16  H8  UNL     1      -0.065  -0.782  -1.422  1.00  0.00     0.203 HD
ENDROOT
BRANCH  14  17
HETATM   17  N7  UNL     1      -1.458   1.684  -0.468  1.00  0.00    -0.327 NA
ATOM     18  H72 UNL     1      -2.274   2.262  -0.670  1.00  0.00     0.174 HD
ATOM     19  H71 UNL     1      -0.688   2.064  -1.018  1.00  0.00     0.174 HD
ENDBRANCH  14  17
TORSDOF 1
