REMARK  7 active torsions:
REMARK  status: ('A' for Active; 'I' for Inactive)
REMARK    1  A    between atoms: O1_1  and  N1_3 
REMARK    2  A    between atoms: C1_5  and  N2_6 
REMARK    3  A    between atoms: C1_5  and  C12_24 
REMARK    4  A    between atoms: N2_6  and  C2_8 
REMARK    5  A    between atoms: C2_8  and  C3_9 
REMARK    6  A    between atoms: C4_14  and  C5_15 
REMARK    7  A    between atoms: C5_15  and  C6_16 
ROOT
HETATM    1  C3  UNL     1       1.696   0.870  -1.380  1.00  0.00     0.115 A 
HETATM    2  N3  UNL     1       1.928   1.747  -0.382  1.00  0.00    -0.286 N 
ATOM      3  H3  UNL     1       2.849   2.051  -0.065  1.00  0.00     0.188 HD
HETATM    4  N4  UNL     1       0.765   2.154   0.124  1.00  0.00    -0.287 N 
ATOM      5  H4  UNL     1       0.651   2.818   0.890  1.00  0.00     0.188 HD
HETATM    6  C4  UNL     1      -0.242   1.541  -0.546  1.00  0.00     0.097 A 
HETATM    7  N5  UNL     1       0.361   0.762  -1.458  1.00  0.00    -0.332 N 
ATOM      8  H5  UNL     1      -0.131   0.166  -2.123  1.00  0.00     0.168 HD
ENDROOT
BRANCH   1   9
HETATM    9  C2  UNL     1       2.714   0.169  -2.218  1.00  0.00     0.199 C 
BRANCH   9  10
HETATM   10  N2  UNL     1       3.114  -1.095  -1.642  1.00  0.00    -0.364 N 
ATOM     11  H2  UNL     1       2.966  -1.953  -2.173  1.00  0.00     0.161 HD
BRANCH  10  12
HETATM   12  C1  UNL     1       3.709  -1.170  -0.354  1.00  0.00     0.176 C 
HETATM   13  N1  UNL     1       3.158  -1.873   0.572  1.00  0.00    -0.249 N 
ATOM     14  H1  UNL     1       2.293  -2.371   0.362  1.00  0.00     0.196 HD
BRANCH  13  15
HETATM   15  O1  UNL     1       3.692  -1.978   1.832  1.00  0.00    -0.288 OA
ATOM     16  H1  UNL     1       3.285  -2.497   2.516  1.00  0.00     0.244 HD
ENDBRANCH  13  15
BRANCH  12  17
HETATM   17  C12 UNL     1       4.944  -0.469  -0.029  1.00  0.00     0.226 A 
HETATM   18  N6  UNL     1       5.476   0.687  -0.496  1.00  0.00    -0.253 N 
HETATM   19  N7  UNL     1       6.507   0.506   0.319  1.00  0.00     0.030 NA
ATOM     20  H6  UNL     1       5.202   1.392  -1.180  1.00  0.00     0.187 HD
HETATM   21  O2  UNL     1       5.983  -0.599   0.753  1.00  0.00    -0.200 OA
ENDBRANCH  12  17
ENDBRANCH  10  12
ENDBRANCH   9  10
ENDBRANCH   1   9
BRANCH   6  22
HETATM   22  C5  UNL     1      -1.695   1.724  -0.287  1.00  0.00     0.082 C 
BRANCH  22  23
HETATM   23  C6  UNL     1      -2.226   0.745   0.729  1.00  0.00    -0.007 C 
HETATM   24  C7  UNL     1      -2.055  -0.682   0.304  1.00  0.00     0.005 C 
HETATM   25  C8  UNL     1      -3.090  -0.960  -0.787  1.00  0.00     0.000 C 
HETATM   26  C9  UNL     1      -4.422  -1.115  -0.084  1.00  0.00     0.000 C 
HETATM   27  C10 UNL     1      -4.517  -0.212   1.099  1.00  0.00     0.000 C 
HETATM   28  C11 UNL     1      -3.671   1.034   0.967  1.00  0.00     0.005 C 
ENDBRANCH  22  23
ENDBRANCH   6  22
TORSDOF 7
