REMARK  6 active torsions:
REMARK  status: ('A' for Active; 'I' for Inactive)
REMARK    1  A    between atoms: C6_9  and  C7_10 
REMARK    2  A    between atoms: C7_10  and  O1_11 
REMARK    3  A    between atoms: C7_10  and  C8_13 
REMARK    4  A    between atoms: N3_18  and  C11_19 
REMARK    5  A    between atoms: C11_19  and  C12_20 
REMARK    6  A    between atoms: C12_20  and  O2_21 
ROOT
HETATM    1  N1  UNL     1      -4.554   1.159   1.603  1.00  0.00    -0.405 N 
ATOM      2  H11 UNL     1      -4.501   0.992   2.608  1.00  0.00     0.155 HD
ATOM      3  H12 UNL     1      -5.132   1.837   1.107  1.00  0.00     0.155 HD
HETATM    4  C1  UNL     1      -3.799   0.426   0.831  1.00  0.00    -0.016 C 
HETATM    5  C2  UNL     1      -3.874   0.664  -0.598  1.00  0.00     0.052 C 
HETATM    6  C3  UNL     1      -2.906   1.755  -1.072  1.00  0.00     0.006 C 
HETATM    7  C4  UNL     1      -1.565   1.070  -1.285  1.00  0.00     0.002 C 
HETATM    8  C5  UNL     1      -0.823   1.122   0.007  1.00  0.00     0.028 C 
HETATM    9  C6  UNL     1      -0.155  -0.123   0.436  1.00  0.00     0.115 C 
HETATM   10  N4  UNL     1      -0.828  -1.308   0.551  1.00  0.00    -0.394 N 
ATOM     11  H4  UNL     1      -0.260  -2.154   0.503  1.00  0.00     0.159 HD
HETATM   12  C13 UNL     1      -2.184  -1.494   0.724  1.00  0.00     0.061 C 
HETATM   13  C14 UNL     1      -2.962  -0.557   1.550  1.00  0.00     0.096 C 
ENDROOT
BRANCH   9  14
HETATM   14  C7  UNL     1       1.018  -0.323  -0.528  1.00  0.00     0.192 C 
BRANCH  14  15
HETATM   15  O1  UNL     1       0.552  -0.722  -1.802  1.00  0.00    -0.387 OA
ATOM     16  H1  UNL     1       1.280  -0.846  -2.400  1.00  0.00     0.210 HD
ENDBRANCH  14  15
BRANCH  14  17
HETATM   17  C8  UNL     1       2.024  -1.250  -0.044  1.00  0.00     0.059 A 
HETATM   18  C9  UNL     1       1.962  -2.616  -0.098  1.00  0.00     0.116 A 
HETATM   19  N2  UNL     1       3.074  -3.130   0.446  1.00  0.00    -0.360 N 
HETATM   20  C10 UNL     1       3.816  -2.076   0.834  1.00  0.00     0.183 A 
ATOM     21  H2  UNL     1       3.310  -4.117   0.546  1.00  0.00     0.166 HD
HETATM   22  N3  UNL     1       3.182  -0.932   0.539  1.00  0.00    -0.341 N 
BRANCH  22  23
HETATM   23  C11 UNL     1       3.724   0.398   0.832  1.00  0.00     0.155 C 
BRANCH  23  24
HETATM   24  C12 UNL     1       4.545   0.842  -0.380  1.00  0.00     0.184 C 
BRANCH  24  25
HETATM   25  O2  UNL     1       5.079   2.095  -0.150  1.00  0.00    -0.399 OA
ATOM     26  H2  UNL     1       5.589   2.371  -0.903  1.00  0.00     0.209 HD
ENDBRANCH  24  25
ENDBRANCH  23  24
ENDBRANCH  22  23
ENDBRANCH  14  17
ENDBRANCH   9  14
TORSDOF 6
