REMARK  15 active torsions:
REMARK  status: ('A' for Active; 'I' for Inactive)
REMARK    1  A    between atoms: C3_4  and  C4_5 
REMARK    2  A    between atoms: C4_5  and  O1_6 
REMARK    3  A    between atoms: C4_5  and  C5_8 
REMARK    4  A    between atoms: C5_8  and  N1_9 
REMARK    5  A    between atoms: C5_8  and  N2_12 
REMARK       I    between atoms: N2_12  and  C6_14 
REMARK    6  A    between atoms: C6_14  and  C7_16 
REMARK    7  A    between atoms: C7_16  and  N3_17 
REMARK    8  A    between atoms: C7_16  and  C13_28 
REMARK    9  A    between atoms: N3_17  and  O3_18 
REMARK   10  A    between atoms: O3_18  and  C8_19 
REMARK   11  A    between atoms: C8_19  and  C9_20 
REMARK   12  A    between atoms: C8_19  and  C12_25 
REMARK   13  A    between atoms: C9_20  and  O4_21 
REMARK   14  A    between atoms: O4_21  and  C10_22 
REMARK   15  A    between atoms: C15_31  and  N4_32 
ROOT
HETATM    1  C7  UNL     1      -1.119  -2.048  -0.230  1.00  0.00     0.234 C 
ENDROOT
BRANCH   1   2
HETATM    2  C6  UNL     1       0.134  -1.296  -0.057  1.00  0.00     0.293 C 
HETATM    3  N2  UNL     1       1.422  -1.763  -0.112  1.00  0.00    -0.305 N 
ATOM      4  H2  UNL     1       1.520  -2.768  -0.259  1.00  0.00     0.171 HD
HETATM    5  O2  UNL     1      -0.133  -0.044   0.162  1.00  0.00    -0.264 OA
BRANCH   3   6
HETATM    6  C5  UNL     1       2.625  -1.046   0.006  1.00  0.00     0.137 C 
BRANCH   6   7
HETATM    7  C4  UNL     1       2.895   0.335   0.213  1.00  0.00     0.130 C 
BRANCH   7   8
HETATM    8  C3  UNL     1       4.192   0.722   0.306  1.00  0.00     0.082 A 
HETATM    9  S1  UNL     1       5.611  -0.230   0.208  1.00  0.00    -0.067 SA
HETATM   10  C2  UNL     1       6.760   0.994   0.441  1.00  0.00     0.068 A 
HETATM   11  C1  UNL     1       8.099   0.889   0.472  1.00  0.00     0.051 C 
HETATM   12  N6  UNL     1       6.014   2.092   0.587  1.00  0.00    -0.336 N 
HETATM   13  C16 UNL     1       4.707   1.967   0.521  1.00  0.00     0.123 A 
HETATM   14  C17 UNL     1       6.661   3.422   0.823  1.00  0.00     0.158 C 
HETATM   15  S3  UNL     1       3.672   3.273   0.701  1.00  0.00    -0.059 SA
ENDBRANCH   7   8
BRANCH   7  16
HETATM   16  O1  UNL     1       1.985   1.326   0.329  1.00  0.00    -0.356 OA
ATOM     17  H1  UNL     1       1.077   1.055   0.264  1.00  0.00     0.218 HD
ENDBRANCH   7  16
ENDBRANCH   6   7
BRANCH   6  18
HETATM   18  N1  UNL     1       3.701  -1.854  -0.089  1.00  0.00    -0.383 N 
ATOM     19  H12 UNL     1       4.574  -1.334  -0.003  1.00  0.00     0.157 HD
ATOM     20  H11 UNL     1       3.507  -2.844  -0.237  1.00  0.00     0.157 HD
ENDBRANCH   6  18
ENDBRANCH   3   6
ENDBRANCH   1   2
BRANCH   1  21
HETATM   21  N3  UNL     1      -2.157  -1.464  -0.041  1.00  0.00    -0.272 NA
BRANCH  21  22
HETATM   22  O3  UNL     1      -3.201  -0.871   0.150  1.00  0.00    -0.190 OA
BRANCH  22  23
HETATM   23  C8  UNL     1      -3.686   0.459  -0.219  1.00  0.00     0.292 C 
BRANCH  23  24
HETATM   24  C9  UNL     1      -3.709   1.258   1.033  1.00  0.00     0.225 C 
BRANCH  24  25
HETATM   25  O4  UNL     1      -4.278   2.508   0.922  1.00  0.00    -0.319 OA
BRANCH  25  26
HETATM   26  C10 UNL     1      -5.609   2.841   0.912  1.00  0.00     0.254 C 
HETATM   27  C11 UNL     1      -6.072   4.266   0.744  1.00  0.00     0.126 C 
HETATM   28  O5  UNL     1      -6.471   1.946   1.046  1.00  0.00    -0.266 OA
ENDBRANCH  25  26
ENDBRANCH  24  25
ENDBRANCH  23  24
BRANCH  23  29
HETATM   29  C12 UNL     1      -4.861   0.315  -1.037  1.00  0.00     0.209 C 
HETATM   30  O6  UNL     1      -5.306   1.260  -1.734  1.00  0.00    -0.646 OA
HETATM   31  O7  UNL     1      -5.545  -0.893  -1.079  1.00  0.00    -0.646 OA
ENDBRANCH  23  29
ENDBRANCH  22  23
ENDBRANCH  21  22
ENDBRANCH   1  21
BRANCH   1  32
HETATM   32  C13 UNL     1      -1.208  -3.498  -0.596  1.00  0.00     0.090 A 
HETATM   33  C14 UNL     1      -0.245  -4.146  -1.309  1.00  0.00     0.086 A 
HETATM   34  S2  UNL     1      -0.807  -5.770  -1.320  1.00  0.00    -0.064 SA
HETATM   35  C15 UNL     1      -2.226  -5.536  -0.429  1.00  0.00     0.142 A 
HETATM   36  N5  UNL     1      -2.216  -4.237  -0.157  1.00  0.00    -0.334 N 
ATOM     37  H5  UNL     1      -2.972  -3.814   0.381  1.00  0.00     0.168 HD
BRANCH  35  38
HETATM   38  N4  UNL     1      -3.151  -6.408  -0.065  1.00  0.00    -0.380 N 
ATOM     39  H42 UNL     1      -3.159  -7.406  -0.274  1.00  0.00     0.158 HD
ATOM     40  H41 UNL     1      -4.007  -6.267   0.472  1.00  0.00     0.158 HD
ENDBRANCH  35  38
ENDBRANCH   1  32
TORSDOF 15
