REMARK  1 active torsions:
REMARK  status: ('A' for Active; 'I' for Inactive)
REMARK    1  A    between atoms: C2_3  and  C3_4 
ROOT
HETATM    1  N1  UNL     1      -0.480   2.440  -1.953  1.00  0.00    -0.196 NA
HETATM    2  C1  UNL     1      -0.358   1.499  -1.280  1.00  0.00     0.082 C 
HETATM    3  C2  UNL     1      -0.208   0.295  -0.412  1.00  0.00     0.163 C 
HETATM    4  C7  UNL     1      -0.991   0.639   0.838  1.00  0.00     0.038 C 
HETATM    5  C8  UNL     1      -2.408   0.353   0.322  1.00  0.00     0.008 C 
HETATM    6  C9  UNL     1      -2.214  -1.044  -0.223  1.00  0.00     0.081 C 
HETATM    7  C10 UNL     1      -0.954  -0.814  -1.075  1.00  0.00     0.270 C 
HETATM    8  F1  UNL     1      -0.289  -2.004  -1.128  1.00  0.00    -0.204 F 
HETATM    9  F2  UNL     1      -1.431  -0.455  -2.337  1.00  0.00    -0.204 F 
ENDROOT
BRANCH   3  10
HETATM   10  C3  UNL     1       1.214   0.013  -0.184  1.00  0.00     0.081 A 
HETATM   11  C4  UNL     1       2.184   0.872   0.251  1.00  0.00     0.036 A 
HETATM   12  C5  UNL     1       3.362   0.166   0.315  1.00  0.00     0.027 A 
HETATM   13  C6  UNL     1       3.044  -1.113  -0.098  1.00  0.00     0.142 A 
HETATM   14  O1  UNL     1       1.794  -1.125  -0.367  1.00  0.00    -0.325 OA
ENDBRANCH   3  10
TORSDOF 1
