REMARK  8 active torsions:
REMARK  status: ('A' for Active; 'I' for Inactive)
REMARK    1  A    between atoms: C1_2  and  C2_4 
REMARK    2  A    between atoms: C2_4  and  S1_5 
REMARK    3  A    between atoms: S1_5  and  C3_6 
REMARK    4  A    between atoms: C4_11  and  C5_12 
REMARK    5  A    between atoms: C8_15  and  N3_16 
REMARK    6  A    between atoms: N4_22  and  C11_23 
REMARK    7  A    between atoms: C11_23  and  C12_24 
REMARK    8  A    between atoms: C12_24  and  C13_25 
ROOT
HETATM    1  C3  UNL     1      -2.283   2.361   1.085  1.00  0.00     0.163 A 
HETATM    2  N1  UNL     1      -3.450   2.213   1.730  1.00  0.00    -0.278 N 
ATOM      3  H1  UNL     1      -3.928   2.951   2.246  1.00  0.00     0.189 HD
HETATM    4  N2  UNL     1      -3.889   0.981   1.602  1.00  0.00    -0.283 N 
ATOM      5  H2  UNL     1      -4.752   0.609   1.998  1.00  0.00     0.188 HD
HETATM    6  C4  UNL     1      -2.982   0.280   0.841  1.00  0.00     0.136 A 
HETATM    7  N4  UNL     1      -2.022   1.142   0.547  1.00  0.00    -0.310 N 
ENDROOT
BRANCH   6   8
HETATM    8  C5  UNL     1      -3.167  -1.140   0.555  1.00  0.00     0.031 A 
HETATM    9  C6  UNL     1      -3.114  -2.086   1.585  1.00  0.00     0.019 A 
HETATM   10  C7  UNL     1      -3.334  -3.428   1.374  1.00  0.00     0.037 A 
HETATM   11  C8  UNL     1      -3.622  -3.894   0.099  1.00  0.00     0.104 A 
HETATM   12  C9  UNL     1      -3.678  -2.970  -0.918  1.00  0.00     0.060 A 
HETATM   13  C10 UNL     1      -3.454  -1.609  -0.692  1.00  0.00     0.050 A 
HETATM   14 CL1  UNL     1      -3.644  -0.534  -2.070  1.00  0.00    -0.083 Cl
BRANCH  11  15
HETATM   15  N3  UNL     1      -3.849  -5.281  -0.127  1.00  0.00    -0.116 N 
HETATM   16  O3  UNL     1      -3.788  -6.072   0.826  1.00  0.00    -0.532 OA
HETATM   17  O4  UNL     1      -4.135  -5.758  -1.374  1.00  0.00    -0.532 OA
ENDBRANCH  11  15
ENDBRANCH   6   8
BRANCH   7  18
HETATM   18  C11 UNL     1      -0.792   0.866  -0.199  1.00  0.00     0.137 C 
BRANCH  18  19
HETATM   19  C12 UNL     1       0.293   0.437   0.739  1.00  0.00     0.054 C 
BRANCH  19  20
HETATM   20  C13 UNL     1       1.606   0.127   0.155  1.00  0.00    -0.081 C 
HETATM   21  C14 UNL     1       1.630   0.289  -1.158  1.00  0.00    -0.013 C 
HETATM   22  C15 UNL     1       2.730   0.104  -2.231  1.00  0.00     0.107 C 
HETATM   23  C16 UNL     1       3.822  -0.476  -1.535  1.00  0.00    -0.179 C 
HETATM   24  C17 UNL     1       4.977  -1.104  -1.121  1.00  0.00     0.080 C 
HETATM   25  C18 UNL     1       4.868  -1.243   0.432  1.00  0.00     0.011 C 
HETATM   26  C19 UNL     1       3.482  -1.433   0.959  1.00  0.00     0.005 C 
HETATM   27  C20 UNL     1       2.595  -0.294   1.241  1.00  0.00     0.034 C 
ENDBRANCH  19  20
ENDBRANCH  18  19
ENDBRANCH   7  18
BRANCH   1  28
HETATM   28  S1  UNL     1      -1.269   3.841   0.949  1.00  0.00    -0.082 SA
BRANCH  28  29
HETATM   29  C2  UNL     1      -1.830   4.737  -0.525  1.00  0.00     0.195 C 
BRANCH  29  30
HETATM   30  C1  UNL     1      -1.054   5.982  -0.732  1.00  0.00     0.182 C 
HETATM   31  O1  UNL     1      -1.347   6.689  -1.718  1.00  0.00    -0.647 OA
HETATM   32  O2  UNL     1      -0.056   6.285   0.176  1.00  0.00    -0.647 OA
ENDBRANCH  29  30
ENDBRANCH  28  29
ENDBRANCH   1  28
TORSDOF 8
