REMARK  10 active torsions:
REMARK  status: ('A' for Active; 'I' for Inactive)
REMARK    1  A    between atoms: C2_2  and  C3_4 
REMARK    2  A    between atoms: C3_4  and  O3_6 
REMARK    3  A    between atoms: O3_6  and  C4_7 
REMARK    4  A    between atoms: C4_7  and  C7_10 
REMARK    5  A    between atoms: C7_10  and  C8_11 
REMARK    6  A    between atoms: C8_11  and  C9_12 
REMARK    7  A    between atoms: C8_11  and  C13_16 
REMARK    8  A    between atoms: C9_12  and  C10_13 
REMARK    9  A    between atoms: C15_20  and  C16_21 
REMARK   10  A    between atoms: C19_26  and  C20_27 
ROOT
HETATM    1  C13 UNL     1       0.184  -0.201  -0.625  1.00  0.00     0.004 A 
HETATM    2  C14 UNL     1       0.386   1.065  -1.136  1.00  0.00     0.104 A 
HETATM    3  N1  UNL     1       1.540   1.592  -1.018  1.00  0.00    -0.358 N 
ATOM      4  H1  UNL     1       1.714   2.527  -1.387  1.00  0.00     0.166 HD
HETATM    5  C15 UNL     1       2.533   0.913  -0.404  1.00  0.00     0.092 A 
HETATM    6  S2  UNL     1       1.741  -0.517  -0.001  1.00  0.00    -0.074 SA
ENDROOT
BRANCH   1   7
HETATM    7  C8  UNL     1      -1.085  -1.002  -0.644  1.00  0.00     0.030 C 
BRANCH   7   8
HETATM    8  C7  UNL     1      -1.642  -1.078   0.772  1.00  0.00     0.047 C 
BRANCH   8   9
HETATM    9  C4  UNL     1      -2.128   0.167   1.388  1.00  0.00     0.064 C 
HETATM   10  C5  UNL     1      -2.804  -0.344   2.712  1.00  0.00     0.046 C 
HETATM   11  C6  UNL     1      -1.187   1.213   1.803  1.00  0.00     0.046 C 
BRANCH   9  12
HETATM   12  O3  UNL     1      -3.181   0.766   0.607  1.00  0.00    -0.305 OA
BRANCH  12  13
HETATM   13  C3  UNL     1      -3.921   1.813   1.056  1.00  0.00     0.329 C 
HETATM   14  O2  UNL     1      -3.687   2.292   2.214  1.00  0.00    -0.256 OA
BRANCH  13  15
HETATM   15  C2  UNL     1      -4.989   2.450   0.304  1.00  0.00     0.220 C 
HETATM   16  C1  UNL     1      -5.735   3.578   0.873  1.00  0.00     0.103 C 
HETATM   17  O1  UNL     1      -5.267   2.030  -0.834  1.00  0.00    -0.287 OA
ENDBRANCH  13  15
ENDBRANCH  12  13
ENDBRANCH   9  12
ENDBRANCH   8   9
ENDBRANCH   7   8
BRANCH   7  18
HETATM   18  C9  UNL     1      -0.739  -2.420  -0.987  1.00  0.00     0.014 C 
BRANCH  18  19
HETATM   19  C10 UNL     1      -0.242  -2.774  -2.312  1.00  0.00    -0.022 C 
HETATM   20  C11 UNL     1       1.022  -2.221  -2.848  1.00  0.00     0.009 C 
HETATM   21  C12 UNL     1      -0.047  -4.321  -2.298  1.00  0.00     0.009 C 
ENDBRANCH  18  19
ENDBRANCH   7  18
ENDBRANCH   1   7
BRANCH   5  22
HETATM   22  C16 UNL     1       3.902   1.466  -0.232  1.00  0.00     0.057 A 
HETATM   23  S1  UNL     1       4.381   3.047  -0.800  1.00  0.00    -0.074 SA
HETATM   24  C17 UNL     1       5.993   3.036  -0.297  1.00  0.00     0.076 A 
HETATM   25 CL1  UNL     1       7.238   4.288  -0.479  1.00  0.00    -0.076 Cl
HETATM   26  C18 UNL     1       6.121   1.820   0.293  1.00  0.00     0.051 A 
HETATM   27  C19 UNL     1       5.036   1.006   0.327  1.00  0.00     0.062 A 
BRANCH  27  28
HETATM   28  C20 UNL     1       5.136  -0.338   0.966  1.00  0.00     0.210 C 
HETATM   29  O4  UNL     1       4.215  -1.149   1.050  1.00  0.00    -0.644 OA
HETATM   30  O5  UNL     1       6.347  -0.767   1.535  1.00  0.00    -0.644 OA
ENDBRANCH  27  28
ENDBRANCH   5  22
TORSDOF 10
