REMARK  3 active torsions:
REMARK  status: ('A' for Active; 'I' for Inactive)
REMARK    1  A    between atoms: N1_1  and  O1_4 
REMARK    2  A    between atoms: O1_4  and  N2_5 
REMARK    3  A    between atoms: C4_9  and  C5_10 
ROOT
HETATM    1  N2  UNL     1       0.768  -0.045   0.625  1.00  0.00    -0.159 NA
HETATM    2  C1  UNL     1       0.748  -1.497   0.620  1.00  0.00     0.124 C 
HETATM    3  C2  UNL     1       0.245  -1.770  -0.787  1.00  0.00     0.019 C 
HETATM    4  C3  UNL     1      -0.975  -0.839  -0.777  1.00  0.00     0.032 C 
HETATM    5  C4  UNL     1      -0.346   0.400  -0.169  1.00  0.00     0.177 C 
ENDROOT
BRANCH   1   6
HETATM    6  O1  UNL     1       1.915   0.327   0.010  1.00  0.00    -0.189 OA
BRANCH   6   7
HETATM    7  N1  UNL     1       2.681   1.121   0.781  1.00  0.00    -0.291 N 
ATOM      8  H12 UNL     1       2.412   1.403   1.724  1.00  0.00     0.186 HD
ATOM      9  H11 UNL     1       3.545   1.401   0.318  1.00  0.00     0.186 HD
ENDBRANCH   6   7
ENDBRANCH   1   6
BRANCH   5  10
HETATM   10  C5  UNL     1      -1.322   1.191   0.616  1.00  0.00     0.251 C 
HETATM   11  N3  UNL     1      -2.475   1.705  -0.008  1.00  0.00    -0.061 NA
HETATM   12  O2  UNL     1      -1.135   1.409   1.829  1.00  0.00    -0.275 OA
ENDBRANCH   5  10
TORSDOF 3
