REMARK  2 active torsions:
REMARK  status: ('A' for Active; 'I' for Inactive)
REMARK    1  A    between atoms: N1_2  and  C3_4 
REMARK    2  A    between atoms: C5_11  and  N4_12 
ROOT
HETATM    1  C3  UNL     1      -0.058  -0.286  -0.008  1.00  0.00     0.698 A 
HETATM    2  N2  UNL     1       0.348  -1.566   0.039  1.00  0.00    -0.140 N 
ATOM      3  H2  UNL     1      -0.354  -2.305   0.074  1.00  0.00     0.189 HD
HETATM    4  C4  UNL     1       1.648  -1.905   0.042  1.00  0.00     0.352 A 
HETATM    5  O1  UNL     1       1.995  -3.112   0.088  1.00  0.00    -0.246 OA
HETATM    6  N3  UNL     1       2.524  -0.885  -0.004  1.00  0.00    -0.141 N 
ATOM      7  H3  UNL     1       3.522  -1.095  -0.003  1.00  0.00     0.189 HD
HETATM    8  C5  UNL     1       2.134   0.402  -0.051  1.00  0.00     0.694 A 
HETATM    9  N5  UNL     1       0.829   0.730  -0.054  1.00  0.00    -0.022 N 
ATOM     10  H5  UNL     1       0.524   1.703  -0.089  1.00  0.00     0.203 HD
ENDROOT
BRANCH   1  11
HETATM   11  N1  UNL     1      -1.456   0.077  -0.009  1.00  0.00    -0.226 N 
HETATM   12  C1  UNL     1      -1.976   0.555   1.256  1.00  0.00     0.168 C 
HETATM   13  C2  UNL     1      -2.277  -0.044  -1.178  1.00  0.00     0.168 C 
ENDBRANCH   1  11
BRANCH   8  14
HETATM   14  N4  UNL     1       3.037   1.304  -0.086  1.00  0.00    -0.234 N 
ATOM     15  H42 UNL     1       4.026   1.055  -0.084  1.00  0.00     0.174 HD
ATOM     16  H41 UNL     1       2.741   2.280  -0.122  1.00  0.00     0.174 HD
ENDBRANCH   8  14
TORSDOF 2
