REMARK  17 active torsions:
REMARK  status: ('A' for Active; 'I' for Inactive)
REMARK    1  A    between atoms: O1_2  and  C2_3 
REMARK    2  A    between atoms: C2_3  and  C3_4 
REMARK    3  A    between atoms: C2_3  and  C20_31 
REMARK    4  A    between atoms: C3_4  and  C7_8 
REMARK    5  A    between atoms: C8_10  and  O3_11 
REMARK    6  A    between atoms: O3_11  and  C9_12 
REMARK    7  A    between atoms: C11_14  and  O4_15 
REMARK    8  A    between atoms: O4_15  and  C12_16 
REMARK    9  A    between atoms: C16_21  and  O6_23 
REMARK   10  A    between atoms: C19_27  and  O8_28 
REMARK   11  A    between atoms: C20_31  and  O10_32 
REMARK   12  A    between atoms: C20_31  and  C21_34 
REMARK   13  A    between atoms: C21_34  and  O11_35 
REMARK   14  A    between atoms: C21_34  and  C22_37 
REMARK   15  A    between atoms: C21_34  and  O13_40 
REMARK   16  A    between atoms: C22_37  and  O12_38 
REMARK   17  A    between atoms: O13_40  and  C23_41 
ROOT
HETATM    1  C7  UNL     1       1.414   1.313  -0.092  1.00  0.00     0.304 C 
HETATM    2  O2  UNL     1       0.275   1.928   0.471  1.00  0.00    -0.304 OA
HETATM    3  C8  UNL     1      -0.445   0.922  -0.224  1.00  0.00     0.418 C 
HETATM    4  O9  UNL     1       0.706   0.128   0.010  1.00  0.00    -0.304 OA
ENDROOT
BRANCH   1   5
HETATM    5  C3  UNL     1       2.639   1.473   0.723  1.00  0.00     0.008 C 
HETATM    6  C4  UNL     1       2.929   2.723   1.037  1.00  0.00    -0.078 C 
HETATM    7  C5  UNL     1       4.095   3.038   1.878  1.00  0.00     0.043 C 
HETATM    8  C6  UNL     1       2.099   3.844   0.533  1.00  0.00     0.043 C 
BRANCH   5   9
HETATM    9  C2  UNL     1       3.454   0.332   1.188  1.00  0.00     0.189 C 
BRANCH   9  10
HETATM   10  O1  UNL     1       2.606  -0.416   2.047  1.00  0.00    -0.383 OA
HETATM   11  C1  UNL     1       3.022  -0.393   3.358  1.00  0.00     0.202 C 
ENDBRANCH   9  10
BRANCH   9  12
HETATM   12  C20 UNL     1       4.036  -0.569   0.134  1.00  0.00     0.216 C 
BRANCH  12  13
HETATM   13  O10 UNL     1       3.076  -1.102  -0.648  1.00  0.00    -0.387 OA
ATOM     14  H10 UNL     1       3.444  -1.671  -1.314  1.00  0.00     0.210 HD
ENDBRANCH  12  13
BRANCH  12  15
HETATM   15  C21 UNL     1       5.365  -0.253  -0.405  1.00  0.00     0.221 C 
BRANCH  15  16
HETATM   16  O11 UNL     1       6.161   0.376   0.596  1.00  0.00    -0.361 OA
ATOM     17  H11 UNL     1       7.021   0.580   0.247  1.00  0.00     0.213 HD
ENDBRANCH  15  16
BRANCH  15  18
HETATM   18  C22 UNL     1       5.490   0.538  -1.646  1.00  0.00     0.235 C 
BRANCH  18  19
HETATM   19  O12 UNL     1       5.113   1.845  -1.629  1.00  0.00    -0.395 OA
ATOM     20  H12 UNL     1       5.193   2.354  -2.427  1.00  0.00     0.209 HD
ENDBRANCH  18  19
ENDBRANCH  15  18
BRANCH  15  21
HETATM   21  O13 UNL     1       6.166  -1.438  -0.629  1.00  0.00    -0.279 OA
BRANCH  21  22
HETATM   22  C23 UNL     1       5.918  -2.457  -1.473  1.00  0.00     0.257 C 
HETATM   23  C24 UNL     1       6.862  -3.642  -1.571  1.00  0.00     0.126 C 
HETATM   24  O14 UNL     1       4.892  -2.443  -2.198  1.00  0.00    -0.266 OA
ENDBRANCH  21  22
ENDBRANCH  15  21
ENDBRANCH  12  15
ENDBRANCH   9  12
ENDBRANCH   5   9
ENDBRANCH   1   5
BRANCH   3  25
HETATM   25  O3  UNL     1      -1.574   0.448   0.386  1.00  0.00    -0.331 OA
BRANCH  25  26
HETATM   26  C9  UNL     1      -2.662   0.402  -0.494  1.00  0.00     0.163 C 
HETATM   27  C10 UNL     1      -3.862   1.128  -0.018  1.00  0.00     0.104 C 
HETATM   28  C11 UNL     1      -5.148   0.340  -0.193  1.00  0.00     0.176 C 
HETATM   29  C14 UNL     1      -5.254  -0.653   0.914  1.00  0.00     0.072 C 
HETATM   30  O7  UNL     1      -5.064  -0.242  -1.468  1.00  0.00    -0.344 OA
HETATM   31  C15 UNL     1      -5.518  -2.062   0.499  1.00  0.00     0.045 C 
HETATM   32  C16 UNL     1      -4.920  -2.472  -0.807  1.00  0.00     0.083 C 
HETATM   33  C17 UNL     1      -4.049  -3.683  -0.758  1.00  0.00     0.049 C 
HETATM   34  C18 UNL     1      -4.198  -1.310  -1.489  1.00  0.00     0.190 C 
HETATM   35  C19 UNL     1      -2.906  -1.067  -0.765  1.00  0.00     0.179 C 
BRANCH  28  36
HETATM   36  O4  UNL     1      -6.264   1.213  -0.258  1.00  0.00    -0.283 OA
BRANCH  36  37
HETATM   37  C12 UNL     1      -6.627   2.085   0.750  1.00  0.00     0.257 C 
HETATM   38  C13 UNL     1      -7.814   2.973   0.616  1.00  0.00     0.126 C 
HETATM   39  O5  UNL     1      -5.925   2.106   1.788  1.00  0.00    -0.266 OA
ENDBRANCH  36  37
ENDBRANCH  28  36
BRANCH  32  40
HETATM   40  O6  UNL     1      -5.990  -2.781  -1.677  1.00  0.00    -0.388 OA
ATOM     41  H6  UNL     1      -5.610  -3.042  -2.508  1.00  0.00     0.210 HD
ENDBRANCH  32  40
BRANCH  35  42
HETATM   42  O8  UNL     1      -1.883  -1.486  -1.647  1.00  0.00    -0.390 OA
ATOM     43  H8  UNL     1      -2.036  -2.408  -1.817  1.00  0.00     0.210 HD
ENDBRANCH  35  42
ENDBRANCH  25  26
ENDBRANCH   3  25
TORSDOF 17
