REMARK  7 active torsions:
REMARK  status: ('A' for Active; 'I' for Inactive)
REMARK    1  A    between atoms: C4_5  and  N2_6 
REMARK    2  A    between atoms: C7_11  and  C8_12 
REMARK    3  A    between atoms: C8_12  and  C9_14 
REMARK    4  A    between atoms: C9_14  and  N3_15 
REMARK    5  A    between atoms: C9_14  and  C15_25 
REMARK    6  A    between atoms: N3_15  and  N4_17 
REMARK    7  A    between atoms: C20_30  and  N5_31 
ROOT
HETATM    1  N1  UNL     1       2.864  -2.175  -3.948  1.00  0.00    -0.191 NA
HETATM    2  C1  UNL     1       2.978  -2.059  -2.788  1.00  0.00     0.100 C 
HETATM    3  C2  UNL     1       3.154  -1.930  -1.367  1.00  0.00     0.060 A 
HETATM    4  C3  UNL     1       4.338  -2.428  -0.799  1.00  0.00     0.059 A 
HETATM    5  C4  UNL     1       4.597  -2.348   0.547  1.00  0.00     0.104 A 
HETATM    6  C5  UNL     1       3.641  -1.752   1.335  1.00  0.00     0.037 A 
HETATM    7  C6  UNL     1       2.473  -1.261   0.777  1.00  0.00     0.019 A 
HETATM    8  C7  UNL     1       2.194  -1.335  -0.588  1.00  0.00     0.033 A 
ENDROOT
BRANCH   8   9
HETATM    9  C8  UNL     1       0.959  -0.828  -1.145  1.00  0.00     0.189 C 
HETATM   10  O3  UNL     1       0.694  -1.063  -2.356  1.00  0.00    -0.290 OA
BRANCH   9  11
HETATM   11  C9  UNL     1      -0.065  -0.031  -0.413  1.00  0.00     0.209 C 
BRANCH  11  12
HETATM   12  N3  UNL     1      -1.197   0.250  -1.278  1.00  0.00    -0.320 N 
ATOM     13  H3  UNL     1      -1.203  -0.089  -2.240  1.00  0.00     0.181 HD
BRANCH  12  14
HETATM   14  N4  UNL     1      -2.274   0.984  -0.788  1.00  0.00    -0.312 N 
HETATM   15  C10 UNL     1      -3.288   0.440  -0.196  1.00  0.00     0.007 C 
HETATM   16  C11 UNL     1      -4.380   1.316   0.286  1.00  0.00     0.080 C 
HETATM   17  C14 UNL     1      -3.399  -1.020   0.018  1.00  0.00     0.080 C 
HETATM   18  C12 UNL     1      -5.720   0.634   0.292  1.00  0.00     0.173 C 
HETATM   19  O4  UNL     1      -5.541  -0.639   0.878  1.00  0.00    -0.390 OA
HETATM   20  C13 UNL     1      -4.858  -1.398  -0.088  1.00  0.00     0.173 C 
ATOM     21  H4  UNL     1      -2.263   1.998  -0.901  1.00  0.00     0.186 HD
ENDBRANCH  12  14
ENDBRANCH  11  12
BRANCH  11  22
HETATM   22  C15 UNL     1       0.549   1.282  -0.090  1.00  0.00     0.006 A 
HETATM   23  C16 UNL     1       1.397   1.863  -1.061  1.00  0.00     0.012 A 
HETATM   24  C17 UNL     1       2.037   3.060  -0.871  1.00  0.00     0.001 A 
HETATM   25  C18 UNL     1       1.864   3.738   0.299  1.00  0.00     0.002 A 
HETATM   26  C19 UNL     1       1.053   3.212   1.263  1.00  0.00     0.037 A 
HETATM   27  C20 UNL     1       0.384   1.973   1.077  1.00  0.00     0.111 A 
BRANCH  27  28
HETATM   28  N5  UNL     1      -0.467   1.519   2.102  1.00  0.00    -0.115 N 
HETATM   29  O5  UNL     1      -0.665   0.376   2.430  1.00  0.00    -0.532 OA
HETATM   30  O6  UNL     1      -1.138   2.506   2.830  1.00  0.00    -0.532 OA
ENDBRANCH  27  28
ENDBRANCH  11  22
ENDBRANCH   9  11
ENDBRANCH   8   9
BRANCH   5  31
HETATM   31  N2  UNL     1       5.814  -2.864   1.097  1.00  0.00    -0.116 N 
HETATM   32  O1  UNL     1       6.008  -2.769   2.328  1.00  0.00    -0.532 OA
HETATM   33  O2  UNL     1       6.774  -3.456   0.350  1.00  0.00    -0.532 OA
ENDBRANCH   5  31
TORSDOF 7
