REMARK  7 active torsions:
REMARK  status: ('A' for Active; 'I' for Inactive)
REMARK    1  A    between atoms: C1_2  and  C2_3 
REMARK       I    between atoms: C1_2  and  N4_23 
REMARK    2  A    between atoms: C2_3  and  S1_4 
REMARK    3  A    between atoms: S1_4  and  C3_5 
REMARK    4  A    between atoms: C4_10  and  C5_11 
REMARK    5  A    between atoms: N3_16  and  C9_17 
REMARK    6  A    between atoms: C9_17  and  C10_18 
REMARK    7  A    between atoms: N4_23  and  C14_25 
ROOT
HETATM    1  C3  UNL     1      -0.736   0.067   1.040  1.00  0.00     0.163 A 
HETATM    2  N1  UNL     1      -0.536   1.146   1.790  1.00  0.00    -0.278 N 
ATOM      3  H1  UNL     1       0.201   1.259   2.486  1.00  0.00     0.189 HD
HETATM    4  N2  UNL     1      -1.437   2.034   1.489  1.00  0.00    -0.281 N 
ATOM      5  H2  UNL     1      -1.521   2.958   1.912  1.00  0.00     0.188 HD
HETATM    6  C4  UNL     1      -2.240   1.541   0.532  1.00  0.00     0.159 A 
HETATM    7  N3  UNL     1      -1.820   0.320   0.242  1.00  0.00    -0.307 N 
ENDROOT
BRANCH   1   8
HETATM    8  S1  UNL     1       0.222  -1.425   1.069  1.00  0.00    -0.083 SA
BRANCH   8   9
HETATM    9  C2  UNL     1       1.555  -1.336   2.255  1.00  0.00     0.185 C 
BRANCH   9  10
HETATM   10  C1  UNL     1       2.570  -0.307   1.798  1.00  0.00     0.232 C 
HETATM   11  O1  UNL     1       2.407   0.857   2.211  1.00  0.00    -0.272 OA
HETATM   12  N4  UNL     1       3.596  -0.742   0.961  1.00  0.00    -0.324 N 
ATOM     13  H4  UNL     1       3.606  -1.729   0.703  1.00  0.00     0.169 HD
BRANCH  12  14
HETATM   14  C14 UNL     1       4.621   0.075   0.443  1.00  0.00     0.071 A 
HETATM   15  C15 UNL     1       4.801   1.407   0.641  1.00  0.00     0.032 A 
HETATM   16  C16 UNL     1       5.861   2.138   0.077  1.00  0.00     0.005 A 
HETATM   17  C17 UNL     1       6.779   1.502  -0.723  1.00  0.00     0.040 A 
HETATM   18  C18 UNL     1       6.624   0.157  -0.943  1.00  0.00     0.107 A 
HETATM   19  C19 UNL     1       5.588  -0.537  -0.385  1.00  0.00     0.131 A 
HETATM   20  O5  UNL     1       7.382  -0.748  -1.694  1.00  0.00    -0.323 OA
HETATM   21  O4  UNL     1       5.708  -1.854  -0.791  1.00  0.00    -0.321 OA
HETATM   22  C20 UNL     1       7.000  -2.066  -1.325  1.00  0.00     0.352 C 
ENDBRANCH  12  14
ENDBRANCH   9  10
ENDBRANCH   8   9
ENDBRANCH   1   8
BRANCH   7  23
HETATM   23  C9  UNL     1      -2.327  -0.613  -0.720  1.00  0.00     0.165 C 
BRANCH  23  24
HETATM   24  C10 UNL     1      -3.283  -1.640  -0.120  1.00  0.00     0.140 C 
HETATM   25  C11 UNL     1      -3.777  -2.583  -1.187  1.00  0.00     0.035 C 
HETATM   26  C12 UNL     1      -5.069  -1.956  -1.613  1.00  0.00     0.029 C 
HETATM   27  C13 UNL     1      -5.521  -1.352  -0.283  1.00  0.00     0.168 C 
HETATM   28  O3  UNL     1      -4.381  -1.066   0.411  1.00  0.00    -0.384 OA
ENDBRANCH  23  24
ENDBRANCH   7  23
BRANCH   6  29
HETATM   29  C5  UNL     1      -3.363   2.295  -0.067  1.00  0.00     0.120 A 
HETATM   30  C6  UNL     1      -3.784   3.558   0.296  1.00  0.00     0.043 A 
HETATM   31  C7  UNL     1      -4.856   3.918  -0.495  1.00  0.00     0.027 A 
HETATM   32  C8  UNL     1      -5.050   2.836  -1.326  1.00  0.00     0.142 A 
HETATM   33  O2  UNL     1      -4.146   1.911  -1.033  1.00  0.00    -0.319 OA
ENDBRANCH   6  29
TORSDOF 7
