REMARK  6 active torsions:
REMARK  status: ('A' for Active; 'I' for Inactive)
REMARK    1  A    between atoms: C3_8  and  N3_9 
REMARK    2  A    between atoms: N5_15  and  C8_16 
REMARK    3  A    between atoms: C9_17  and  C10_18 
REMARK    4  A    between atoms: C10_18  and  C11_19 
REMARK    5  A    between atoms: C11_19  and  C12_20 
REMARK    6  A    between atoms: C12_20  and  N6_21 
ROOT
HETATM    1  N1  UNL     1       1.499  -1.913   0.934  1.00  0.00    -0.370 N 
ATOM      2  H11 UNL     1       2.188  -1.338   1.418  1.00  0.00     0.159 HD
ATOM      3  H12 UNL     1       1.672  -2.917   0.990  1.00  0.00     0.159 HD
HETATM    4  C1  UNL     1       0.522  -1.402   0.318  1.00  0.00     0.191 C 
HETATM    5  N2  UNL     1      -0.462  -2.223  -0.373  1.00  0.00    -0.358 N 
ATOM      6  H2  UNL     1      -0.479  -3.241  -0.317  1.00  0.00     0.162 HD
HETATM    7  C2  UNL     1      -1.423  -1.447  -1.155  1.00  0.00     0.177 C 
HETATM    8  C3  UNL     1      -2.020  -0.445  -0.233  1.00  0.00     0.353 C 
HETATM    9  N4  UNL     1      -1.070   0.447   0.382  1.00  0.00    -0.094 NA
HETATM   10  N5  UNL     1       0.283  -0.018   0.241  1.00  0.00    -0.239 N 
ENDROOT
BRANCH  10  11
HETATM   11  C8  UNL     1       1.251   0.994   0.048  1.00  0.00     0.111 C 
HETATM   12  C9  UNL     1       2.216   1.416   1.036  1.00  0.00    -0.008 C 
BRANCH  12  13
HETATM   13  C10 UNL     1       3.377   0.711   1.560  1.00  0.00     0.030 C 
BRANCH  13  14
HETATM   14  C11 UNL     1       4.540   0.423   0.697  1.00  0.00     0.031 C 
BRANCH  14  15
HETATM   15  C12 UNL     1       4.454  -0.402  -0.506  1.00  0.00     0.230 C 
BRANCH  15  16
HETATM   16  N6  UNL     1       5.765  -0.525  -1.175  1.00  0.00    -0.079 N 
ATOM     17  H63 UNL     1       6.167   0.390  -1.379  1.00  0.00     0.274 HD
ATOM     18  H62 UNL     1       6.479  -0.873  -0.535  1.00  0.00     0.274 HD
ATOM     19  H61 UNL     1       5.705  -1.101  -2.015  1.00  0.00     0.274 HD
ENDBRANCH  15  16
ENDBRANCH  14  15
ENDBRANCH  13  14
ENDBRANCH  12  13
ENDBRANCH  10  11
BRANCH   8  20
HETATM   20  N3  UNL     1      -3.061   0.378  -0.799  1.00  0.00     0.111 N 
HETATM   21  C4  UNL     1      -4.235  -0.294  -1.233  1.00  0.00     0.275 C 
HETATM   22  C5  UNL     1      -5.204  -0.259  -0.088  1.00  0.00     0.032 C 
HETATM   23  C6  UNL     1      -4.878   1.072   0.564  1.00  0.00     0.032 C 
HETATM   24  C7  UNL     1      -3.493   1.419   0.112  1.00  0.00     0.275 C 
ENDBRANCH   8  20
TORSDOF 6
