REMARK  5 active torsions:
REMARK  status: ('A' for Active; 'I' for Inactive)
REMARK    1  A    between atoms: C2_2  and  C3_3 
REMARK    2  A    between atoms: C3_3  and  C5_5 
REMARK    3  A    between atoms: C5_5  and  C6_6 
REMARK    4  A    between atoms: C8_8  and  O1_9 
REMARK    5  A    between atoms: C11_13  and  O2_14 
ROOT
HETATM    1  C6  UNL     1       0.295   0.499  -0.136  1.00  0.00     0.134 C 
HETATM    2  C7  UNL     1       0.043  -0.946  -0.382  1.00  0.00     0.064 C 
HETATM    3  C8  UNL     1      -1.294  -1.238  -1.034  1.00  0.00     0.120 C 
HETATM    4  C9  UNL     1      -2.366  -1.512  -0.004  1.00  0.00     0.034 C 
HETATM    5  C10 UNL     1      -3.676  -0.881  -0.281  1.00  0.00     0.034 C 
HETATM    6  C11 UNL     1      -3.756   0.596  -0.268  1.00  0.00     0.127 C 
HETATM    7  C12 UNL     1      -2.814   1.294   0.681  1.00  0.00     0.142 C 
HETATM    8  C13 UNL     1      -1.738   2.019  -0.043  1.00  0.00     0.261 C 
HETATM    9  O3  UNL     1      -1.852   3.270  -0.107  1.00  0.00    -0.265 OA
HETATM   10  O4  UNL     1      -0.735   1.339  -0.576  1.00  0.00    -0.316 OA
ENDROOT
BRANCH   1  11
HETATM   11  C5  UNL     1       1.652   1.006  -0.440  1.00  0.00     0.037 C 
BRANCH  11  12
HETATM   12  C3  UNL     1       2.835   0.478   0.287  1.00  0.00    -0.017 C 
HETATM   13  C4  UNL     1       4.086   1.290  -0.130  1.00  0.00     0.010 C 
BRANCH  12  14
HETATM   14  C2  UNL     1       3.143  -0.975   0.179  1.00  0.00    -0.000 C 
HETATM   15  C1  UNL     1       4.363  -1.286   1.099  1.00  0.00     0.005 C 
ENDBRANCH  12  14
ENDBRANCH  11  12
ENDBRANCH   1  11
BRANCH   3  16
HETATM   16  O1  UNL     1      -1.640  -0.343  -2.007  1.00  0.00    -0.395 OA
ATOM     17  H1  UNL     1      -2.478  -0.526  -2.416  1.00  0.00     0.210 HD
ENDBRANCH   3  16
BRANCH   6  18
HETATM   18  O2  UNL     1      -5.106   0.929   0.004  1.00  0.00    -0.395 OA
ATOM     19  H2  UNL     1      -5.157   1.878   0.012  1.00  0.00     0.210 HD
ENDBRANCH   6  18
TORSDOF 5
