REMARK  11 active torsions:
REMARK  status: ('A' for Active; 'I' for Inactive)
REMARK    1  A    between atoms: N1_1  and  C1_4 
REMARK    2  A    between atoms: C3_9  and  C4_10 
REMARK    3  A    between atoms: N4_11  and  N5_13 
REMARK    4  A    between atoms: C6_15  and  C7_16 
REMARK    5  A    between atoms: C7_16  and  C8_17 
REMARK    6  A    between atoms: C8_17  and  N6_18 
REMARK    7  A    between atoms: N6_18  and  C9_21 
REMARK    8  A    between atoms: C9_21  and  C10_22 
REMARK    9  A    between atoms: C10_22  and  N7_23 
REMARK   10  A    between atoms: C10_22  and  N8_27 
REMARK   11  A    between atoms: C11_35  and  N11_36 
ROOT
HETATM    1  N5  UNL     1      -0.679   0.835   0.823  1.00  0.00    -0.192 N 
HETATM    2  C5  UNL     1      -0.145   0.863  -0.422  1.00  0.00     0.164 A 
HETATM    3  C6  UNL     1       1.245   0.902  -0.314  1.00  0.00     0.048 A 
HETATM    4  N9  UNL     1       1.501   0.896   0.992  1.00  0.00    -0.287 N 
ATOM      5  H9  UNL     1       2.428   0.919   1.417  1.00  0.00     0.188 HD
HETATM    6  N10 UNL     1       0.335   0.855   1.656  1.00  0.00    -0.222 N 
ATOM      7  H10 UNL     1       0.249   0.841   2.672  1.00  0.00     0.210 HD
ENDROOT
BRANCH   1   8
HETATM    8  N4  UNL     1      -2.072   0.790   1.114  1.00  0.00    -0.289 N 
HETATM    9  C4  UNL     1      -2.816   0.235   0.199  1.00  0.00     0.128 C 
ATOM     10  H4  UNL     1      -2.461   1.166   1.979  1.00  0.00     0.188 HD
BRANCH   9  11
HETATM   11  C3  UNL     1      -4.260   0.109   0.342  1.00  0.00     0.067 A 
HETATM   12  C2  UNL     1      -5.051  -0.480  -0.621  1.00  0.00     0.147 A 
HETATM   13  N2  UNL     1      -6.385  -0.574  -0.476  1.00  0.00    -0.178 N 
HETATM   14  N3  UNL     1      -4.386  -0.993  -1.775  1.00  0.00    -0.081 NA
HETATM   15  C1  UNL     1      -7.028  -0.104   0.608  1.00  0.00     0.678 A 
ATOM     16  H2  UNL     1      -6.929  -1.018  -1.216  1.00  0.00     0.185 HD
HETATM   17  N12 UNL     1      -6.271   0.477   1.563  1.00  0.00    -0.176 N 
HETATM   18  C11 UNL     1      -4.931   0.594   1.463  1.00  0.00     0.129 A 
ATOM     19  H12 UNL     1      -6.732   0.843   2.396  1.00  0.00     0.186 HD
BRANCH  15  20
HETATM   20  N1  UNL     1      -8.304  -0.200   0.748  1.00  0.00    -0.234 N 
ATOM     21  H12 UNL     1      -8.876  -0.639   0.026  1.00  0.00     0.174 HD
ATOM     22  H11 UNL     1      -8.792   0.156   1.570  1.00  0.00     0.174 HD
ENDBRANCH  15  20
BRANCH  18  23
HETATM   23  N11 UNL     1      -4.205   1.141   2.365  1.00  0.00    -0.384 N 
ATOM     24 2H11 UNL     1      -3.192   1.229   2.289  1.00  0.00     0.157 HD
ATOM     25 1H11 UNL     1      -4.696   1.496   3.185  1.00  0.00     0.157 HD
ENDBRANCH  18  23
ENDBRANCH   9  11
ENDBRANCH   1   8
BRANCH   3  26
HETATM   26  C7  UNL     1       2.159   0.933  -1.463  1.00  0.00     0.087 C 
BRANCH  26  27
HETATM   27  C8  UNL     1       3.598   0.957  -1.142  1.00  0.00     0.238 C 
BRANCH  27  28
HETATM   28  N6  UNL     1       4.129  -0.137  -0.399  1.00  0.00    -0.071 N 
ATOM     29  H62 UNL     1       3.700  -0.246   0.520  1.00  0.00     0.277 HD
ATOM     30  H61 UNL     1       3.861  -1.047  -0.774  1.00  0.00     0.277 HD
BRANCH  28  31
HETATM   31  C9  UNL     1       5.574   0.059  -0.340  1.00  0.00     0.294 C 
BRANCH  31  32
HETATM   32  C10 UNL     1       6.301  -1.017   0.393  1.00  0.00     0.403 C 
BRANCH  32  33
HETATM   33  N7  UNL     1       5.901  -1.154   1.770  1.00  0.00    -0.049 N 
ATOM     34  H73 UNL     1       5.988  -0.264   2.260  1.00  0.00     0.276 HD
ATOM     35  H72 UNL     1       4.892  -1.290   1.840  1.00  0.00     0.276 HD
ATOM     36  H71 UNL     1       6.398  -1.890   2.271  1.00  0.00     0.276 HD
ENDBRANCH  32  33
BRANCH  32  37
HETATM   37  N8  UNL     1       6.203  -2.280  -0.324  1.00  0.00    -0.049 N 
ATOM     38  H83 UNL     1       5.233  -2.536  -0.509  1.00  0.00     0.276 HD
ATOM     39  H82 UNL     1       6.525  -2.194  -1.288  1.00  0.00     0.276 HD
ATOM     40  H81 UNL     1       6.700  -3.016   0.177  1.00  0.00     0.276 HD
ENDBRANCH  32  37
ENDBRANCH  31  32
ENDBRANCH  28  31
ENDBRANCH  27  28
ENDBRANCH  26  27
ENDBRANCH   3  26
TORSDOF 11
