REMARK  4 active torsions:
REMARK  status: ('A' for Active; 'I' for Inactive)
REMARK    1  A    between atoms: C2_2  and  C4_4 
REMARK    2  A    between atoms: C4_4  and  S1_5 
REMARK    3  A    between atoms: S1_5  and  C5_6 
REMARK    4  A    between atoms: C7_8  and  N1_9 
ROOT
HETATM    1  C5  UNL     1       1.923   0.297   0.480  1.00  0.00     0.079 A 
HETATM    2  C6  UNL     1       2.185   0.873  -0.851  1.00  0.00     0.051 A 
HETATM    3  C7  UNL     1       2.916  -0.384  -0.392  1.00  0.00     0.198 A 
ENDROOT
BRANCH   1   4
HETATM    4  S1  UNL     1       0.427  -0.628   0.848  1.00  0.00    -0.162 SA
BRANCH   4   5
HETATM    5  C4  UNL     1      -0.890  -0.362  -0.360  1.00  0.00     0.078 C 
BRANCH   5   6
HETATM    6  C2  UNL     1      -2.205  -0.447   0.384  1.00  0.00    -0.013 C 
HETATM    7  C1  UNL     1      -2.277   0.709   1.349  1.00  0.00     0.010 C 
HETATM    8  C3  UNL     1      -3.393  -0.522  -0.534  1.00  0.00     0.010 C 
ENDBRANCH   5   6
ENDBRANCH   4   5
ENDBRANCH   1   4
BRANCH   3   9
HETATM    9  N1  UNL     1       4.333  -0.203  -0.212  1.00  0.00    -0.074 N 
ATOM     10  H13 UNL     1       4.526   0.798  -0.241  1.00  0.00     0.274 HD
ATOM     11  H12 UNL     1       4.557  -0.434   0.756  1.00  0.00     0.274 HD
ATOM     12  H11 UNL     1       5.014  -0.670  -0.810  1.00  0.00     0.274 HD
ENDBRANCH   3   9
TORSDOF 4
