REMARK  4 active torsions:
REMARK  status: ('A' for Active; 'I' for Inactive)
REMARK    1  A    between atoms: C4_5  and  C5_6 
REMARK    2  A    between atoms: C8_9  and  C9_10 
REMARK    3  A    between atoms: C9_10  and  C10_15 
REMARK    4  A    between atoms: N2_11  and  O1_13 
ROOT
HETATM    1  C1  UNL     1       5.704  -1.318   0.249  1.00  0.00     0.060 C 
HETATM    2  C2  UNL     1       4.374  -0.706  -0.060  1.00  0.00     0.019 C 
HETATM    3  C3  UNL     1       4.239   0.165  -1.192  1.00  0.00     0.094 C 
HETATM    4  N1  UNL     1       4.146   0.858  -2.130  1.00  0.00    -0.192 NA
HETATM    5  C4  UNL     1       3.320  -0.974   0.670  1.00  0.00     0.029 C 
ENDROOT
BRANCH   5   6
HETATM    6  C5  UNL     1       1.979  -0.455   0.490  1.00  0.00    -0.032 A 
HETATM    7  C6  UNL     1       0.906  -1.320   0.524  1.00  0.00     0.012 A 
HETATM    8  C7  UNL     1      -0.391  -0.809   0.369  1.00  0.00     0.018 A 
HETATM    9  C8  UNL     1      -0.670   0.506   0.184  1.00  0.00     0.032 A 
HETATM   10  C14 UNL     1       0.435   1.356   0.154  1.00  0.00     0.129 A 
HETATM   11  F1  UNL     1       0.257   2.685  -0.025  1.00  0.00    -0.205 F 
HETATM   12  C15 UNL     1       1.729   0.874   0.306  1.00  0.00     0.054 A 
BRANCH   9  13
HETATM   13  C9  UNL     1      -1.999   1.078   0.002  1.00  0.00     0.084 C 
HETATM   14  N2  UNL     1      -2.006   2.364  -0.201  1.00  0.00    -0.267 N 
ATOM     15  H2  UNL     1      -1.082   2.797  -0.206  1.00  0.00     0.194 HD
BRANCH  14  16
HETATM   16  O1  UNL     1      -2.991   3.192  -0.399  1.00  0.00    -0.289 OA
ATOM     17  H1  UNL     1      -2.996   4.130  -0.547  1.00  0.00     0.244 HD
ENDBRANCH  14  16
BRANCH  13  18
HETATM   18  C10 UNL     1      -3.238   0.312   0.027  1.00  0.00     0.035 A 
HETATM   19  C11 UNL     1      -4.510   0.749  -0.217  1.00  0.00     0.023 A 
HETATM   20  C12 UNL     1      -5.502  -0.145  -0.108  1.00  0.00     0.028 A 
HETATM   21  C13 UNL     1      -5.184  -1.426   0.237  1.00  0.00     0.052 A 
HETATM   22 BR1  UNL     1      -6.374  -2.918   0.471  1.00  0.00    -0.043 Br
HETATM   23  S1  UNL     1      -3.496  -1.329   0.396  1.00  0.00    -0.081 SA
ENDBRANCH  13  18
ENDBRANCH   9  13
ENDBRANCH   5   6
TORSDOF 4
