REMARK  4 active torsions:
REMARK  status: ('A' for Active; 'I' for Inactive)
REMARK    1  A    between atoms: C2_2  and  C3_3 
REMARK    2  A    between atoms: C2_2  and  N2_6 
REMARK       I    between atoms: N2_6  and  C5_8 
REMARK    3  A    between atoms: C5_8  and  C6_10 
REMARK       I    between atoms: N3_13  and  C9_14 
REMARK    4  A    between atoms: C9_14  and  C10_16 
ROOT
HETATM    1  C3  UNL     1       6.723  -0.978  -0.019  1.00  0.00     0.148 C 
HETATM    2  C4  UNL     1       8.058  -0.878   0.577  1.00  0.00     0.061 C 
HETATM    3  N1  UNL     1       9.121  -0.819   1.058  1.00  0.00    -0.197 NA
ENDROOT
BRANCH   1   4
HETATM    4  C2  UNL     1       5.880   0.163   0.510  1.00  0.00     0.093 C 
HETATM    5  C1  UNL     1       6.568   1.452   0.102  1.00  0.00     0.033 C 
BRANCH   4   6
HETATM    6  N2  UNL     1       4.523   0.100   0.076  1.00  0.00    -0.356 N 
HETATM    7  C5  UNL     1       3.457  -0.018   1.011  1.00  0.00     0.222 C 
HETATM    8  O1  UNL     1       3.726  -0.067   2.236  1.00  0.00    -0.273 OA
ATOM      9  H2  UNL     1       4.313   0.140  -0.921  1.00  0.00     0.162 HD
BRANCH   7  10
HETATM   10  C6  UNL     1       2.040  -0.086   0.606  1.00  0.00     0.081 C 
HETATM   11  C7  UNL     1       1.757  -1.267  -0.295  1.00  0.00     0.034 C 
HETATM   12  C8  UNL     1       0.233  -1.301  -0.483  1.00  0.00     0.126 C 
HETATM   13  N3  UNL     1      -0.250   0.024  -0.755  1.00  0.00    -0.352 N 
HETATM   14  C9  UNL     1      -1.569   0.498  -0.601  1.00  0.00     0.225 C 
HETATM   15  C20 UNL     1       0.791   0.949  -1.245  1.00  0.00     0.126 C 
HETATM   16  O2  UNL     1      -1.783   1.721  -0.938  1.00  0.00    -0.273 OA
HETATM   17  C21 UNL     1       1.698   1.226  -0.078  1.00  0.00     0.034 C 
BRANCH  14  18
HETATM   18  C10 UNL     1      -2.718  -0.295  -0.083  1.00  0.00     0.093 C 
HETATM   19  C11 UNL     1      -2.858  -0.290   1.398  1.00  0.00    -0.035 C 
HETATM   20  C12 UNL     1      -2.972  -1.705   1.948  1.00  0.00     0.015 C 
HETATM   21  C13 UNL     1      -1.627   0.319   2.059  1.00  0.00     0.015 C 
HETATM   22  C14 UNL     1      -4.038   0.500   1.910  1.00  0.00     0.010 C 
HETATM   23  C15 UNL     1      -4.481   1.614   1.007  1.00  0.00     0.002 C 
HETATM   24  C16 UNL     1      -4.746   1.184  -0.399  1.00  0.00     0.010 C 
HETATM   25  C17 UNL     1      -3.983  -0.028  -0.832  1.00  0.00    -0.035 C 
HETATM   26  C18 UNL     1      -3.615   0.113  -2.316  1.00  0.00     0.015 C 
HETATM   27  C19 UNL     1      -4.910  -1.222  -0.738  1.00  0.00     0.015 C 
ENDBRANCH  14  18
ENDBRANCH   7  10
ENDBRANCH   4   6
ENDBRANCH   1   4
TORSDOF 4
