REMARK  5 active torsions:
REMARK  status: ('A' for Active; 'I' for Inactive)
REMARK    1  A    between atoms: C2_2  and  C3_3 
REMARK    2  A    between atoms: C3_3  and  N1_6 
REMARK    3  A    between atoms: N1_6  and  C6_8 
REMARK    4  A    between atoms: C11_13  and  C12_14 
REMARK       I    between atoms: C12_14  and  N2_16 
REMARK    5  A    between atoms: N2_16  and  N3_18 
ROOT
HETATM    1  C6  UNL     1       0.468  -0.608   0.267  1.00  0.00     0.044 A 
HETATM    2  C7  UNL     1      -0.030  -1.847   0.692  1.00  0.00     0.030 A 
HETATM    3  C8  UNL     1       0.720  -2.998   0.598  1.00  0.00     0.002 A 
HETATM    4  C9  UNL     1       1.976  -2.918   0.077  1.00  0.00     0.001 A 
HETATM    5  C10 UNL     1       2.478  -1.713  -0.345  1.00  0.00     0.019 A 
HETATM    6  C11 UNL     1       1.755  -0.517  -0.272  1.00  0.00     0.060 A 
ENDROOT
BRANCH   1   7
HETATM    7  N1  UNL     1      -0.255   0.584   0.470  1.00  0.00    -0.381 N 
ATOM      8  H1  UNL     1       0.317   1.427   0.512  1.00  0.00     0.160 HD
BRANCH   7   9
HETATM    9  C3  UNL     1      -1.667   0.808   0.628  1.00  0.00     0.022 C 
HETATM   10  C4  UNL     1      -2.151   0.252   1.922  1.00  0.00     0.038 C 
HETATM   11  C5  UNL     1      -1.824   2.373   0.860  1.00  0.00     0.038 C 
BRANCH   9  12
HETATM   12  C2  UNL     1      -2.514   0.558  -0.564  1.00  0.00     0.025 C 
HETATM   13  C1  UNL     1      -2.809  -0.816  -0.988  1.00  0.00     0.007 C 
ENDBRANCH   9  12
ENDBRANCH   7   9
ENDBRANCH   1   7
BRANCH   6  14
HETATM   14  C12 UNL     1       2.346   0.694  -0.829  1.00  0.00     0.271 C 
HETATM   15  O1  UNL     1       1.767   1.798  -0.950  1.00  0.00    -0.266 OA
HETATM   16  N2  UNL     1       3.684   0.693  -1.291  1.00  0.00    -0.272 N 
ATOM     17  H2  UNL     1       4.259  -0.148  -1.244  1.00  0.00     0.189 HD
BRANCH  16  18
HETATM   18  N3  UNL     1       4.196   1.906  -1.823  1.00  0.00    -0.342 N 
ATOM     19  H32 UNL     1       3.608   2.739  -1.864  1.00  0.00     0.176 HD
ATOM     20  H31 UNL     1       5.160   1.905  -2.156  1.00  0.00     0.176 HD
ENDBRANCH  16  18
ENDBRANCH   6  14
TORSDOF 5
