REMARK  14 active torsions:
REMARK  status: ('A' for Active; 'I' for Inactive)
REMARK    1  A    between atoms: C2_2  and  C3_3 
REMARK    2  A    between atoms: C3_3  and  C4_4 
REMARK    3  A    between atoms: C3_3  and  N1_7 
REMARK    4  A    between atoms: N1_7  and  C5_8 
REMARK    5  A    between atoms: N1_7  and  C10_14 
REMARK    6  A    between atoms: C5_8  and  C6_9 
REMARK    7  A    between atoms: C6_9  and  C7_10 
REMARK    8  A    between atoms: C10_14  and  O3_15 
REMARK    9  A    between atoms: C10_14  and  C11_17 
REMARK   10  A    between atoms: C11_17  and  C12_18 
REMARK   11  A    between atoms: C11_17  and  N3_22 
REMARK   12  A    between atoms: C12_18  and  C13_19 
REMARK   13  A    between atoms: C13_19  and  C14_20 
REMARK       I    between atoms: N3_22  and  C15_24 
REMARK       I    between atoms: C15_24  and  N5_28 
REMARK   14  A    between atoms: N5_28  and  C16_30 
ROOT
HETATM    1  C11 UNL     1      -0.098  -0.136  -1.071  1.00  0.00     0.077 C 
ENDROOT
BRANCH   1   2
HETATM    2  C10 UNL     1      -1.231  -0.862  -1.478  1.00  0.00     0.162 C 
BRANCH   2   3
HETATM    3  N1  UNL     1      -2.427  -1.274  -0.866  1.00  0.00    -0.345 N 
BRANCH   3   4
HETATM    4  C3  UNL     1      -3.286  -2.170  -1.681  1.00  0.00     0.187 C 
BRANCH   4   5
HETATM    5  C2  UNL     1      -4.568  -1.548  -2.119  1.00  0.00     0.032 C 
HETATM    6  C1  UNL     1      -4.428  -0.262  -2.872  1.00  0.00     0.007 C 
ENDBRANCH   4   5
BRANCH   4   7
HETATM    7  C4  UNL     1      -3.512  -3.441  -0.994  1.00  0.00     0.196 C 
HETATM    8  O1  UNL     1      -2.990  -3.846   0.060  1.00  0.00    -0.646 OA
HETATM    9  O2  UNL     1      -4.433  -4.349  -1.570  1.00  0.00    -0.646 OA
ENDBRANCH   4   7
ENDBRANCH   3   4
BRANCH   3  10
HETATM   10  C5  UNL     1      -2.866  -0.917   0.427  1.00  0.00     0.130 C 
BRANCH  10  11
HETATM   11  C6  UNL     1      -3.650   0.374   0.555  1.00  0.00     0.048 C 
BRANCH  11  12
HETATM   12  C7  UNL     1      -4.006   0.615   2.001  1.00  0.00    -0.004 C 
HETATM   13  C8  UNL     1      -3.643   1.697   2.641  1.00  0.00     0.016 C 
HETATM   14  C9  UNL     1      -4.034   1.856   4.060  1.00  0.00     0.064 C 
HETATM   15  N2  UNL     1      -2.888   2.727   2.028  1.00  0.00    -0.108 NA
ENDBRANCH  11  12
ENDBRANCH  10  11
ENDBRANCH   3  10
ENDBRANCH   2   3
BRANCH   2  16
HETATM   16  O3  UNL     1      -1.144  -1.245  -2.761  1.00  0.00    -0.345 OA
ATOM     17  H3  UNL     1      -0.335  -0.966  -3.175  1.00  0.00     0.219 HD
ENDBRANCH   2  16
ENDBRANCH   1   2
BRANCH   1  18
HETATM   18  C12 UNL     1       0.320   0.258   0.267  1.00  0.00     0.063 C 
BRANCH  18  19
HETATM   19  C13 UNL     1       0.863  -0.964   1.014  1.00  0.00     0.017 C 
BRANCH  19  20
HETATM   20  C14 UNL     1       1.348  -0.577   2.369  1.00  0.00     0.085 C 
HETATM   21 BR1  UNL     1      -0.025   0.186   3.467  1.00  0.00    -0.097 Br
ENDBRANCH  19  20
ENDBRANCH  18  19
ENDBRANCH   1  18
BRANCH   1  22
HETATM   22  N3  UNL     1       0.790   0.137  -2.016  1.00  0.00    -0.192 N 
HETATM   23  C15 UNL     1       1.975   0.836  -1.860  1.00  0.00     0.672 C 
HETATM   24  N4  UNL     1       2.057   2.130  -1.807  1.00  0.00    -0.235 N 
HETATM   25  N5  UNL     1       3.193   0.094  -1.769  1.00  0.00    -0.222 N 
ATOM     26  H42 UNL     1       1.188   2.660  -1.872  1.00  0.00     0.174 HD
ATOM     27  H41 UNL     1       2.930   2.645  -1.692  1.00  0.00     0.174 HD
ATOM     28  H5  UNL     1       3.397  -0.626  -2.462  1.00  0.00     0.178 HD
ATOM     29  H3  UNL     1       0.579  -0.203  -2.954  1.00  0.00     0.184 HD
BRANCH  25  30
HETATM   30  C16 UNL     1       4.137   0.350  -0.709  1.00  0.00     0.099 C 
HETATM   31  C17 UNL     1       5.265  -0.656  -0.857  1.00  0.00     0.026 C 
HETATM   32  C18 UNL     1       6.319  -0.471   0.212  1.00  0.00     0.002 C 
HETATM   33  C19 UNL     1       6.257   0.940   0.794  1.00  0.00     0.000 C 
HETATM   34  C20 UNL     1       6.108   1.861  -0.410  1.00  0.00     0.002 C 
HETATM   35  C21 UNL     1       4.648   1.766  -0.845  1.00  0.00     0.026 C 
ENDBRANCH  25  30
ENDBRANCH   1  22
TORSDOF 14
