REMARK  5 active torsions:
REMARK  status: ('A' for Active; 'I' for Inactive)
REMARK    1  A    between atoms: C5_5  and  C6_6 
REMARK    2  A    between atoms: C9_9  and  O1_10 
REMARK    3  A    between atoms: C10_12  and  C11_13 
REMARK    4  A    between atoms: C18_24  and  O3_25 
REMARK    5  A    between atoms: C19_27  and  O4_28 
ROOT
HETATM    1  C1  UNL     1       0.303  -2.443  -0.559  1.00  0.00     0.050 C 
HETATM    2  C2  UNL     1      -0.292  -1.106  -0.330  1.00  0.00    -0.037 A 
HETATM    3  C3  UNL     1      -1.663  -0.963  -0.204  1.00  0.00    -0.018 A 
HETATM    4  C4  UNL     1      -2.291   0.299  -0.123  1.00  0.00    -0.003 A 
HETATM    5  C5  UNL     1      -1.506   1.464  -0.146  1.00  0.00     0.009 A 
HETATM    6  C9  UNL     1      -0.124   1.314  -0.270  1.00  0.00     0.087 A 
HETATM    7  C10 UNL     1       0.467   0.034  -0.363  1.00  0.00     0.038 A 
HETATM    8  C18 UNL     1      -3.757   0.490  -0.189  1.00  0.00     0.182 C 
HETATM    9  C19 UNL     1      -4.566  -0.770   0.039  1.00  0.00     0.155 C 
HETATM   10  C20 UNL     1      -3.820  -1.942  -0.664  1.00  0.00     0.069 C 
HETATM   11  C21 UNL     1      -2.555  -2.084   0.103  1.00  0.00    -0.070 C 
HETATM   12  C22 UNL     1      -2.123  -3.432   0.451  1.00  0.00     0.044 C 
ENDROOT
BRANCH   7  13
HETATM   13  C11 UNL     1       1.929  -0.003  -0.477  1.00  0.00     0.360 C 
HETATM   14  N1  UNL     1       2.582   1.044   0.280  1.00  0.00    -0.037 N 
HETATM   15  C12 UNL     1       3.660   0.385   0.922  1.00  0.00     0.223 C 
ATOM     16  H12 UNL     1       2.858   1.853  -0.276  1.00  0.00     0.281 HD
ATOM     17  H11 UNL     1       1.964   1.550   0.914  1.00  0.00     0.281 HD
HETATM   18  C13 UNL     1       5.043   0.893   0.765  1.00  0.00     0.036 C 
HETATM   19  C16 UNL     1       3.786  -0.847   0.037  1.00  0.00     0.088 C 
HETATM   20  C14 UNL     1       5.827  -0.414   1.000  1.00  0.00     0.005 C 
HETATM   21  C15 UNL     1       4.797  -1.551   0.857  1.00  0.00     0.040 C 
HETATM   22  C17 UNL     1       4.307  -0.573  -1.325  1.00  0.00     0.048 C 
HETATM   23  O2  UNL     1       2.468  -1.203   0.110  1.00  0.00    -0.342 OA
ENDBRANCH   7  13
BRANCH   6  24
HETATM   24  O1  UNL     1       0.699   2.398  -0.303  1.00  0.00    -0.359 OA
ATOM     25  H1  UNL     1       1.640   2.296  -0.387  1.00  0.00     0.217 HD
ENDBRANCH   6  24
BRANCH   5  26
HETATM   26  C6  UNL     1      -2.158   2.760  -0.029  1.00  0.00    -0.074 C 
HETATM   27  C7  UNL     1      -2.327   3.184   1.444  1.00  0.00     0.044 C 
HETATM   28  C8  UNL     1      -3.087   3.357  -0.976  1.00  0.00     0.044 C 
ENDBRANCH   5  26
BRANCH   8  29
HETATM   29  O3  UNL     1      -4.086   0.705  -1.599  1.00  0.00    -0.388 OA
ATOM     30  H3  UNL     1      -5.027   0.828  -1.641  1.00  0.00     0.210 HD
ENDBRANCH   8  29
BRANCH   9  31
HETATM   31  O4  UNL     1      -4.735  -1.095   1.350  1.00  0.00    -0.392 OA
ATOM     32  H4  UNL     1      -5.242  -1.885   1.493  1.00  0.00     0.210 HD
ENDBRANCH   9  31
TORSDOF 5
