REMARK  23 active torsions:
REMARK  status: ('A' for Active; 'I' for Inactive)
REMARK    1  A    between atoms: C2_2  and  N1_3 
REMARK    2  A    between atoms: C3_4  and  C4_5 
REMARK    3  A    between atoms: C4_5  and  N2_6 
REMARK    4  A    between atoms: N2_6  and  C5_8 
REMARK    5  A    between atoms: C7_12  and  C8_13 
REMARK       I    between atoms: N4_15  and  C9_16 
REMARK    6  A    between atoms: C9_16  and  C10_18 
REMARK    7  A    between atoms: C16_24  and  C17_25 
REMARK    8  A    between atoms: C17_25  and  O2_26 
REMARK    9  A    between atoms: C17_25  and  C18_28 
REMARK   10  A    between atoms: C19_29  and  C20_30 
REMARK   11  A    between atoms: C20_30  and  C22_32 
REMARK   12  A    between atoms: C22_32  and  O3_33 
REMARK   13  A    between atoms: C22_32  and  C23_35 
REMARK   14  A    between atoms: C23_35  and  C24_36 
REMARK   15  A    between atoms: C26_38  and  N5_39 
REMARK   16  A    between atoms: N5_39  and  C27_40 
REMARK   17  A    between atoms: N5_39  and  C29_42 
REMARK   18  A    between atoms: N5_39  and  C30_45 
REMARK   19  A    between atoms: C29_42  and  O4_43 
REMARK   20  A    between atoms: C30_45  and  C31_46 
REMARK   21  A    between atoms: C31_46  and  C32_47 
REMARK   22  A    between atoms: C32_47  and  O5_48 
REMARK   23  A    between atoms: C33_50  and  O6_51 
ROOT
HETATM    1  C17 UNL     1      -1.041   0.773   1.106  1.00  0.00     0.159 C 
ENDROOT
BRANCH   1   2
HETATM    2  C16 UNL     1      -2.031   0.694   0.003  1.00  0.00     0.095 C 
HETATM    3  N1  UNL     1      -3.381   0.431   0.477  1.00  0.00    -0.279 NA
HETATM    4  C3  UNL     1      -4.278   0.503  -0.616  1.00  0.00     0.004 C 
HETATM    5  C13 UNL     1      -4.022  -0.675  -1.520  1.00  0.00     0.052 C 
HETATM    6  C14 UNL     1      -2.722  -1.368  -1.126  1.00  0.00     0.007 C 
HETATM    7  C15 UNL     1      -1.627  -0.332  -0.990  1.00  0.00     0.023 C 
BRANCH   3   8
HETATM    8  C2  UNL     1      -3.704   1.146   1.660  1.00  0.00     0.091 C 
HETATM    9  C1  UNL     1      -3.668   2.648   1.516  1.00  0.00     0.021 C 
ENDBRANCH   3   8
BRANCH   4  10
HETATM   10  C4  UNL     1      -5.672   0.902  -0.418  1.00  0.00     0.125 C 
BRANCH  10  11
HETATM   11  N2  UNL     1      -6.545   0.211   0.435  1.00  0.00    -0.200 N 
ATOM     12  H2  UNL     1      -6.835   0.742   1.256  1.00  0.00     0.183 HD
BRANCH  11  13
HETATM   13  C5  UNL     1      -7.094  -1.088   0.361  1.00  0.00     0.683 C 
HETATM   14  N3  UNL     1      -6.419  -2.107   0.794  1.00  0.00    -0.224 N 
HETATM   15  C6  UNL     1      -7.141  -3.337   0.629  1.00  0.00     0.166 C 
ATOM     16  H3  UNL     1      -5.487  -2.042   1.203  1.00  0.00     0.177 HD
HETATM   17  C7  UNL     1      -8.176  -2.940  -0.459  1.00  0.00     0.158 C 
HETATM   18  N4  UNL     1      -8.348  -1.548  -0.096  1.00  0.00    -0.142 N 
HETATM   19  C9  UNL     1      -9.534  -0.803  -0.166  1.00  0.00     0.242 C 
HETATM   20  O1  UNL     1     -10.578  -1.409  -0.627  1.00  0.00    -0.272 OA
BRANCH  17  21
HETATM   21  C8  UNL     1      -9.374  -3.812  -0.303  1.00  0.00     0.250 C 
HETATM   22  F1  UNL     1      -9.955  -3.682   0.936  1.00  0.00    -0.253 F 
ENDBRANCH  17  21
BRANCH  19  23
HETATM   23  C10 UNL     1      -9.761   0.596   0.216  1.00  0.00     0.071 C 
HETATM   24  C11 UNL     1      -9.351   1.558  -0.869  1.00  0.00     0.019 C 
HETATM   25  C12 UNL     1     -11.248   0.866   0.485  1.00  0.00     0.019 C 
ENDBRANCH  19  23
ENDBRANCH  11  13
ENDBRANCH  10  11
ENDBRANCH   4  10
ENDBRANCH   1   2
BRANCH   1  26
HETATM   26  O2  UNL     1      -0.980  -0.431   1.846  1.00  0.00    -0.390 OA
ATOM     27  H2  UNL     1      -0.346  -0.380   2.552  1.00  0.00     0.210 HD
ENDBRANCH   1  26
BRANCH   1  28
HETATM   28  C18 UNL     1       0.306   1.069   0.567  1.00  0.00     0.003 C 
HETATM   29  C19 UNL     1       0.550   1.653  -0.572  1.00  0.00    -0.021 C 
BRANCH  29  30
HETATM   30  C20 UNL     1       1.900   1.951  -1.107  1.00  0.00     0.033 C 
HETATM   31  C21 UNL     1       1.904   3.400  -1.516  1.00  0.00     0.017 C 
BRANCH  30  32
HETATM   32  C22 UNL     1       3.038   1.569  -0.244  1.00  0.00     0.126 C 
BRANCH  32  33
HETATM   33  O3  UNL     1       3.067   2.190   1.003  1.00  0.00    -0.395 OA
ATOM     34  H3  UNL     1       3.798   1.945   1.558  1.00  0.00     0.210 HD
ENDBRANCH  32  33
BRANCH  32  35
HETATM   35  C23 UNL     1       4.372   1.907  -0.891  1.00  0.00     0.039 C 
BRANCH  35  36
HETATM   36  C24 UNL     1       5.424   1.486   0.079  1.00  0.00     0.021 C 
HETATM   37  C25 UNL     1       6.874   1.743  -0.374  1.00  0.00     0.043 C 
HETATM   38  C26 UNL     1       7.168   0.457   0.413  1.00  0.00     0.222 C 
HETATM   39  C33 UNL     1       5.812  -0.002  -0.032  1.00  0.00     0.153 C 
BRANCH  38  40
HETATM   40  N5  UNL     1       8.328  -0.260   0.090  1.00  0.00    -0.040 N 
BRANCH  40  41
HETATM   41  C27 UNL     1       8.382  -0.804  -1.244  1.00  0.00     0.236 C 
HETATM   42  C28 UNL     1       9.830  -1.166  -1.557  1.00  0.00     0.035 C 
ENDBRANCH  40  41
BRANCH  40  43
HETATM   43  C29 UNL     1       9.458   0.694   0.151  1.00  0.00     0.402 C 
BRANCH  43  44
HETATM   44  O4  UNL     1       9.220   1.631   1.155  1.00  0.00    -0.374 OA
ATOM     45  H4  UNL     1       9.945   2.243   1.194  1.00  0.00     0.211 HD
ENDBRANCH  43  44
ENDBRANCH  40  43
BRANCH  40  46
HETATM   46  C30 UNL     1       8.610  -1.216   1.132  1.00  0.00     0.242 C 
BRANCH  46  47
HETATM   47  C31 UNL     1       8.079  -2.586   0.833  1.00  0.00     0.054 C 
BRANCH  47  48
HETATM   48  C32 UNL     1       8.400  -3.558   1.976  1.00  0.00     0.165 C 
BRANCH  48  49
HETATM   49  O5  UNL     1       7.905  -4.826   1.692  1.00  0.00    -0.401 OA
ATOM     50  H5  UNL     1       8.104  -5.428   2.400  1.00  0.00     0.209 HD
ENDBRANCH  48  49
ENDBRANCH  47  48
ENDBRANCH  46  47
ENDBRANCH  40  46
ENDBRANCH  38  40
BRANCH  39  51
HETATM   51  O6  UNL     1       5.668  -0.388  -1.338  1.00  0.00    -0.393 OA
ATOM     52  H6  UNL     1       5.907  -1.305  -1.406  1.00  0.00     0.210 HD
ENDBRANCH  39  51
ENDBRANCH  35  36
ENDBRANCH  32  35
ENDBRANCH  30  32
ENDBRANCH  29  30
ENDBRANCH   1  28
TORSDOF 23
