REMARK  6 active torsions:
REMARK  status: ('A' for Active; 'I' for Inactive)
REMARK       I    between atoms: C1_2  and  N1_3 
REMARK    1  A    between atoms: C1_2  and  C17_21 
REMARK    2  A    between atoms: N1_3  and  C2_5 
REMARK    3  A    between atoms: C2_5  and  C3_6 
REMARK    4  A    between atoms: N2_9  and  C6_10 
REMARK    5  A    between atoms: C6_10  and  C7_11 
REMARK    6  A    between atoms: C7_11  and  C8_12 
ROOT
HETATM    1  C3  UNL     1       1.889  -0.072   1.467  1.00  0.00     0.027 C 
HETATM    2  C4  UNL     1       1.479  -0.308   0.068  1.00  0.00     0.029 C 
HETATM    3  C5  UNL     1      -0.023  -0.712   0.051  1.00  0.00     0.117 C 
HETATM    4  N2  UNL     1      -0.763   0.462   0.367  1.00  0.00    -0.412 N 
HETATM    5  C15 UNL     1      -0.219   1.300   1.379  1.00  0.00     0.117 C 
HETATM    6  C16 UNL     1       0.694   0.491   2.261  1.00  0.00     0.029 C 
ENDROOT
BRANCH   1   7
HETATM    7  C2  UNL     1       3.086   0.747   1.757  1.00  0.00     0.068 C 
BRANCH   7   8
HETATM    8  N1  UNL     1       4.357   0.351   1.300  1.00  0.00    -0.338 N 
HETATM    9  C1  UNL     1       4.858   0.228   0.009  1.00  0.00     0.250 C 
HETATM   10  O1  UNL     1       4.217   0.487  -1.023  1.00  0.00    -0.270 OA
ATOM     11  H1  UNL     1       5.020   0.115   2.038  1.00  0.00     0.167 HD
BRANCH   9  12
HETATM   12  C17 UNL     1       6.269  -0.249  -0.234  1.00  0.00     0.213 C 
HETATM   13  C18 UNL     1       7.294   0.702   0.294  1.00  0.00     0.044 C 
HETATM   14  C19 UNL     1       8.552   0.182  -0.413  1.00  0.00     0.029 C 
HETATM   15  C20 UNL     1       7.932  -0.624  -1.540  1.00  0.00     0.168 C 
HETATM   16  O2  UNL     1       6.583  -0.317  -1.571  1.00  0.00    -0.376 OA
ENDBRANCH   9  12
ENDBRANCH   7   8
ENDBRANCH   1   7
BRANCH   4  17
HETATM   17  C6  UNL     1      -2.180   0.320   0.339  1.00  0.00     0.117 C 
BRANCH  17  18
HETATM   18  C7  UNL     1      -2.619   0.121  -1.086  1.00  0.00     0.024 C 
BRANCH  18  19
HETATM   19  C8  UNL     1      -4.122  -0.052  -1.233  1.00  0.00    -0.013 C 
HETATM   20  C9  UNL     1      -4.816   1.157  -0.712  1.00  0.00     0.005 C 
HETATM   21  C10 UNL     1      -6.113   1.337  -1.459  1.00  0.00     0.000 C 
HETATM   22  C11 UNL     1      -6.831   0.015  -1.481  1.00  0.00     0.000 C 
HETATM   23  C12 UNL     1      -6.907  -0.555  -0.098  1.00  0.00     0.000 C 
HETATM   24  C13 UNL     1      -5.678  -1.305   0.317  1.00  0.00     0.000 C 
HETATM   25  C14 UNL     1      -4.601  -1.360  -0.709  1.00  0.00     0.005 C 
ENDBRANCH  18  19
ENDBRANCH  17  18
ENDBRANCH   4  17
TORSDOF 6
