REMARK  5 active torsions:
REMARK  status: ('A' for Active; 'I' for Inactive)
REMARK    1  A    between atoms: C2_2  and  S1_3 
REMARK    2  A    between atoms: S1_3  and  C3_4 
REMARK    3  A    between atoms: C5_12  and  C7_14 
REMARK       I    between atoms: C7_14  and  N3_16 
REMARK    4  A    between atoms: N3_16  and  C8_18 
REMARK    5  A    between atoms: C8_18  and  C9_19 
ROOT
HETATM    1  C7  UNL     1       1.215   0.709   0.259  1.00  0.00     0.246 C 
HETATM    2  O3  UNL     1       1.526   1.753   0.889  1.00  0.00    -0.271 OA
HETATM    3  N3  UNL     1      -0.151   0.370   0.132  1.00  0.00    -0.358 N 
ATOM      4  H3  UNL     1      -0.400  -0.477  -0.379  1.00  0.00     0.162 HD
ENDROOT
BRANCH   1   5
HETATM    5  C5  UNL     1       2.314  -0.103  -0.313  1.00  0.00     0.126 C 
HETATM    6  N2  UNL     1       1.862  -1.261  -1.005  1.00  0.00    -0.279 N 
HETATM    7  S2  UNL     1       2.731  -2.690  -0.658  1.00  0.00     0.322 S 
HETATM    8  C4  UNL     1       1.555  -1.044  -2.372  1.00  0.00     0.166 C 
HETATM    9  N1  UNL     1       4.337  -2.207  -0.312  1.00  0.00    -0.265 N 
HETATM   10  O1  UNL     1       2.788  -3.555  -1.904  1.00  0.00    -0.182 OA
HETATM   11  O2  UNL     1       2.149  -3.457   0.493  1.00  0.00    -0.182 OA
HETATM   12  C3  UNL     1       4.466  -1.140   0.380  1.00  0.00     0.061 C 
ATOM     13  H1  UNL     1       5.143  -2.739  -0.639  1.00  0.00     0.180 HD
HETATM   14  C19 UNL     1       3.264  -0.423   0.816  1.00  0.00     0.106 C 
HETATM   15  C6  UNL     1       3.057   0.786  -1.288  1.00  0.00     0.050 C 
BRANCH  12  16
HETATM   16  S1  UNL     1       6.106  -0.554   0.794  1.00  0.00    -0.116 SA
BRANCH  16  17
HETATM   17  C2  UNL     1       5.949   0.966   1.770  1.00  0.00     0.076 C 
HETATM   18  C1  UNL     1       7.298   1.506   2.147  1.00  0.00     0.016 C 
ENDBRANCH  16  17
ENDBRANCH  12  16
ENDBRANCH   1   5
BRANCH   3  19
HETATM   19  C8  UNL     1      -1.201   1.171   0.694  1.00  0.00     0.132 C 
BRANCH  19  20
HETATM   20  C9  UNL     1      -2.545   0.575   0.406  1.00  0.00    -0.023 C 
HETATM   21  C10 UNL     1      -3.636   1.441   1.011  1.00  0.00     0.015 C 
HETATM   22  C11 UNL     1      -4.993   0.876   0.693  1.00  0.00    -0.013 C 
HETATM   23  C12 UNL     1      -5.143  -0.527   1.226  1.00  0.00     0.009 C 
HETATM   24  C16 UNL     1      -5.237   0.824  -0.804  1.00  0.00     0.009 C 
HETATM   25  C13 UNL     1      -4.039  -1.367   0.624  1.00  0.00    -0.013 C 
HETATM   26  C14 UNL     1      -4.209  -1.439  -0.869  1.00  0.00     0.009 C 
HETATM   27  C18 UNL     1      -2.684  -0.813   0.958  1.00  0.00     0.015 C 
HETATM   28  C15 UNL     1      -4.139  -0.033  -1.411  1.00  0.00    -0.013 C 
HETATM   29  C17 UNL     1      -2.796   0.550  -1.092  1.00  0.00     0.015 C 
ENDBRANCH  19  20
ENDBRANCH   3  19
TORSDOF 5
