REMARK  11 active torsions:
REMARK  status: ('A' for Active; 'I' for Inactive)
REMARK    1  A    between atoms: C1_2  and  C2_3 
REMARK    2  A    between atoms: C2_3  and  C3_4 
REMARK    3  A    between atoms: C3_4  and  C4_5 
REMARK    4  A    between atoms: C4_5  and  C5_6 
REMARK    5  A    between atoms: C5_6  and  C6_7 
REMARK    6  A    between atoms: C7_8  and  C8_9 
REMARK    7  A    between atoms: C8_9  and  C9_10 
REMARK    8  A    between atoms: C9_10  and  C10_11 
REMARK    9  A    between atoms: C10_11  and  C11_12 
REMARK   10  A    between atoms: C11_12  and  C12_13 
REMARK   11  A    between atoms: C12_13  and  C13_14 
ROOT
HETATM    1  C9  UNL     1      -0.487  -2.277   0.966  1.00  0.00     0.004 C 
ENDROOT
BRANCH   1   2
HETATM    2  C8  UNL     1       0.330  -2.092  -0.301  1.00  0.00     0.027 C 
BRANCH   2   3
HETATM    3  C7  UNL     1       0.747  -0.683  -0.441  1.00  0.00    -0.031 C 
HETATM    4  C6  UNL     1       1.978  -0.263  -0.490  1.00  0.00    -0.031 C 
BRANCH   4   5
HETATM    5  C5  UNL     1       3.181  -1.085  -0.418  1.00  0.00     0.027 C 
BRANCH   5   6
HETATM    6  C4  UNL     1       4.012  -0.685   0.774  1.00  0.00     0.004 C 
BRANCH   6   7
HETATM    7  C3  UNL     1       4.411   0.737   0.698  1.00  0.00     0.007 C 
BRANCH   7   8
HETATM    8  C2  UNL     1       5.213   1.018  -0.525  1.00  0.00     0.069 C 
BRANCH   8   9
HETATM    9  C1  UNL     1       5.590   2.467  -0.501  1.00  0.00     0.231 C 
HETATM   10  O1  UNL     1       5.249   3.193   0.402  1.00  0.00    -0.307 OA
ENDBRANCH   8   9
ENDBRANCH   7   8
ENDBRANCH   6   7
ENDBRANCH   5   6
ENDBRANCH   4   5
ENDBRANCH   2   3
ENDBRANCH   1   2
BRANCH   1  11
HETATM   11  C10 UNL     1      -1.735  -1.452   1.022  1.00  0.00     0.001 C 
BRANCH  11  12
HETATM   12  C11 UNL     1      -2.650  -1.794  -0.094  1.00  0.00     0.006 C 
BRANCH  12  13
HETATM   13  C12 UNL     1      -3.948  -1.067  -0.131  1.00  0.00     0.052 C 
BRANCH  13  14
HETATM   14  C13 UNL     1      -3.870   0.400  -0.254  1.00  0.00    -0.018 C 
HETATM   15  N1  UNL     1      -2.890   1.185  -0.352  1.00  0.00    -0.396 N 
HETATM   16  C14 UNL     1      -3.284   2.563  -0.450  1.00  0.00     0.119 C 
ATOM     17  H1  UNL     1      -1.918   0.875  -0.361  1.00  0.00     0.159 HD
HETATM   18  C15 UNL     1      -4.646   2.526   0.262  1.00  0.00     0.025 C 
HETATM   19  C16 UNL     1      -5.151   1.209  -0.286  1.00  0.00     0.053 C 
ENDBRANCH  13  14
ENDBRANCH  12  13
ENDBRANCH  11  12
ENDBRANCH   1  11
TORSDOF 11
