REMARK  9 active torsions:
REMARK  status: ('A' for Active; 'I' for Inactive)
REMARK       I    between atoms: C1_2  and  N1_3 
REMARK       I    between atoms: C1_2  and  N3_23 
REMARK    1  A    between atoms: N1_3  and  C2_5 
REMARK    2  A    between atoms: C2_5  and  C3_6 
REMARK    3  A    between atoms: C3_6  and  C4_7 
REMARK    4  A    between atoms: C4_7  and  C5_8 
REMARK    5  A    between atoms: C5_8  and  O2_9 
REMARK    6  A    between atoms: O2_9  and  C6_10 
REMARK    7  A    between atoms: C9_13  and  C10_14 
REMARK    8  A    between atoms: C10_14  and  O3_15 
REMARK    9  A    between atoms: N2_17  and  O4_19 
ROOT
HETATM    1  C5  UNL     1       0.371   1.017  -1.022  1.00  0.00     0.172 C 
ENDROOT
BRANCH   1   2
HETATM    2  C4  UNL     1      -0.468   1.862  -0.040  1.00  0.00     0.054 C 
BRANCH   2   3
HETATM    3  C3  UNL     1      -0.633   1.193   1.258  1.00  0.00    -0.007 C 
BRANCH   3   4
HETATM    4  C2  UNL     1      -1.331  -0.083   1.424  1.00  0.00     0.089 C 
BRANCH   4   5
HETATM    5  N1  UNL     1      -2.709  -0.208   1.195  1.00  0.00    -0.319 N 
HETATM    6  C1  UNL     1      -3.470  -0.071   0.046  1.00  0.00     0.322 C 
HETATM    7  O1  UNL     1      -2.974   0.199  -1.066  1.00  0.00    -0.247 OA
HETATM    8  N3  UNL     1      -4.897  -0.231   0.050  1.00  0.00    -0.329 N 
HETATM    9  C13 UNL     1      -5.779  -0.112  -1.079  1.00  0.00     0.132 C 
HETATM   10  C16 UNL     1      -5.731  -0.534   1.134  1.00  0.00     0.089 C 
HETATM   11  C14 UNL     1      -7.080  -0.390  -0.364  1.00  0.00     0.007 C 
HETATM   12  C15 UNL     1      -6.686  -1.570   0.515  1.00  0.00     0.031 C 
HETATM   13  C17 UNL     1      -6.898   0.444   0.910  1.00  0.00     0.031 C 
ATOM     14  H1  UNL     1      -3.250  -0.443   2.027  1.00  0.00     0.169 HD
ENDBRANCH   4   5
ENDBRANCH   3   4
ENDBRANCH   2   3
ENDBRANCH   1   2
BRANCH   1  15
HETATM   15  O2  UNL     1       1.603   0.861  -0.390  1.00  0.00    -0.386 OA
BRANCH  15  16
HETATM   16  C6  UNL     1       2.503   0.109  -1.147  1.00  0.00     0.121 C 
HETATM   17  C7  UNL     1       2.870  -1.116  -0.387  1.00  0.00     0.033 C 
HETATM   18  C8  UNL     1       4.083  -1.026   0.468  1.00  0.00     0.015 C 
HETATM   19  C9  UNL     1       5.100  -0.032   0.060  1.00  0.00     0.062 C 
HETATM   20  C11 UNL     1       4.980   0.330  -1.415  1.00  0.00     0.015 C 
HETATM   21  C12 UNL     1       3.626   0.997  -1.532  1.00  0.00     0.033 C 
BRANCH  19  22
HETATM   22  C10 UNL     1       6.460  -0.588   0.250  1.00  0.00     0.139 C 
HETATM   23  N2  UNL     1       7.292  -0.010   1.045  1.00  0.00    -0.251 N 
ATOM     24  H2  UNL     1       7.023   0.835   1.550  1.00  0.00     0.196 HD
BRANCH  22  25
HETATM   25  O3  UNL     1       6.811  -1.737  -0.443  1.00  0.00    -0.348 OA
ATOM     26  H3  UNL     1       7.683  -2.094  -0.321  1.00  0.00     0.219 HD
ENDBRANCH  22  25
BRANCH  23  27
HETATM   27  O4  UNL     1       8.544  -0.545   1.204  1.00  0.00    -0.288 OA
ATOM     28  H4  UNL     1       9.158  -0.119   1.790  1.00  0.00     0.244 HD
ENDBRANCH  23  27
ENDBRANCH  19  22
ENDBRANCH  15  16
ENDBRANCH   1  15
TORSDOF 9
