REMARK  8 active torsions:
REMARK  status: ('A' for Active; 'I' for Inactive)
REMARK    1  A    between atoms: C8_8  and  O1_9 
REMARK    2  A    between atoms: C10_12  and  N1_13 
REMARK    3  A    between atoms: N1_13  and  C11_15 
REMARK    4  A    between atoms: C11_15  and  C12_16 
REMARK    5  A    between atoms: C12_16  and  C14_18 
REMARK    6  A    between atoms: C14_18  and  C15_20 
REMARK    7  A    between atoms: C15_20  and  C16_21 
REMARK    8  A    between atoms: C16_21  and  C18_23 
ROOT
HETATM    1  N1  UNL     1      -1.012   0.666   1.249  1.00  0.00    -0.415 N 
ATOM      2  H1  UNL     1      -0.841   0.847   2.238  1.00  0.00     0.153 HD
ENDROOT
BRANCH   1   3
HETATM    3  C10 UNL     1      -2.149   1.213   0.662  1.00  0.00     0.087 C 
HETATM    4  C5  UNL     1      -3.230   0.319   0.175  1.00  0.00    -0.018 C 
HETATM    5  C4  UNL     1      -3.163   0.184  -1.321  1.00  0.00     0.012 C 
HETATM    6  C6  UNL     1      -3.296  -1.048   0.752  1.00  0.00     0.015 C 
HETATM    7  C7  UNL     1      -4.492   1.126   0.507  1.00  0.00     0.043 C 
HETATM    8  C3  UNL     1      -3.199  -1.265  -1.671  1.00  0.00     0.005 C 
HETATM    9  C2  UNL     1      -3.483  -1.995  -0.412  1.00  0.00    -0.018 C 
HETATM   10  C1  UNL     1      -4.865  -2.627  -0.384  1.00  0.00     0.010 C 
HETATM   11  C8  UNL     1      -4.135   1.736   1.863  1.00  0.00     0.120 C 
HETATM   12  C9  UNL     1      -2.751   2.251   1.583  1.00  0.00     0.057 C 
BRANCH  11  13
HETATM   13  O1  UNL     1      -5.006   2.728   2.250  1.00  0.00    -0.395 OA
ATOM     14  H1  UNL     1      -4.784   3.107   3.092  1.00  0.00     0.210 HD
ENDBRANCH  11  13
ENDBRANCH   1   3
BRANCH   1  15
HETATM   15  C11 UNL     1      -0.094  -0.119   0.547  1.00  0.00     0.126 C 
BRANCH  15  16
HETATM   16  C12 UNL     1       0.663   0.797  -0.430  1.00  0.00     0.068 C 
HETATM   17  C13 UNL     1       1.340   1.835   0.446  1.00  0.00     0.019 C 
BRANCH  16  18
HETATM   18  C14 UNL     1       1.646   0.016  -1.219  1.00  0.00     0.132 C 
HETATM   19  O2  UNL     1       1.531   0.008  -2.431  1.00  0.00    -0.298 OA
BRANCH  18  20
HETATM   20  C15 UNL     1       2.747  -0.744  -0.604  1.00  0.00     0.083 C 
BRANCH  20  21
HETATM   21  C16 UNL     1       4.057   0.033  -0.552  1.00  0.00    -0.004 C 
HETATM   22  C17 UNL     1       4.535   0.422  -1.909  1.00  0.00     0.011 C 
BRANCH  21  23
HETATM   23  C18 UNL     1       5.021  -0.750   0.269  1.00  0.00     0.041 C 
HETATM   24  C19 UNL     1       6.394  -0.136   0.440  1.00  0.00     0.239 C 
HETATM   25  N2  UNL     1       6.931  -1.488   0.420  1.00  0.00    -0.074 N 
HETATM   26  C20 UNL     1       5.766  -1.859  -0.398  1.00  0.00     0.239 C 
ATOM     27  H22 UNL     1       7.882  -1.675   0.102  1.00  0.00     0.277 HD
ATOM     28  H21 UNL     1       7.150  -1.983   1.284  1.00  0.00     0.277 HD
ENDBRANCH  21  23
ENDBRANCH  20  21
ENDBRANCH  18  20
ENDBRANCH  16  18
ENDBRANCH  15  16
ENDBRANCH   1  15
TORSDOF 8
