REMARK  18 active torsions:
REMARK  status: ('A' for Active; 'I' for Inactive)
REMARK    1  A    between atoms: O1_2  and  C2_3 
REMARK    2  A    between atoms: C2_3  and  C3_4 
REMARK    3  A    between atoms: C3_4  and  N1_5 
REMARK    4  A    between atoms: N1_5  and  C4_8 
REMARK    5  A    between atoms: C4_8  and  C5_9 
REMARK    6  A    between atoms: C5_9  and  C6_10 
REMARK    7  A    between atoms: C6_10  and  C7_11 
REMARK    8  A    between atoms: C7_11  and  C8_12 
REMARK    9  A    between atoms: C8_12  and  C9_13 
REMARK   10  A    between atoms: C9_13  and  O2_14 
REMARK   11  A    between atoms: O2_14  and  C10_15 
REMARK   12  A    between atoms: C11_16  and  O3_17 
REMARK   13  A    between atoms: C15_21  and  N2_22 
REMARK   14  A    between atoms: N2_22  and  C16_23 
REMARK   15  A    between atoms: C16_23  and  C17_24 
REMARK   16  A    between atoms: C23_32  and  N4_33 
REMARK   17  A    between atoms: C25_35  and  N5_36 
REMARK       I    between atoms: N5_36  and  C26_38 
REMARK   18  A    between atoms: C28_44  and  N8_45 
REMARK       I    between atoms: N8_45  and  C29_47 
ROOT
HETATM    1  C10 UNL     1       1.356   0.483  -0.508  1.00  0.00     0.143 A 
HETATM    2  C11 UNL     1       1.310   1.701   0.113  1.00  0.00     0.105 A 
HETATM    3  C13 UNL     1       0.053   2.181   0.441  1.00  0.00     0.058 A 
HETATM    4  C14 UNL     1      -1.115   1.505   0.179  1.00  0.00     0.056 A 
HETATM    5  C15 UNL     1      -2.364   2.025   0.539  1.00  0.00     0.205 A 
HETATM    6  N3  UNL     1      -3.500   1.278   0.261  1.00  0.00    -0.163 N 
ATOM      7  H3  UNL     1      -4.423   1.633   0.513  1.00  0.00     0.187 HD
HETATM    8  C23 UNL     1      -3.377   0.096  -0.337  1.00  0.00     0.683 A 
HETATM    9  N10 UNL     1      -2.206  -0.409  -0.689  1.00  0.00    -0.188 N 
ATOM     10  H10 UNL     1      -2.161  -1.319  -1.148  1.00  0.00     0.184 HD
HETATM   11  C31 UNL     1      -1.066   0.282  -0.440  1.00  0.00     0.105 A 
HETATM   12  C32 UNL     1       0.175  -0.223  -0.783  1.00  0.00     0.180 A 
HETATM   13  F1  UNL     1       0.260  -1.417  -1.396  1.00  0.00    -0.201 F 
ENDROOT
BRANCH   8  14
HETATM   14  N4  UNL     1      -4.597  -0.680  -0.597  1.00  0.00    -0.214 N 
HETATM   15  C24 UNL     1      -4.425  -1.916  -1.309  1.00  0.00     0.166 C 
HETATM   16  C25 UNL     1      -5.450  -2.941  -1.028  1.00  0.00     0.104 C 
HETATM   17  C27 UNL     1      -6.836  -2.358  -0.818  1.00  0.00     0.053 C 
HETATM   18  C28 UNL     1      -6.822  -1.296   0.204  1.00  0.00     0.106 C 
HETATM   19  C30 UNL     1      -5.853  -0.207  -0.162  1.00  0.00     0.166 C 
BRANCH  16  20
HETATM   20  N5  UNL     1      -5.579  -3.882  -2.117  1.00  0.00    -0.359 N 
HETATM   21  C26 UNL     1      -6.550  -4.889  -2.045  1.00  0.00     0.182 C 
HETATM   22  N6  UNL     1      -7.541  -4.941  -2.877  1.00  0.00    -0.374 N 
HETATM   23  N7  UNL     1      -6.461  -5.874  -1.042  1.00  0.00    -0.064 NA
ATOM     24  H62 UNL     1      -7.605  -4.228  -3.603  1.00  0.00     0.158 HD
ATOM     25  H61 UNL     1      -8.248  -5.674  -2.825  1.00  0.00     0.158 HD
ATOM     26  H5  UNL     1      -4.968  -3.814  -2.931  1.00  0.00     0.162 HD
ENDBRANCH  16  20
BRANCH  18  27
HETATM   27  N8  UNL     1      -6.508  -1.733   1.557  1.00  0.00    -0.339 N 
HETATM   28  C29 UNL     1      -7.302  -1.378   2.676  1.00  0.00     0.329 C 
HETATM   29  N9  UNL     1      -6.958  -1.842   3.956  1.00  0.00    -0.040 NA
HETATM   30  O4  UNL     1      -8.313  -0.649   2.476  1.00  0.00    -0.251 OA
ATOM     31  H8  UNL     1      -5.685  -2.317   1.705  1.00  0.00     0.164 HD
ENDBRANCH  18  27
ENDBRANCH   8  14
BRANCH   5  32
HETATM   32  N2  UNL     1      -2.495   3.082   0.999  1.00  0.00    -0.398 NA
BRANCH  32  33
HETATM   33  C16 UNL     1      -2.635   4.295   1.527  1.00  0.00     0.196 C 
BRANCH  33  34
HETATM   34  C17 UNL     1      -3.704   5.149   0.869  1.00  0.00    -0.007 A 
HETATM   35  C18 UNL     1      -3.756   5.219  -0.503  1.00  0.00     0.014 A 
HETATM   36  C19 UNL     1      -4.721   5.968  -1.137  1.00  0.00     0.001 A 
HETATM   37  C20 UNL     1      -5.671   6.678  -0.402  1.00  0.00     0.000 A 
HETATM   38  C21 UNL     1      -5.579   6.578   0.970  1.00  0.00     0.001 A 
HETATM   39  C22 UNL     1      -4.602   5.818   1.622  1.00  0.00     0.014 A 
ENDBRANCH  33  34
ENDBRANCH  32  33
ENDBRANCH   5  32
BRANCH   1  40
HETATM   40  O2  UNL     1       2.561  -0.073  -0.872  1.00  0.00    -0.345 OA
BRANCH  40  41
HETATM   41  C9  UNL     1       3.292  -1.074  -0.269  1.00  0.00     0.176 C 
BRANCH  41  42
HETATM   42  C8  UNL     1       4.575  -1.250  -1.098  1.00  0.00     0.027 C 
BRANCH  42  43
HETATM   43  C7  UNL     1       5.439  -0.056  -0.872  1.00  0.00     0.002 C 
BRANCH  43  44
HETATM   44  C6  UNL     1       6.698  -0.062  -1.707  1.00  0.00     0.002 C 
BRANCH  44  45
HETATM   45  C5  UNL     1       7.495  -1.298  -1.648  1.00  0.00     0.027 C 
BRANCH  45  46
HETATM   46  C4  UNL     1       7.966  -1.739  -0.333  1.00  0.00     0.232 C 
BRANCH  46  47
HETATM   47  N1  UNL     1       8.847  -0.935   0.435  1.00  0.00    -0.073 N 
ATOM     48  H12 UNL     1       8.928  -1.291   1.387  1.00  0.00     0.277 HD
ATOM     49  H11 UNL     1       8.431  -0.025   0.632  1.00  0.00     0.277 HD
BRANCH  47  50
HETATM   50  C3  UNL     1      10.121  -0.789  -0.158  1.00  0.00     0.258 C 
BRANCH  50  51
HETATM   51  C2  UNL     1      10.830  -2.113  -0.259  1.00  0.00     0.194 C 
BRANCH  51  52
HETATM   52  O1  UNL     1      11.018  -2.748   0.927  1.00  0.00    -0.394 OA
HETATM   53  C1  UNL     1      11.764  -2.129   1.880  1.00  0.00     0.201 C 
ENDBRANCH  51  52
ENDBRANCH  50  51
ENDBRANCH  47  50
ENDBRANCH  46  47
ENDBRANCH  45  46
ENDBRANCH  44  45
ENDBRANCH  43  44
ENDBRANCH  42  43
ENDBRANCH  41  42
ENDBRANCH  40  41
ENDBRANCH   1  40
BRANCH   2  54
HETATM   54  O3  UNL     1       2.461   2.425   0.404  1.00  0.00    -0.353 OA
HETATM   55  C12 UNL     1       2.339   3.681   1.050  1.00  0.00     0.210 C 
ENDBRANCH   2  54
TORSDOF 18
