REMARK  9 active torsions:
REMARK  status: ('A' for Active; 'I' for Inactive)
REMARK    1  A    between atoms: N1_7  and  C7_8 
REMARK    2  A    between atoms: C7_8  and  C8_9 
REMARK    3  A    between atoms: C17_18  and  O1_19 
REMARK    4  A    between atoms: N2_22  and  C19_23 
REMARK    5  A    between atoms: C19_23  and  C20_24 
REMARK    6  A    between atoms: C20_24  and  C21_25 
REMARK    7  A    between atoms: C21_25  and  C22_26 
REMARK    8  A    between atoms: C22_26  and  C23_27 
REMARK    9  A    between atoms: C23_27  and  C24_28 
ROOT
HETATM    1  C1  UNL     1       0.322   2.989   0.176  1.00  0.00     0.043 C 
HETATM    2  C2  UNL     1       0.093   1.546   0.053  1.00  0.00    -0.084 C 
HETATM    3  C3  UNL     1       0.829   0.753   0.861  1.00  0.00     0.001 C 
HETATM    4  C4  UNL     1       0.973  -0.713   1.117  1.00  0.00     0.110 C 
HETATM    5  C5  UNL     1      -0.315  -1.339   1.610  1.00  0.00     0.069 C 
HETATM    6  C6  UNL     1      -1.473  -0.424   1.651  1.00  0.00     0.282 C 
HETATM    7  N1  UNL     1      -2.270  -0.294   0.481  1.00  0.00     0.094 N 
HETATM    8  C13 UNL     1      -1.587  -0.123  -0.765  1.00  0.00     0.232 C 
HETATM    9  C14 UNL     1      -0.923   1.217  -0.952  1.00  0.00     0.069 C 
HETATM   10  C15 UNL     1      -0.794  -1.296  -1.231  1.00  0.00     0.039 C 
HETATM   11  C16 UNL     1      -1.228  -2.501  -0.435  1.00  0.00     0.040 C 
HETATM   12  C17 UNL     1      -0.661  -2.622   0.914  1.00  0.00     0.126 C 
HETATM   13  C18 UNL     1       0.698  -1.139  -1.257  1.00  0.00     0.124 C 
HETATM   14  N2  UNL     1       1.361  -1.447  -0.041  1.00  0.00    -0.404 N 
ENDROOT
BRANCH  14  15
HETATM   15  C19 UNL     1       2.733  -1.776  -0.132  1.00  0.00     0.117 C 
BRANCH  15  16
HETATM   16  C20 UNL     1       3.657  -0.591  -0.352  1.00  0.00     0.019 C 
BRANCH  16  17
HETATM   17  C21 UNL     1       5.059  -1.157  -0.415  1.00  0.00     0.002 C 
BRANCH  17  18
HETATM   18  C22 UNL     1       6.108  -0.107  -0.636  1.00  0.00     0.010 C 
BRANCH  18  19
HETATM   19  C23 UNL     1       6.107   0.910   0.468  1.00  0.00     0.113 C 
BRANCH  19  20
HETATM   20  C24 UNL     1       7.168   1.922   0.190  1.00  0.00     0.172 C 
HETATM   21  O2  UNL     1       7.889   1.822  -0.850  1.00  0.00    -0.648 OA
HETATM   22  O3  UNL     1       7.391   2.983   1.048  1.00  0.00    -0.648 OA
ENDBRANCH  19  20
ENDBRANCH  18  19
ENDBRANCH  17  18
ENDBRANCH  16  17
ENDBRANCH  15  16
ENDBRANCH  14  15
BRANCH  12  23
HETATM   23  O1  UNL     1       0.424  -3.528   0.966  1.00  0.00    -0.395 OA
ATOM     24  H1  UNL     1       0.205  -4.341   0.525  1.00  0.00     0.210 HD
ENDBRANCH  12  23
BRANCH   7  25
HETATM   25  C7  UNL     1      -3.300   0.648   0.747  1.00  0.00     0.277 C 
BRANCH  25  26
HETATM   26  C8  UNL     1      -4.297   0.900  -0.322  1.00  0.00     0.014 C 
HETATM   27  C9  UNL     1      -5.268   1.953   0.251  1.00  0.00     0.006 C 
HETATM   28  C10 UNL     1      -6.336   1.081   0.894  1.00  0.00     0.000 C 
HETATM   29  C11 UNL     1      -6.577   0.096  -0.258  1.00  0.00     0.000 C 
HETATM   30  C12 UNL     1      -5.173  -0.312  -0.602  1.00  0.00     0.006 C 
ENDBRANCH  25  26
ENDBRANCH   7  25
TORSDOF 9
