REMARK  8 active torsions:
REMARK  status: ('A' for Active; 'I' for Inactive)
REMARK    1  A    between atoms: S1_2  and  C2_3 
REMARK    2  A    between atoms: C2_3  and  C3_4 
REMARK    3  A    between atoms: C3_4  and  C4_5 
REMARK    4  A    between atoms: C5_8  and  C6_9 
REMARK       I    between atoms: C6_9  and  N2_11 
REMARK    5  A    between atoms: N2_11  and  C7_13 
REMARK    6  A    between atoms: C7_13  and  C8_14 
REMARK    7  A    between atoms: C8_14  and  C9_15 
REMARK    8  A    between atoms: N3_18  and  C12_19 
ROOT
HETATM    1  C6  UNL     1       2.756   0.084   0.796  1.00  0.00     0.240 C 
HETATM    2  O1  UNL     1       2.504   1.009   1.593  1.00  0.00    -0.271 OA
HETATM    3  N2  UNL     1       1.701  -0.697   0.264  1.00  0.00    -0.359 N 
ATOM      4  H2  UNL     1       1.896  -1.459  -0.386  1.00  0.00     0.162 HD
ENDROOT
BRANCH   3   5
HETATM    5  C7  UNL     1       0.341  -0.396   0.658  1.00  0.00     0.123 C 
BRANCH   5   6
HETATM    6  C8  UNL     1      -0.577  -1.372  -0.050  1.00  0.00     0.024 C 
BRANCH   6   7
HETATM    7  C9  UNL     1      -2.017  -1.077   0.336  1.00  0.00    -0.007 C 
HETATM    8  C10 UNL     1      -2.319   0.330  -0.079  1.00  0.00     0.025 C 
HETATM    9  C11 UNL     1      -3.718   0.641  -0.412  1.00  0.00     0.122 C 
HETATM   10  N3  UNL     1      -4.709  -0.294  -0.016  1.00  0.00    -0.389 N 
HETATM   11  C18 UNL     1      -4.339  -1.651   0.025  1.00  0.00     0.059 C 
HETATM   12  C19 UNL     1      -2.953  -1.972  -0.444  1.00  0.00     0.049 C 
BRANCH  10  13
HETATM   13  C12 UNL     1      -6.011  -0.072  -0.522  1.00  0.00     0.083 C 
HETATM   14  C13 UNL     1      -6.632   1.237  -0.084  1.00  0.00     0.025 C 
HETATM   15  C14 UNL     1      -7.908   1.408  -0.882  1.00  0.00     0.002 C 
HETATM   16  C15 UNL     1      -8.802   0.216  -0.833  1.00  0.00     0.000 C 
HETATM   17  C16 UNL     1      -8.304  -0.791   0.182  1.00  0.00     0.002 C 
HETATM   18  C17 UNL     1      -6.896  -1.247  -0.176  1.00  0.00     0.025 C 
ENDBRANCH  10  13
ENDBRANCH   6   7
ENDBRANCH   5   6
ENDBRANCH   3   5
BRANCH   1  19
HETATM   19  C5  UNL     1       4.167  -0.181   0.417  1.00  0.00     0.170 C 
HETATM   20  N1  UNL     1       5.033   0.715   1.055  1.00  0.00    -0.398 N 
HETATM   21  C4  UNL     1       6.443   0.594   0.789  1.00  0.00     0.148 C 
ATOM     22  H1  UNL     1       4.677   1.431   1.688  1.00  0.00     0.154 HD
HETATM   23  C22 UNL     1       6.691  -0.364  -0.346  1.00  0.00     0.149 C 
HETATM   24  C21 UNL     1       5.685  -0.768  -1.351  1.00  0.00     0.083 C 
HETATM   25  O2  UNL     1       7.799  -0.846  -0.460  1.00  0.00    -0.296 OA
HETATM   26  C20 UNL     1       4.351  -0.077  -1.092  1.00  0.00     0.042 C 
BRANCH  21  27
HETATM   27  C3  UNL     1       6.934   1.961   0.427  1.00  0.00     0.043 C 
BRANCH  27  28
HETATM   28  C2  UNL     1       8.372   2.170   0.172  1.00  0.00     0.076 C 
BRANCH  28  29
HETATM   29  S1  UNL     1       9.459   2.039   1.571  1.00  0.00    -0.173 SA
HETATM   30  C1  UNL     1       9.640   0.449   2.325  1.00  0.00     0.089 C 
ENDBRANCH  28  29
ENDBRANCH  27  28
ENDBRANCH  21  27
ENDBRANCH   1  19
TORSDOF 8
