REMARK  10 active torsions:
REMARK  status: ('A' for Active; 'I' for Inactive)
REMARK    1  A    between atoms: C9_9  and  O1_10 
REMARK    2  A    between atoms: C14_16  and  C15_17 
REMARK    3  A    between atoms: C15_17  and  C16_19 
REMARK    4  A    between atoms: C16_19  and  O3_20 
REMARK    5  A    between atoms: O3_20  and  C17_21 
REMARK    6  A    between atoms: C17_21  and  C18_23 
REMARK    7  A    between atoms: C19_24  and  C20_25 
REMARK    8  A    between atoms: C20_25  and  C21_26 
REMARK    9  A    between atoms: C21_26  and  C22_27 
REMARK   10  A    between atoms: C22_27  and  C23_28 
ROOT
HETATM    1  C1  UNL     1      -7.346   1.226   2.133  1.00  0.00     0.014 C 
HETATM    2  C2  UNL     1      -6.537   0.266   1.689  1.00  0.00    -0.085 C 
HETATM    3  C3  UNL     1      -6.347  -1.062   2.319  1.00  0.00     0.034 C 
HETATM    4  C4  UNL     1      -5.026  -1.558   1.845  1.00  0.00     0.010 C 
HETATM    5  C5  UNL     1      -4.416  -0.424   0.992  1.00  0.00     0.002 C 
HETATM    6  C6  UNL     1      -5.650   0.276   0.494  1.00  0.00     0.018 C 
HETATM    7  C7  UNL     1      -6.338  -0.365  -0.641  1.00  0.00     0.012 C 
HETATM    8  C8  UNL     1      -5.498  -1.245  -1.487  1.00  0.00     0.039 C 
HETATM    9  C9  UNL     1      -4.019  -0.946  -1.453  1.00  0.00     0.062 C 
HETATM   10  C10 UNL     1      -3.733   0.281  -2.249  1.00  0.00     0.039 C 
HETATM   11  C11 UNL     1      -2.256   0.632  -2.273  1.00  0.00     0.013 C 
HETATM   12  C12 UNL     1      -1.735   0.723  -0.895  1.00  0.00    -0.026 C 
HETATM   13  C13 UNL     1      -2.203   2.029  -0.291  1.00  0.00     0.016 C 
HETATM   14  C14 UNL     1      -0.239   0.692  -0.747  1.00  0.00     0.066 C 
HETATM   15  C25 UNL     1      -0.114   0.530   0.760  1.00  0.00     0.014 C 
HETATM   16  C26 UNL     1      -1.441  -0.082   1.242  1.00  0.00     0.011 C 
HETATM   17  C27 UNL     1      -2.086  -0.471  -0.043  1.00  0.00    -0.029 C 
HETATM   18  C28 UNL     1      -1.232  -1.641  -0.570  1.00  0.00     0.016 C 
HETATM   19  C29 UNL     1      -3.475  -0.928  -0.035  1.00  0.00     0.034 C 
ENDROOT
BRANCH  14  20
HETATM   20  C15 UNL     1       0.466   1.884  -1.249  1.00  0.00     0.155 C 
HETATM   21  O2  UNL     1      -0.161   2.780  -1.771  1.00  0.00    -0.295 OA
BRANCH  20  22
HETATM   22  C16 UNL     1       1.929   1.991  -1.121  1.00  0.00     0.257 C 
BRANCH  22  23
HETATM   23  O3  UNL     1       2.444   0.852  -0.496  1.00  0.00    -0.311 OA
BRANCH  23  24
HETATM   24  C17 UNL     1       3.840   0.707  -0.252  1.00  0.00     0.282 C 
HETATM   25  O4  UNL     1       4.515   1.667  -0.642  1.00  0.00    -0.260 OA
BRANCH  24  26
HETATM   26  C18 UNL     1       4.329  -0.488   0.398  1.00  0.00     0.078 C 
HETATM   27  C19 UNL     1       5.576  -0.715   0.665  1.00  0.00    -0.021 C 
BRANCH  27  28
HETATM   28  C20 UNL     1       6.741   0.113   0.405  1.00  0.00     0.027 C 
BRANCH  28  29
HETATM   29  C21 UNL     1       7.741  -0.608  -0.512  1.00  0.00     0.004 C 
BRANCH  29  30
HETATM   30  C22 UNL     1       8.918   0.290  -0.759  1.00  0.00    -0.000 C 
BRANCH  30  31
HETATM   31  C23 UNL     1       9.649   0.672   0.503  1.00  0.00    -0.005 C 
HETATM   32  C24 UNL     1      10.156  -0.584   1.193  1.00  0.00     0.005 C 
ENDBRANCH  30  31
ENDBRANCH  29  30
ENDBRANCH  28  29
ENDBRANCH  27  28
ENDBRANCH  24  26
ENDBRANCH  23  24
ENDBRANCH  22  23
ENDBRANCH  20  22
ENDBRANCH  14  20
BRANCH   9  33
HETATM   33  O1  UNL     1      -3.441  -2.021  -2.179  1.00  0.00    -0.389 OA
ATOM     34  H1  UNL     1      -2.510  -1.833  -2.158  1.00  0.00     0.210 HD
ENDBRANCH   9  33
TORSDOF 10
