REMARK  12 active torsions:
REMARK  status: ('A' for Active; 'I' for Inactive)
REMARK    1  A    between atoms: C6_8  and  O3_9 
REMARK    2  A    between atoms: C7_11  and  C8_12 
REMARK    3  A    between atoms: C8_12  and  C9_13 
REMARK    4  A    between atoms: C9_13  and  C10_14 
REMARK    5  A    between atoms: C10_14  and  C11_15 
REMARK    6  A    between atoms: C11_15  and  C12_16 
REMARK    7  A    between atoms: C13_17  and  C14_18 
REMARK    8  A    between atoms: C14_18  and  C15_19 
REMARK    9  A    between atoms: C15_19  and  C16_20 
REMARK   10  A    between atoms: C16_20  and  C17_21 
REMARK   11  A    between atoms: C19_23  and  C21_25 
REMARK   12  A    between atoms: C27_31  and  O4_32 
ROOT
HETATM    1  C1  UNL     1      -5.610  -2.949   0.475  1.00  0.00     0.025 C 
HETATM    2  C2  UNL     1      -4.416  -3.455   0.248  1.00  0.00     0.014 C 
HETATM    3  C3  UNL     1      -4.122  -4.907  -0.018  1.00  0.00     0.289 C 
HETATM    4  O1  UNL     1      -5.054  -5.756   0.047  1.00  0.00    -0.260 OA
HETATM    5  O2  UNL     1      -2.782  -5.028  -0.301  1.00  0.00    -0.311 OA
HETATM    6  C4  UNL     1      -2.255  -3.788  -0.493  1.00  0.00     0.147 C 
HETATM    7  C5  UNL     1      -0.830  -3.539  -0.144  1.00  0.00     0.098 C 
HETATM    8  C6  UNL     1      -0.573  -2.509   0.855  1.00  0.00     0.052 C 
HETATM    9  C7  UNL     1      -0.927  -1.059   0.641  1.00  0.00    -0.020 C 
HETATM   10  C19 UNL     1      -1.898  -0.660  -0.348  1.00  0.00    -0.008 C 
HETATM   11  C20 UNL     1      -1.270  -0.531  -1.720  1.00  0.00     0.021 C 
HETATM   12  C28 UNL     1      -3.089  -1.576  -0.569  1.00  0.00     0.026 C 
HETATM   13  C29 UNL     1      -3.100  -2.823   0.235  1.00  0.00     0.055 C 
ENDROOT
BRANCH   9  14
HETATM   14  C8  UNL     1       0.383  -0.332   0.828  1.00  0.00     0.010 C 
BRANCH  14  15
HETATM   15  C9  UNL     1       0.532   1.081   0.724  1.00  0.00    -0.003 C 
BRANCH  15  16
HETATM   16  C10 UNL     1       1.353   1.701  -0.084  1.00  0.00    -0.023 C 
BRANCH  16  17
HETATM   17  C11 UNL     1       2.309   1.054  -1.051  1.00  0.00     0.054 C 
BRANCH  17  18
HETATM   18  C12 UNL     1       3.668   1.426  -0.663  1.00  0.00    -0.015 C 
HETATM   19  C13 UNL     1       4.576   0.480  -0.287  1.00  0.00     0.047 C 
BRANCH  19  20
HETATM   20  C14 UNL     1       5.856   0.863   0.081  1.00  0.00    -0.156 C 
BRANCH  20  21
HETATM   21  C15 UNL     1       7.005   1.156   0.418  1.00  0.00     0.085 C 
BRANCH  21  22
HETATM   22  C16 UNL     1       8.140   0.357   0.868  1.00  0.00     0.011 C 
BRANCH  22  23
HETATM   23  C17 UNL     1       9.373   0.464   0.017  1.00  0.00    -0.004 C 
HETATM   24  C18 UNL     1       9.904   1.883  -0.045  1.00  0.00     0.005 C 
ENDBRANCH  22  23
ENDBRANCH  21  22
ENDBRANCH  20  21
ENDBRANCH  19  20
ENDBRANCH  17  18
ENDBRANCH  16  17
ENDBRANCH  15  16
ENDBRANCH  14  15
ENDBRANCH   9  14
BRANCH   8  25
HETATM   25  O3  UNL     1      -0.749  -2.926   2.207  1.00  0.00    -0.364 OA
ATOM     26  H3  UNL     1      -0.582  -2.255   2.858  1.00  0.00     0.217 HD
ENDBRANCH   8  25
BRANCH  10  27
HETATM   27  C21 UNL     1      -2.557   0.696  -0.100  1.00  0.00     0.027 C 
HETATM   28  C22 UNL     1      -3.407   0.770   1.119  1.00  0.00     0.009 C 
HETATM   29  C23 UNL     1      -3.639   2.275   1.401  1.00  0.00     0.005 C 
HETATM   30  C24 UNL     1      -4.415   2.778   0.201  1.00  0.00    -0.016 C 
HETATM   31  C25 UNL     1      -5.060   4.102   0.432  1.00  0.00     0.010 C 
HETATM   32  C26 UNL     1      -3.434   2.757  -0.956  1.00  0.00     0.036 C 
HETATM   33  C27 UNL     1      -3.266   1.252  -1.318  1.00  0.00     0.123 C 
BRANCH  33  34
HETATM   34  O4  UNL     1      -4.535   0.823  -1.544  1.00  0.00    -0.395 OA
ATOM     35  H4  UNL     1      -4.980   1.172  -2.308  1.00  0.00     0.210 HD
ENDBRANCH  33  34
ENDBRANCH  10  27
TORSDOF 12
