REMARK  2 active torsions:
REMARK  status: ('A' for Active; 'I' for Inactive)
REMARK    1  A    between atoms: C7_9  and  N2_10 
REMARK    2  A    between atoms: C8_13  and  C9_14 
ROOT
HETATM    1  C1  UNL     1      -3.641   2.038   0.300  1.00  0.00     0.021 C 
HETATM    2  C2  UNL     1      -3.824   0.760   0.100  1.00  0.00    -0.039 C 
HETATM    3  C3  UNL     1      -5.148   0.186  -0.174  1.00  0.00     0.040 C 
HETATM    4  C4  UNL     1      -5.391  -1.094   0.574  1.00  0.00     0.011 C 
HETATM    5  C5  UNL     1      -4.300  -2.099   0.440  1.00  0.00     0.060 C 
HETATM    6  C6  UNL     1      -2.943  -1.512   0.302  1.00  0.00     0.038 A 
HETATM    7  N1  UNL     1      -1.901  -2.343   0.337  1.00  0.00    -0.342 N 
ATOM      8  H1  UNL     1      -2.064  -3.343   0.455  1.00  0.00     0.167 HD
HETATM    9  C7  UNL     1      -0.612  -1.882   0.218  1.00  0.00     0.129 A 
HETATM   10  C8  UNL     1      -0.404  -0.563   0.062  1.00  0.00     0.111 A 
HETATM   11  N4  UNL     1      -1.443   0.306   0.023  1.00  0.00    -0.349 N 
ATOM     12  H4  UNL     1      -1.282   1.306  -0.094  1.00  0.00     0.166 HD
HETATM   13  C16 UNL     1      -2.687  -0.179   0.142  1.00  0.00     0.061 A 
ENDROOT
BRANCH  10  14
HETATM   14  C9  UNL     1       0.971  -0.022  -0.071  1.00  0.00     0.105 A 
HETATM   15  N3  UNL     1       2.151  -0.548  -0.076  1.00  0.00    -0.351 N 
HETATM   16  C10 UNL     1       3.235   0.177  -0.212  1.00  0.00     0.023 A 
ATOM     17  H3  UNL     1       2.242  -1.558   0.029  1.00  0.00     0.166 HD
HETATM   18  C11 UNL     1       3.063   1.524  -0.350  1.00  0.00     0.007 A 
HETATM   19  C15 UNL     1       4.647  -0.423  -0.221  1.00  0.00     0.058 C 
HETATM   20  S1  UNL     1       1.349   1.663  -0.274  1.00  0.00    -0.073 SA
HETATM   21  C12 UNL     1       4.145   2.540  -0.514  1.00  0.00     0.048 C 
HETATM   22  C13 UNL     1       5.394   1.840  -0.945  1.00  0.00     0.006 C 
HETATM   23  C14 UNL     1       5.565   0.702   0.072  1.00  0.00     0.006 C 
ENDBRANCH  10  14
BRANCH   9  24
HETATM   24  N2  UNL     1       0.279  -2.789   0.269  1.00  0.00    -0.384 N 
ATOM     25  H22 UNL     1       0.121  -3.790   0.387  1.00  0.00     0.157 HD
ATOM     26  H21 UNL     1       1.236  -2.447   0.181  1.00  0.00     0.157 HD
ENDBRANCH   9  24
TORSDOF 2
