REMARK  6 active torsions:
REMARK  status: ('A' for Active; 'I' for Inactive)
REMARK    1  A    between atoms: N2_6  and  C4_8 
REMARK    2  A    between atoms: C4_8  and  C5_9 
REMARK    3  A    between atoms: C5_9  and  O1_10 
REMARK    4  A    between atoms: N4_15  and  C8_17 
REMARK    5  A    between atoms: C8_17  and  C9_21 
REMARK    6  A    between atoms: C9_21  and  C10_22 
ROOT
HETATM    1  C1  UNL     1      -1.026  -3.020  -0.104  1.00  0.00     0.064 C 
HETATM    2  C2  UNL     1      -1.213  -1.770   0.286  1.00  0.00     0.127 A 
HETATM    3  N1  UNL     1      -2.541  -1.310   0.590  1.00  0.00    -0.177 N 
ATOM      4  H1  UNL     1      -3.318  -1.964   0.497  1.00  0.00     0.185 HD
HETATM    5  C3  UNL     1      -2.814   0.015   1.014  1.00  0.00     0.694 A 
HETATM    6  N2  UNL     1      -3.981   0.473   1.297  1.00  0.00    -0.223 N 
ATOM      7  H2  UNL     1      -4.074   1.444   1.594  1.00  0.00     0.177 HD
HETATM    8  N3  UNL     1      -1.683   0.906   1.131  1.00  0.00    -0.022 N 
ATOM      9  H3  UNL     1      -1.826   1.870   1.433  1.00  0.00     0.203 HD
HETATM   10  C7  UNL     1      -0.373   0.449   0.829  1.00  0.00     0.699 A 
HETATM   11  N4  UNL     1       0.582   1.325   0.964  1.00  0.00    -0.180 N 
ATOM     12  H4  UNL     1       0.392   2.280   1.268  1.00  0.00     0.185 HD
HETATM   13  N7  UNL     1      -0.111  -0.885   0.405  1.00  0.00    -0.176 N 
ATOM     14  H7  UNL     1       0.838  -1.194   0.194  1.00  0.00     0.185 HD
ENDROOT
BRANCH  11  15
HETATM   15  C8  UNL     1       1.902   0.887   0.667  1.00  0.00     0.093 C 
HETATM   16  N5  UNL     1       2.587   0.369   1.618  1.00  0.00    -0.388 N 
ATOM     17  H52 UNL     1       2.234   0.261   2.569  1.00  0.00     0.157 HD
ATOM     18  H51 UNL     1       3.534   0.055   1.405  1.00  0.00     0.157 HD
BRANCH  15  19
HETATM   19  C9  UNL     1       2.404   1.040  -0.684  1.00  0.00     0.109 C 
BRANCH  19  20
HETATM   20  C10 UNL     1       3.801   0.627  -0.954  1.00  0.00     0.193 C 
HETATM   21  C11 UNL     1       4.869   1.334  -0.191  1.00  0.00     0.035 C 
HETATM   22  C12 UNL     1       5.991   0.287  -0.227  1.00  0.00     0.029 C 
HETATM   23  C13 UNL     1       5.235  -0.993  -0.053  1.00  0.00     0.233 C 
HETATM   24  N6  UNL     1       3.993  -0.782  -0.742  1.00  0.00    -0.070 N 
ATOM     25  H62 UNL     1       3.204  -1.211  -0.258  1.00  0.00     0.277 HD
ATOM     26  H61 UNL     1       3.937  -1.315  -1.610  1.00  0.00     0.277 HD
ENDBRANCH  19  20
ENDBRANCH  15  19
ENDBRANCH  11  15
BRANCH   6  27
HETATM   27  C4  UNL     1      -5.156  -0.343   1.207  1.00  0.00     0.164 C 
BRANCH  27  28
HETATM   28  C5  UNL     1      -5.678  -0.331  -0.201  1.00  0.00     0.187 C 
BRANCH  28  29
HETATM   29  O1  UNL     1      -6.055   0.841  -0.734  1.00  0.00    -0.394 OA
HETATM   30  C6  UNL     1      -5.198   1.874  -0.875  1.00  0.00     0.201 C 
ENDBRANCH  28  29
ENDBRANCH  27  28
ENDBRANCH   6  27
TORSDOF 6
