REMARK  15 active torsions:
REMARK  status: ('A' for Active; 'I' for Inactive)
REMARK    1  A    between atoms: C2_2  and  C10_16 
REMARK    2  A    between atoms: C3_3  and  S1_4 
REMARK    3  A    between atoms: S1_4  and  C4_5 
REMARK    4  A    between atoms: C4_5  and  C5_7 
REMARK    5  A    between atoms: C5_7  and  C6_8 
REMARK    6  A    between atoms: C6_8  and  C7_9 
REMARK    7  A    between atoms: C7_9  and  N1_10 
REMARK    8  A    between atoms: N1_10  and  S2_12 
REMARK       I    between atoms: C10_16  and  N2_18 
REMARK    9  A    between atoms: N2_18  and  C11_20 
REMARK   10  A    between atoms: C11_20  and  C12_21 
REMARK   11  A    between atoms: C12_21  and  N3_22 
REMARK       I    between atoms: N3_22  and  C13_24 
REMARK   12  A    between atoms: C13_24  and  C14_26 
REMARK   13  A    between atoms: C14_26  and  C15_27 
REMARK   14  A    between atoms: C15_27  and  O6_28 
REMARK   15  A    between atoms: O6_28  and  C16_29 
ROOT
HETATM    1  N3  UNL     1      -0.980   2.589   1.369  1.00  0.00    -0.339 N 
ATOM      2  H3  UNL     1      -1.324   1.971   2.104  1.00  0.00     0.167 HD
HETATM    3  C13 UNL     1      -1.780   2.755   0.161  1.00  0.00     0.224 C 
HETATM    4  O5  UNL     1      -1.282   3.520  -0.673  1.00  0.00    -0.273 OA
ENDROOT
BRANCH   1   5
HETATM    5  C12 UNL     1       0.247   3.247   1.560  1.00  0.00     0.083 C 
BRANCH   5   6
HETATM    6  C11 UNL     1       1.000   2.775   2.763  1.00  0.00     0.167 C 
BRANCH   6   7
HETATM    7  N2  UNL     1       1.550   1.474   2.752  1.00  0.00    -0.352 N 
HETATM    8  C10 UNL     1       1.067   0.182   2.677  1.00  0.00     0.247 C 
HETATM    9  O4  UNL     1      -0.156  -0.092   2.611  1.00  0.00    -0.268 OA
ATOM     10  H2  UNL     1       2.568   1.494   2.816  1.00  0.00     0.163 HD
BRANCH   8  11
HETATM   11  C2  UNL     1       1.933  -1.017   2.663  1.00  0.00     0.012 C 
HETATM   12  C1  UNL     1       1.252  -2.345   2.537  1.00  0.00     0.054 C 
HETATM   13  C3  UNL     1       3.234  -1.018   2.728  1.00  0.00     0.065 C 
BRANCH  13  14
HETATM   14  S1  UNL     1       4.159  -2.569   2.664  1.00  0.00    -0.064 SA
BRANCH  14  15
HETATM   15  C4  UNL     1       5.832  -2.188   2.094  1.00  0.00     0.190 C 
HETATM   16  O1  UNL     1       6.620  -3.106   1.908  1.00  0.00    -0.285 OA
BRANCH  15  17
HETATM   17  C5  UNL     1       6.173  -0.770   1.875  1.00  0.00     0.092 C 
BRANCH  17  18
HETATM   18  C6  UNL     1       7.517  -0.504   1.291  1.00  0.00     0.024 C 
BRANCH  18  19
HETATM   19  C7  UNL     1       7.658  -1.068  -0.086  1.00  0.00     0.107 C 
BRANCH  19  20
HETATM   20  N1  UNL     1       8.958  -0.785  -0.663  1.00  0.00    -0.215 NA
HETATM   21  C8  UNL     1       9.491   0.484  -0.296  1.00  0.00     0.129 C 
BRANCH  20  22
HETATM   22  S2  UNL     1      10.042  -2.083  -0.523  1.00  0.00     0.207 S 
HETATM   23  C9  UNL     1      10.409  -2.556   1.145  1.00  0.00     0.180 C 
HETATM   24  O2  UNL     1       9.599  -3.303  -1.277  1.00  0.00    -0.212 OA
HETATM   25  O3  UNL     1      11.350  -1.643  -1.150  1.00  0.00    -0.212 OA
ENDBRANCH  20  22
ENDBRANCH  19  20
ENDBRANCH  18  19
ENDBRANCH  17  18
ENDBRANCH  15  17
ENDBRANCH  14  15
ENDBRANCH  13  14
ENDBRANCH   8  11
ENDBRANCH   6   7
ENDBRANCH   5   6
ENDBRANCH   1   5
BRANCH   3  26
HETATM   26  C14 UNL     1      -3.024   2.066  -0.004  1.00  0.00     0.144 C 
BRANCH  26  27
HETATM   27  C15 UNL     1      -3.719   2.114  -1.360  1.00  0.00     0.105 C 
HETATM   28  C17 UNL     1      -2.869   1.183  -2.217  1.00  0.00     0.045 C 
HETATM   29  C18 UNL     1      -3.064  -0.257  -1.880  1.00  0.00     0.042 C 
HETATM   30  C19 UNL     1      -4.452  -0.526  -1.419  1.00  0.00     0.071 C 
HETATM   31  C20 UNL     1      -4.714  -1.968  -1.296  1.00  0.00     0.040 C 
HETATM   32  C26 UNL     1      -5.458   0.341  -2.073  1.00  0.00     0.017 C 
HETATM   33  O8  UNL     1      -4.626   0.228  -0.235  1.00  0.00    -0.370 OA
HETATM   34  C21 UNL     1      -6.090  -2.444  -1.548  1.00  0.00     0.012 C 
HETATM   35  C22 UNL     1      -7.096  -1.395  -1.178  1.00  0.00    -0.047 C 
HETATM   36  C23 UNL     1      -8.450  -1.959  -1.658  1.00  0.00     0.015 C 
HETATM   37  C24 UNL     1      -7.241  -1.313   0.346  1.00  0.00     0.015 C 
HETATM   38  C25 UNL     1      -6.886  -0.058  -1.765  1.00  0.00     0.023 C 
HETATM   39  C27 UNL     1      -5.320   0.634  -3.522  1.00  0.00     0.021 C 
HETATM   40  C28 UNL     1      -5.000   1.286  -1.055  1.00  0.00     0.169 C 
BRANCH  27  41
HETATM   41  O6  UNL     1      -4.085   3.229  -1.803  1.00  0.00    -0.314 OA
BRANCH  41  42
HETATM   42  C16 UNL     1      -4.384   4.396  -2.256  1.00  0.00     0.399 C 
HETATM   43  O7  UNL     1      -3.374   5.108  -2.422  1.00  0.00    -0.276 OA
ENDBRANCH  41  42
ENDBRANCH  27  41
ENDBRANCH  26  27
ENDBRANCH   3  26
TORSDOF 15
