REMARK  27 active torsions:
REMARK  status: ('A' for Active; 'I' for Inactive)
REMARK    1  A    between atoms: C2_2  and  C3_3 
REMARK    2  A    between atoms: C4_4  and  N1_5 
REMARK    3  A    between atoms: C4_4  and  C23_38 
REMARK    4  A    between atoms: N1_5  and  C5_6 
REMARK    5  A    between atoms: C5_6  and  O1_7 
REMARK    6  A    between atoms: C5_6  and  C6_9 
REMARK    7  A    between atoms: C6_9  and  C7_10 
REMARK    8  A    between atoms: C6_9  and  N2_15 
REMARK    9  A    between atoms: C7_10  and  C8_11 
REMARK   10  A    between atoms: C8_11  and  C9_12 
REMARK   11  A    between atoms: N2_15  and  C11_16 
REMARK   12  A    between atoms: C11_16  and  O3_17 
REMARK   13  A    between atoms: C11_16  and  C12_19 
REMARK   14  A    between atoms: C13_20  and  C14_21 
REMARK   15  A    between atoms: C14_21  and  C15_22 
REMARK   16  A    between atoms: C15_22  and  O4_23 
REMARK   17  A    between atoms: C15_22  and  N3_25 
REMARK   18  A    between atoms: N3_25  and  C16_27 
REMARK   19  A    between atoms: C16_27  and  O5_28 
REMARK   20  A    between atoms: C16_27  and  N4_30 
REMARK   21  A    between atoms: N4_30  and  C17_32 
REMARK   22  A    between atoms: C23_38  and  O6_39 
REMARK   23  A    between atoms: C23_38  and  N5_41 
REMARK   24  A    between atoms: N6_44  and  C26_45 
REMARK   25  A    between atoms: C26_45  and  O7_46 
REMARK   26  A    between atoms: C26_45  and  O8_48 
REMARK   27  A    between atoms: O8_48  and  C27_49 
ROOT
HETATM    1  C6  UNL     1      -0.157  -0.666   0.067  1.00  0.00     0.255 C 
ENDROOT
BRANCH   1   2
HETATM    2  C5  UNL     1      -1.544  -0.686   0.662  1.00  0.00     0.227 C 
BRANCH   2   3
HETATM    3  N1  UNL     1      -2.680  -0.889   0.224  1.00  0.00    -0.378 NA
BRANCH   3   4
HETATM    4  C4  UNL     1      -3.825  -1.126  -0.236  1.00  0.00     0.156 C 
HETATM    5  C3  UNL     1      -3.949  -2.336  -1.019  1.00  0.00     0.022 C 
BRANCH   5   6
HETATM    6  C2  UNL     1      -4.567  -2.404  -2.349  1.00  0.00     0.026 C 
HETATM    7  C1  UNL     1      -4.438  -3.906  -2.783  1.00  0.00     0.009 C 
ENDBRANCH   5   6
BRANCH   4   8
HETATM    8  C23 UNL     1      -4.798  -0.224   0.316  1.00  0.00     0.179 C 
BRANCH   8   9
HETATM    9  O6  UNL     1      -4.147   0.564   1.274  1.00  0.00    -0.344 OA
ATOM     10  H6  UNL     1      -4.790   1.160   1.639  1.00  0.00     0.219 HD
ENDBRANCH   8   9
BRANCH   8  11
HETATM   11  N5  UNL     1      -6.117   0.192   0.282  1.00  0.00    -0.356 N 
HETATM   12  C24 UNL     1      -6.446   1.044   1.466  1.00  0.00     0.145 C 
HETATM   13  C25 UNL     1      -7.745   1.673   1.530  1.00  0.00     0.147 C 
HETATM   14  N6  UNL     1      -8.616   1.358   0.411  1.00  0.00    -0.339 N 
HETATM   15  C29 UNL     1      -8.500   0.044  -0.199  1.00  0.00     0.147 C 
HETATM   16  C30 UNL     1      -7.059  -0.020  -0.744  1.00  0.00     0.145 C 
BRANCH  14  17
HETATM   17  C26 UNL     1      -9.538   2.332  -0.032  1.00  0.00     0.260 C 
BRANCH  17  18
HETATM   18  O7  UNL     1      -9.488   3.449   0.633  1.00  0.00    -0.327 OA
ATOM     19  H7  UNL     1     -10.108   4.104   0.335  1.00  0.00     0.221 HD
ENDBRANCH  17  18
BRANCH  17  20
HETATM   20  O8  UNL     1     -10.432   2.230  -1.044  1.00  0.00    -0.317 OA
BRANCH  20  21
HETATM   21  C27 UNL     1     -11.262   3.342  -1.376  1.00  0.00     0.175 C 
HETATM   22  C28 UNL     1     -12.171   2.850  -2.504  1.00  0.00     0.034 C 
ENDBRANCH  20  21
ENDBRANCH  17  20
ENDBRANCH  14  17
ENDBRANCH   8  11
ENDBRANCH   4   8
ENDBRANCH   3   4
ENDBRANCH   2   3
BRANCH   2  23
HETATM   23  O1  UNL     1      -1.440  -0.384   1.967  1.00  0.00    -0.336 OA
ATOM     24  H1  UNL     1      -0.566  -0.228   2.304  1.00  0.00     0.220 HD
ENDBRANCH   2  23
ENDBRANCH   1   2
BRANCH   1  25
HETATM   25  C7  UNL     1       0.431  -1.923  -0.388  1.00  0.00     0.056 C 
BRANCH  25  26
HETATM   26  C8  UNL     1       0.668  -3.037   0.532  1.00  0.00     0.081 C 
BRANCH  26  27
HETATM   27  C9  UNL     1      -0.463  -3.726   1.075  1.00  0.00     0.123 C 
HETATM   28  C10 UNL     1      -0.853  -5.017   0.346  1.00  0.00     0.091 C 
HETATM   29  O2  UNL     1      -1.154  -3.464   2.013  1.00  0.00    -0.298 OA
ENDBRANCH  26  27
ENDBRANCH  25  26
ENDBRANCH   1  25
BRANCH   1  30
HETATM   30  N2  UNL     1       0.824   0.079   0.795  1.00  0.00    -0.410 NA
BRANCH  30  31
HETATM   31  C11 UNL     1       1.709   0.750   1.453  1.00  0.00     0.209 C 
BRANCH  31  32
HETATM   32  O3  UNL     1       1.916   0.725   2.744  1.00  0.00    -0.336 OA
ATOM     33  H3  UNL     1       2.567   1.219   3.228  1.00  0.00     0.220 HD
ENDBRANCH  31  32
BRANCH  31  34
HETATM   34  C12 UNL     1       2.675   1.730   0.803  1.00  0.00     0.071 C 
HETATM   35  C13 UNL     1       3.992   1.966   1.323  1.00  0.00     0.010 C 
BRANCH  35  36
HETATM   36  C14 UNL     1       5.171   1.161   1.024  1.00  0.00     0.056 C 
BRANCH  36  37
HETATM   37  C15 UNL     1       5.373  -0.255   1.225  1.00  0.00     0.142 C 
BRANCH  37  38
HETATM   38  O4  UNL     1       4.397  -0.870   1.877  1.00  0.00    -0.346 OA
ATOM     39  H4  UNL     1       4.530  -1.801   2.009  1.00  0.00     0.219 HD
ENDBRANCH  37  38
BRANCH  37  40
HETATM   40  N3  UNL     1       6.442  -1.058   0.818  1.00  0.00    -0.303 N 
ATOM     41  H3  UNL     1       6.344  -2.061   0.976  1.00  0.00     0.171 HD
BRANCH  40  42
HETATM   42  C16 UNL     1       7.613  -0.640   0.226  1.00  0.00     0.219 C 
BRANCH  42  43
HETATM   43  O5  UNL     1       8.377  -1.721  -0.108  1.00  0.00    -0.332 OA
ATOM     44  H5  UNL     1       9.185  -1.433  -0.516  1.00  0.00     0.220 HD
ENDBRANCH  42  43
BRANCH  42  45
HETATM   45  N4  UNL     1       8.259   0.523  -0.126  1.00  0.00    -0.352 N 
ATOM     46  H4  UNL     1       7.809   1.411   0.097  1.00  0.00     0.163 HD
BRANCH  45  47
HETATM   47  C17 UNL     1       9.555   0.557  -0.802  1.00  0.00     0.085 C 
HETATM   48  C18 UNL     1      10.662   0.128   0.144  1.00  0.00     0.025 C 
HETATM   49  C19 UNL     1      11.107   1.182   1.113  1.00  0.00     0.002 C 
HETATM   50  C20 UNL     1      11.387   2.493   0.435  1.00  0.00     0.000 C 
HETATM   51  C21 UNL     1      11.220   2.387  -1.074  1.00  0.00     0.002 C 
HETATM   52  C22 UNL     1       9.846   1.851  -1.466  1.00  0.00     0.025 C 
ENDBRANCH  45  47
ENDBRANCH  42  45
ENDBRANCH  40  42
ENDBRANCH  37  40
ENDBRANCH  36  37
ENDBRANCH  35  36
ENDBRANCH  31  34
ENDBRANCH  30  31
ENDBRANCH   1  30
TORSDOF 27
