REMARK  17 active torsions:
REMARK  status: ('A' for Active; 'I' for Inactive)
REMARK    1  A    between atoms: C2_2  and  C3_3 
REMARK    2  A    between atoms: C5_5  and  C6_6 
REMARK    3  A    between atoms: C6_6  and  O1_7 
REMARK    4  A    between atoms: C6_6  and  N1_9 
REMARK    5  A    between atoms: N1_9  and  C7_10 
REMARK    6  A    between atoms: C7_10  and  C8_11 
REMARK    7  A    between atoms: C8_11  and  N2_12 
REMARK    8  A    between atoms: N2_12  and  C9_13 
REMARK    9  A    between atoms: N2_12  and  C11_15 
REMARK   10  A    between atoms: C13_17  and  C14_18 
REMARK   11  A    between atoms: N6_26  and  C16_27 
REMARK   12  A    between atoms: C16_27  and  C17_28 
REMARK       I    between atoms: C17_28  and  N7_30 
REMARK       I    between atoms: N8_33  and  C20_34 
REMARK   13  A    between atoms: C20_34  and  C21_36 
REMARK   14  A    between atoms: C21_36  and  C22_37 
REMARK   15  A    between atoms: C22_37  and  C23_38 
REMARK   16  A    between atoms: C23_38  and  C24_39 
REMARK   17  A    between atoms: C24_39  and  N9_40 
ROOT
HETATM    1  C3  UNL     1      -2.851  -0.215   0.624  1.00  0.00     0.048 A 
HETATM    2  C4  UNL     1      -3.660  -1.290   0.187  1.00  0.00     0.052 A 
HETATM    3  C5  UNL     1      -4.792  -1.624  -0.415  1.00  0.00     0.077 A 
HETATM    4  C13 UNL     1      -4.839  -3.026  -0.338  1.00  0.00     0.116 A 
HETATM    5  N4  UNL     1      -3.776  -3.501   0.266  1.00  0.00    -0.336 N 
ATOM      6  H4  UNL     1      -3.569  -4.485   0.440  1.00  0.00     0.168 HD
HETATM    7  C15 UNL     1      -3.003  -2.445   0.616  1.00  0.00     0.134 A 
HETATM    8  N5  UNL     1      -1.912  -2.048   1.234  1.00  0.00    -0.278 N 
ATOM      9  H5  UNL     1      -1.234  -2.689   1.646  1.00  0.00     0.189 HD
HETATM   10  N6  UNL     1      -1.787  -0.760   1.266  1.00  0.00    -0.264 N 
ENDROOT
BRANCH  10  11
HETATM   11  C16 UNL     1      -0.819  -0.028   2.004  1.00  0.00     0.190 C 
BRANCH  11  12
HETATM   12  C17 UNL     1       0.250   0.655   1.348  1.00  0.00     0.261 C 
HETATM   13  O3  UNL     1       0.495   1.855   1.751  1.00  0.00    -0.267 OA
HETATM   14  N7  UNL     1       1.129   0.222   0.306  1.00  0.00    -0.344 N 
HETATM   15  C18 UNL     1       2.112   1.250  -0.145  1.00  0.00     0.146 C 
HETATM   16  C32 UNL     1       1.143  -1.069  -0.283  1.00  0.00     0.146 C 
HETATM   17  C19 UNL     1       2.999   0.767  -1.210  1.00  0.00     0.145 C 
HETATM   18  N8  UNL     1       3.463  -0.532  -0.750  1.00  0.00    -0.349 N 
HETATM   19  C20 UNL     1       4.636  -0.794  -0.044  1.00  0.00     0.219 C 
HETATM   20  C31 UNL     1       2.416  -1.585  -0.918  1.00  0.00     0.145 C 
HETATM   21  O4  UNL     1       5.021  -2.030  -0.031  1.00  0.00    -0.273 OA
BRANCH  19  22
HETATM   22  C21 UNL     1       5.420   0.201   0.666  1.00  0.00     0.103 C 
BRANCH  22  23
HETATM   23  C22 UNL     1       6.645   0.740  -0.079  1.00  0.00     0.011 C 
BRANCH  23  24
HETATM   24  C23 UNL     1       7.468   1.669   0.796  1.00  0.00     0.020 C 
BRANCH  24  25
HETATM   25  C24 UNL     1       8.759   1.987   0.085  1.00  0.00     0.117 C 
BRANCH  25  26
HETATM   26  N9  UNL     1       9.664   0.894   0.030  1.00  0.00    -0.408 N 
HETATM   27  C25 UNL     1      10.326   0.500   1.225  1.00  0.00     0.117 C 
HETATM   28  C26 UNL     1      11.826   0.478   0.892  1.00  0.00     0.019 C 
HETATM   29  C27 UNL     1      12.059  -0.448  -0.294  1.00  0.00     0.004 C 
HETATM   30  C28 UNL     1      11.299   0.098  -1.466  1.00  0.00     0.024 C 
HETATM   31  C29 UNL     1       9.796   0.008  -1.057  1.00  0.00     0.075 C 
HETATM   32  C30 UNL     1       9.507  -1.444  -0.792  1.00  0.00     0.032 C 
ENDBRANCH  25  26
ENDBRANCH  24  25
ENDBRANCH  23  24
ENDBRANCH  22  23
ENDBRANCH  19  22
ENDBRANCH  11  12
ENDBRANCH  10  11
BRANCH   1  33
HETATM   33  C2  UNL     1      -3.234   1.198   0.382  1.00  0.00     0.056 C 
HETATM   34  C1  UNL     1      -2.984   1.711  -0.980  1.00  0.00     0.011 C 
ENDBRANCH   1  33
BRANCH   3  35
HETATM   35  C6  UNL     1      -5.861  -0.879  -1.065  1.00  0.00     0.222 C 
BRANCH  35  36
HETATM   36  O1  UNL     1      -5.938  -1.197  -2.356  1.00  0.00    -0.335 OA
ATOM     37  H1  UNL     1      -6.635  -0.711  -2.780  1.00  0.00     0.220 HD
ENDBRANCH  35  36
BRANCH  35  38
HETATM   38  N1  UNL     1      -6.697   0.003  -0.508  1.00  0.00    -0.422 NA
BRANCH  38  39
HETATM   39  C7  UNL     1      -7.577   0.931   0.076  1.00  0.00     0.251 C 
BRANCH  39  40
HETATM   40  C8  UNL     1      -9.003   0.311  -0.119  1.00  0.00     0.305 C 
BRANCH  40  41
HETATM   41  N2  UNL     1     -10.051   1.054   0.423  1.00  0.00     0.090 N 
BRANCH  41  42
HETATM   42  C9  UNL     1     -11.234   0.189   0.146  1.00  0.00     0.268 C 
HETATM   43  C10 UNL     1     -11.138  -1.114   0.884  1.00  0.00     0.037 C 
ENDBRANCH  41  42
BRANCH  41  44
HETATM   44  C11 UNL     1     -10.315   2.249  -0.422  1.00  0.00     0.268 C 
HETATM   45  C12 UNL     1     -11.314   3.096   0.291  1.00  0.00     0.037 C 
ENDBRANCH  41  44
ENDBRANCH  40  41
ENDBRANCH  39  40
ENDBRANCH  38  39
ENDBRANCH  35  38
ENDBRANCH   3  35
BRANCH   4  46
HETATM   46  C14 UNL     1      -6.043  -3.804  -0.690  1.00  0.00     0.282 C 
HETATM   47  N3  UNL     1      -7.031  -3.779   0.395  1.00  0.00    -0.056 NA
HETATM   48  O2  UNL     1      -6.296  -4.423  -1.697  1.00  0.00    -0.269 OA
ENDBRANCH   4  46
TORSDOF 17
