REMARK  13 active torsions:
REMARK  status: ('A' for Active; 'I' for Inactive)
REMARK    1  A    between atoms: C4_4  and  C5_5 
REMARK    2  A    between atoms: C5_5  and  C6_6 
REMARK    3  A    between atoms: C6_6  and  C7_7 
REMARK    4  A    between atoms: C9_9  and  C10_10 
REMARK    5  A    between atoms: C10_10  and  C11_11 
REMARK    6  A    between atoms: C11_11  and  C12_12 
REMARK    7  A    between atoms: C11_11  and  C13_15 
REMARK    8  A    between atoms: C11_11  and  C14_18 
REMARK    9  A    between atoms: C12_12  and  O1_13 
REMARK   10  A    between atoms: C15_20  and  C17_22 
REMARK   11  A    between atoms: C17_22  and  C18_23 
REMARK   12  A    between atoms: C18_23  and  C19_24 
REMARK   13  A    between atoms: C20_25  and  C22_27 
ROOT
HETATM    1  C22 UNL     1      -6.019  -0.661  -1.002  1.00  0.00     0.024 C 
HETATM    2  C23 UNL     1      -7.251  -0.304  -1.181  1.00  0.00     0.019 C 
HETATM    3  C24 UNL     1      -7.498   0.411  -2.536  1.00  0.00     0.060 C 
HETATM    4  C25 UNL     1      -8.383  -0.462  -0.342  1.00  0.00     0.094 C 
HETATM    5  N1  UNL     1      -9.336  -0.569   0.315  1.00  0.00    -0.192 NA
ENDROOT
BRANCH   1   6
HETATM    6  C20 UNL     1      -5.490  -1.339   0.150  1.00  0.00    -0.065 C 
HETATM    7  C19 UNL     1      -4.232  -1.659   0.250  1.00  0.00    -0.020 C 
HETATM    8  C21 UNL     1      -6.426  -1.757   1.285  1.00  0.00     0.048 C 
BRANCH   7   9
HETATM    9  C18 UNL     1      -3.169  -1.373  -0.681  1.00  0.00     0.030 C 
BRANCH   9  10
HETATM   10  C17 UNL     1      -1.882  -0.873  -0.068  1.00  0.00     0.044 C 
BRANCH  10  11
HETATM   11  C15 UNL     1      -1.891   0.376   0.685  1.00  0.00     0.085 A 
HETATM   12  C14 UNL     1      -0.847   1.033   1.363  1.00  0.00     0.178 A 
HETATM   13  O4  UNL     1      -1.776   0.124   2.136  1.00  0.00    -0.368 OA
HETATM   14  C16 UNL     1      -3.072   1.283   0.316  1.00  0.00     0.049 C 
BRANCH  12  15
HETATM   15  C11 UNL     1       0.529   0.699   1.754  1.00  0.00     0.101 C 
BRANCH  15  16
HETATM   16  C10 UNL     1       1.571   1.570   1.064  1.00  0.00     0.053 C 
BRANCH  16  17
HETATM   17  C9  UNL     1       1.723   1.392  -0.358  1.00  0.00    -0.023 C 
HETATM   18  C7  UNL     1       2.840   1.165  -0.962  1.00  0.00    -0.087 C 
HETATM   19  C8  UNL     1       2.795   1.005  -2.476  1.00  0.00     0.043 C 
BRANCH  18  20
HETATM   20  C6  UNL     1       4.169   1.039  -0.362  1.00  0.00     0.037 C 
BRANCH  20  21
HETATM   21  C5  UNL     1       4.767  -0.324  -0.676  1.00  0.00     0.031 C 
BRANCH  21  22
HETATM   22  C4  UNL     1       6.110  -0.471  -0.082  1.00  0.00    -0.024 C 
HETATM   23  C2  UNL     1       7.150  -0.696  -0.851  1.00  0.00    -0.091 C 
HETATM   24  C1  UNL     1       6.988  -0.805  -2.317  1.00  0.00     0.042 C 
HETATM   25  C3  UNL     1       8.497  -0.843  -0.256  1.00  0.00     0.042 C 
ENDBRANCH  21  22
ENDBRANCH  20  21
ENDBRANCH  18  20
ENDBRANCH  16  17
ENDBRANCH  15  16
BRANCH  15  26
HETATM   26  C12 UNL     1       0.646   1.146   3.249  1.00  0.00     0.187 C 
BRANCH  26  27
HETATM   27  O1  UNL     1       0.351   2.502   3.240  1.00  0.00    -0.399 OA
ATOM     28  H1  UNL     1       0.422   2.773   4.148  1.00  0.00     0.209 HD
ENDBRANCH  26  27
ENDBRANCH  15  26
BRANCH  15  29
HETATM   29  C13 UNL     1       1.002  -0.660   1.740  1.00  0.00     0.187 C 
HETATM   30  O2  UNL     1       1.030  -1.408   2.790  1.00  0.00    -0.647 OA
HETATM   31  O3  UNL     1       1.458  -1.263   0.605  1.00  0.00    -0.647 OA
ENDBRANCH  15  29
ENDBRANCH  12  15
ENDBRANCH  10  11
ENDBRANCH   9  10
ENDBRANCH   7   9
ENDBRANCH   1   6
TORSDOF 13
