REMARK  7 active torsions:
REMARK  status: ('A' for Active; 'I' for Inactive)
REMARK    1  A    between atoms: C8_10  and  C9_11 
REMARK    2  A    between atoms: C9_11  and  C10_13 
REMARK    3  A    between atoms: C11_14  and  C12_15 
REMARK    4  A    between atoms: C14_21  and  C15_22 
REMARK    5  A    between atoms: C15_22  and  C16_23 
REMARK    6  A    between atoms: C16_23  and  C17_24 
REMARK       I    between atoms: N1_27  and  C18_28 
REMARK    7  A    between atoms: C18_28  and  C19_30 
ROOT
HETATM    1  C1  UNL     1      -3.013   3.124   1.593  1.00  0.00     0.018 C 
HETATM    2  C2  UNL     1      -2.328   2.308   0.804  1.00  0.00    -0.047 C 
HETATM    3  C3  UNL     1      -1.424   2.978  -0.174  1.00  0.00     0.213 C 
HETATM    4  O1  UNL     1      -0.609   3.966   0.420  1.00  0.00    -0.317 OA
HETATM    5  C4  UNL     1       0.736   3.893   0.596  1.00  0.00     0.262 C 
HETATM    6  O2  UNL     1       1.440   4.920   0.687  1.00  0.00    -0.265 OA
HETATM    7  C5  UNL     1       1.419   2.584   0.686  1.00  0.00     0.138 C 
HETATM    8  C6  UNL     1       2.394   2.449  -0.418  1.00  0.00    -0.020 C 
HETATM    9  C7  UNL     1       2.654   1.302  -1.021  1.00  0.00    -0.008 C 
HETATM   10  C8  UNL     1       2.013   0.005  -0.681  1.00  0.00     0.181 C 
HETATM   11  C13 UNL     1       1.066  -0.434  -1.731  1.00  0.00     0.276 C 
HETATM   12  O6  UNL     1       1.590  -0.759  -2.831  1.00  0.00    -0.264 OA
HETATM   13  O7  UNL     1      -0.252  -0.463  -1.467  1.00  0.00    -0.294 OA
HETATM   14  C14 UNL     1      -0.999  -0.679  -0.332  1.00  0.00     0.236 C 
HETATM   15  N1  UNL     1      -2.219   0.089  -0.247  1.00  0.00    -0.320 N 
HETATM   16  C18 UNL     1      -3.169   0.108  -1.298  1.00  0.00     0.232 C 
HETATM   17  O10 UNL     1      -2.971  -0.561  -2.371  1.00  0.00    -0.272 OA
HETATM   18  C20 UNL     1      -2.490   0.857   0.932  1.00  0.00     0.164 C 
ENDROOT
BRANCH  10  19
HETATM   19  C9  UNL     1       3.155  -1.008  -0.688  1.00  0.00     0.166 C 
HETATM   20  O3  UNL     1       3.095  -1.974  -1.476  1.00  0.00    -0.292 OA
BRANCH  19  21
HETATM   21  C10 UNL     1       4.263  -0.834   0.201  1.00  0.00     0.058 C 
HETATM   22  C11 UNL     1       5.327  -1.540   0.379  1.00  0.00     0.088 C 
BRANCH  22  23
HETATM   23  C12 UNL     1       5.829  -2.736  -0.205  1.00  0.00     0.198 C 
HETATM   24  O4  UNL     1       5.275  -3.389  -1.086  1.00  0.00    -0.645 OA
HETATM   25  O5  UNL     1       7.064  -3.249   0.239  1.00  0.00    -0.645 OA
ENDBRANCH  22  23
ENDBRANCH  19  21
ENDBRANCH  10  19
BRANCH  14  26
HETATM   26  C15 UNL     1      -1.296  -2.179  -0.263  1.00  0.00     0.065 C 
BRANCH  26  27
HETATM   27  C16 UNL     1      -2.113  -2.522   0.951  1.00  0.00     0.117 C 
BRANCH  27  28
HETATM   28  C17 UNL     1      -2.352  -3.984   0.937  1.00  0.00     0.172 C 
HETATM   29  O8  UNL     1      -1.908  -4.724   0.027  1.00  0.00    -0.648 OA
HETATM   30  O9  UNL     1      -3.086  -4.582   1.948  1.00  0.00    -0.648 OA
ENDBRANCH  27  28
ENDBRANCH  26  27
ENDBRANCH  14  26
BRANCH  16  31
HETATM   31  C19 UNL     1      -4.425   0.895  -1.207  1.00  0.00     0.188 C 
HETATM   32 BR1  UNL     1      -5.486   0.695  -2.798  1.00  0.00    -0.087 Br
ENDBRANCH  16  31
TORSDOF 7
