REMARK  1 active torsions:
REMARK  status: ('A' for Active; 'I' for Inactive)
REMARK    1  A    between atoms: N1_2  and  C1_4 
ROOT
HETATM    1  C1  UNL     1       0.849  -0.337  -0.106  1.00  0.00     0.124 C 
HETATM    2  C2  UNL     1       0.815   0.819   0.866  1.00  0.00     0.041 C 
HETATM    3  C3  UNL     1      -0.367   1.696   0.612  1.00  0.00     0.033 C 
HETATM    4  C4  UNL     1      -1.552   1.011   0.042  1.00  0.00     0.272 C 
HETATM    5  N2  UNL     1      -1.274  -0.014  -0.909  1.00  0.00     0.091 N 
HETATM    6  C5  UNL     1      -1.294  -1.357  -0.309  1.00  0.00     0.275 C 
HETATM    7  C6  UNL     1       0.023  -1.466   0.430  1.00  0.00     0.069 C 
HETATM    8  C7  UNL     1       0.121   0.129  -1.355  1.00  0.00     0.309 C 
ENDROOT
BRANCH   1   9
HETATM    9  N1  UNL     1       2.194  -0.774  -0.406  1.00  0.00    -0.143 N 
HETATM   10  O1  UNL     1       2.675  -0.765  -1.566  1.00  0.00    -0.536 OA
HETATM   11  O2  UNL     1       2.956  -1.215   0.650  1.00  0.00    -0.536 OA
ENDBRANCH   1   9
TORSDOF 1
