REMARK  3 active torsions:
REMARK  status: ('A' for Active; 'I' for Inactive)
REMARK    1  A    between atoms: C4_6  and  N1_7 
REMARK    2  A    between atoms: N1_7  and  N2_9 
REMARK    3  A    between atoms: N2_9  and  C5_10 
ROOT
HETATM    1  F1  UNL     1       6.401  -0.060   0.705  1.00  0.00    -0.206 F 
HETATM    2  C1  UNL     1       5.080   0.062   0.462  1.00  0.00     0.119 A 
HETATM    3  C2  UNL     1       4.680   0.178  -0.847  1.00  0.00     0.068 A 
HETATM    4  C3  UNL     1       3.349   0.304  -1.120  1.00  0.00     0.066 A 
HETATM    5 CL1  UNL     1       2.811   0.454  -2.792  1.00  0.00    -0.082 Cl
HETATM    6  C4  UNL     1       2.365   0.321  -0.140  1.00  0.00     0.088 A 
HETATM    7  C11 UNL     1       2.775   0.205   1.156  1.00  0.00     0.066 A 
HETATM    8 CL2  UNL     1       1.622   0.216   2.451  1.00  0.00    -0.082 Cl
HETATM    9  C12 UNL     1       4.131   0.074   1.476  1.00  0.00     0.068 A 
ENDROOT
BRANCH   6  10
HETATM   10  N1  UNL     1       1.011   0.453  -0.494  1.00  0.00    -0.300 N 
ATOM     11  H1  UNL     1       0.768   0.535  -1.481  1.00  0.00     0.182 HD
BRANCH  10  12
HETATM   12  N2  UNL     1      -0.001   0.476   0.442  1.00  0.00    -0.136 NA
BRANCH  12  13
HETATM   13  C5  UNL     1      -1.055  -0.503   0.128  1.00  0.00     0.099 C 
HETATM   14  C6  UNL     1      -1.626  -0.165  -1.214  1.00  0.00     0.023 C 
HETATM   15  C7  UNL     1      -3.055  -0.594  -1.396  1.00  0.00     0.002 C 
HETATM   16  C8  UNL     1      -3.941  -0.239  -0.243  1.00  0.00     0.000 C 
HETATM   17  C9  UNL     1      -3.185   0.487   0.863  1.00  0.00     0.002 C 
HETATM   18  C10 UNL     1      -2.050  -0.441   1.247  1.00  0.00     0.023 C 
ENDBRANCH  12  13
ENDBRANCH  10  12
ENDBRANCH   6  10
TORSDOF 3
