REMARK  11 active torsions:
REMARK  status: ('A' for Active; 'I' for Inactive)
REMARK    1  A    between atoms: C3_3  and  C4_4 
REMARK    2  A    between atoms: C5_5  and  C6_6 
REMARK    3  A    between atoms: C6_6  and  C7_7 
REMARK       I    between atoms: C7_7  and  N1_9 
REMARK    4  A    between atoms: N1_9  and  C8_11 
REMARK    5  A    between atoms: C8_11  and  C9_12 
REMARK    6  A    between atoms: C10_13  and  C11_14 
REMARK    7  A    between atoms: C11_14  and  N2_15 
REMARK       I    between atoms: N2_15  and  C12_17 
REMARK       I    between atoms: N4_19  and  C13_21 
REMARK    8  A    between atoms: C13_21  and  C14_23 
REMARK    9  A    between atoms: C14_23  and  C15_24 
REMARK   10  A    between atoms: C15_24  and  C16_25 
REMARK   11  A    between atoms: C16_25  and  C17_26 
ROOT
HETATM    1  C1  UNL     1       6.574  -1.323   1.772  1.00  0.00     0.013 C 
HETATM    2  C2  UNL     1       6.861  -0.188   1.503  1.00  0.00    -0.105 C 
HETATM    3  C3  UNL     1       7.190   1.217   1.175  1.00  0.00     0.186 C 
ENDROOT
BRANCH   3   4
HETATM    4  C4  UNL     1       6.104   1.699   0.308  1.00  0.00    -0.094 C 
HETATM    5  C5  UNL     1       5.205   2.076  -0.402  1.00  0.00    -0.096 C 
BRANCH   5   6
HETATM    6  C6  UNL     1       4.099   2.512  -1.256  1.00  0.00     0.196 C 
BRANCH   6   7
HETATM    7  C7  UNL     1       2.800   2.375  -0.561  1.00  0.00     0.229 C 
HETATM    8  O1  UNL     1       2.768   1.932   0.606  1.00  0.00    -0.273 OA
HETATM    9  N1  UNL     1       1.605   2.750  -1.229  1.00  0.00    -0.350 N 
ATOM     10  H1  UNL     1       1.654   3.110  -2.182  1.00  0.00     0.163 HD
BRANCH   9  11
HETATM   11  C8  UNL     1       0.316   2.629  -0.577  1.00  0.00     0.217 C 
BRANCH  11  12
HETATM   12  C9  UNL     1       0.163   1.190  -0.251  1.00  0.00    -0.085 C 
HETATM   13  C10 UNL     1       0.057   0.016   0.005  1.00  0.00    -0.085 C 
BRANCH  13  14
HETATM   14  C11 UNL     1      -0.074  -1.413   0.291  1.00  0.00     0.216 C 
BRANCH  14  15
HETATM   15  N2  UNL     1      -1.175  -1.640   1.228  1.00  0.00    -0.354 N 
HETATM   16  C12 UNL     1      -1.542  -2.909   1.689  1.00  0.00     0.191 C 
HETATM   17  N3  UNL     1      -0.572  -3.786   2.211  1.00  0.00    -0.063 NA
HETATM   18  N4  UNL     1      -2.766  -3.283   1.639  1.00  0.00    -0.301 N 
HETATM   19  C13 UNL     1      -3.759  -2.402   1.111  1.00  0.00     0.224 C 
ATOM     20  H4  UNL     1      -3.031  -4.209   1.976  1.00  0.00     0.171 HD
HETATM   21  O2  UNL     1      -4.486  -1.824   1.935  1.00  0.00    -0.273 OA
ATOM     22  H2  UNL     1      -1.701  -0.833   1.562  1.00  0.00     0.163 HD
BRANCH  19  23
HETATM   23  C14 UNL     1      -3.935  -2.176  -0.330  1.00  0.00     0.103 C 
BRANCH  23  24
HETATM   24  C15 UNL     1      -4.790  -0.981  -0.609  1.00  0.00     0.010 C 
BRANCH  24  25
HETATM   25  C16 UNL     1      -4.164   0.286  -0.102  1.00  0.00     0.011 C 
BRANCH  25  26
HETATM   26  C17 UNL     1      -5.082   1.469  -0.422  1.00  0.00     0.085 C 
HETATM   27 BR1  UNL     1      -5.315   1.567  -2.347  1.00  0.00    -0.097 Br
ENDBRANCH  25  26
ENDBRANCH  24  25
ENDBRANCH  23  24
ENDBRANCH  19  23
ENDBRANCH  14  15
ENDBRANCH  13  14
ENDBRANCH  11  12
ENDBRANCH   9  11
ENDBRANCH   6   7
ENDBRANCH   5   6
ENDBRANCH   3   4
TORSDOF 11
