REMARK  8 active torsions:
REMARK  status: ('A' for Active; 'I' for Inactive)
REMARK    1  A    between atoms: O1_1  and  C1_3 
REMARK    2  A    between atoms: C1_3  and  C2_4 
REMARK    3  A    between atoms: C2_4  and  N1_5 
REMARK    4  A    between atoms: C5_8  and  C6_9 
REMARK    5  A    between atoms: C8_11  and  N2_12 
REMARK    6  A    between atoms: N2_12  and  C9_13 
REMARK    7  A    between atoms: C10_16  and  N4_17 
REMARK    8  A    between atoms: N4_17  and  C11_19 
ROOT
HETATM    1  C6  UNL     1      -1.851  -2.082  -0.209  1.00  0.00     0.016 A 
HETATM    2  C7  UNL     1      -1.130  -0.945  -0.433  1.00  0.00     0.073 A 
HETATM    3  C8  UNL     1       0.248  -1.047  -0.609  1.00  0.00     0.151 A 
HETATM    4  C18 UNL     1       0.792  -2.335  -0.540  1.00  0.00     0.172 A 
HETATM    5  F2  UNL     1       2.152  -2.490  -0.708  1.00  0.00    -0.201 F 
HETATM    6  C19 UNL     1       0.037  -3.435  -0.315  1.00  0.00     0.134 A 
HETATM    7  N6  UNL     1      -1.285  -3.297  -0.151  1.00  0.00    -0.366 N 
ATOM      8  H6  UNL     1      -1.864  -4.119   0.019  1.00  0.00     0.165 HD
ENDROOT
BRANCH   3   9
HETATM    9  N2  UNL     1       0.945  -0.108  -0.810  1.00  0.00    -0.380 NA
BRANCH   9  10
HETATM   10  C9  UNL     1       1.635   0.995  -1.029  1.00  0.00     0.234 A 
HETATM   11  N3  UNL     1       2.954   1.050  -0.620  1.00  0.00    -0.161 N 
HETATM   12  C10 UNL     1       3.718   2.125  -0.805  1.00  0.00     0.680 A 
ATOM     13  H3  UNL     1       3.358   0.235  -0.158  1.00  0.00     0.187 HD
HETATM   14  N5  UNL     1       3.201   3.196  -1.409  1.00  0.00    -0.199 N 
HETATM   15  C16 UNL     1       1.917   3.224  -1.841  1.00  0.00     0.153 A 
ATOM     16  H5  UNL     1       3.789   4.017  -1.550  1.00  0.00     0.183 HD
HETATM   17  C17 UNL     1       1.111   2.139  -1.664  1.00  0.00     0.190 A 
HETATM   18  F1  UNL     1      -0.176   2.065  -2.058  1.00  0.00    -0.199 F 
BRANCH  12  19
HETATM   19  N4  UNL     1       4.966   2.127  -0.398  1.00  0.00    -0.221 N 
ATOM     20  H4  UNL     1       5.555   2.948  -0.537  1.00  0.00     0.178 HD
BRANCH  19  21
HETATM   21  C11 UNL     1       5.497   0.934   0.258  1.00  0.00     0.099 C 
HETATM   22  C12 UNL     1       6.035   1.251   1.621  1.00  0.00     0.026 C 
HETATM   23  C13 UNL     1       7.449   0.674   1.672  1.00  0.00     0.002 C 
HETATM   24  C14 UNL     1       7.495  -0.289   0.516  1.00  0.00     0.002 C 
HETATM   25  C15 UNL     1       6.657   0.388  -0.536  1.00  0.00     0.026 C 
ENDBRANCH  19  21
ENDBRANCH  12  19
ENDBRANCH   9  10
ENDBRANCH   3   9
BRANCH   1  26
HETATM   26  C5  UNL     1      -3.322  -1.949  -0.028  1.00  0.00     0.038 C 
HETATM   27  C4  UNL     1      -3.885  -1.228  -1.208  1.00  0.00     0.030 C 
HETATM   28  C3  UNL     1      -5.414  -1.125  -1.050  1.00  0.00     0.122 C 
HETATM   29  N1  UNL     1      -5.683  -0.594   0.218  1.00  0.00    -0.391 N 
HETATM   30  C21 UNL     1      -5.188  -1.296   1.355  1.00  0.00     0.122 C 
HETATM   31  C20 UNL     1      -3.655  -1.241   1.272  1.00  0.00     0.030 C 
BRANCH  29  32
HETATM   32  C2  UNL     1      -6.492   0.519   0.417  1.00  0.00     0.084 C 
BRANCH  32  33
HETATM   33  C1  UNL     1      -5.857   1.793  -0.057  1.00  0.00     0.208 C 
BRANCH  33  34
HETATM   34  O1  UNL     1      -5.581   1.789  -1.390  1.00  0.00    -0.396 OA
ATOM     35  H1  UNL     1      -5.179   2.596  -1.690  1.00  0.00     0.209 HD
ENDBRANCH  33  34
ENDBRANCH  32  33
ENDBRANCH  29  32
ENDBRANCH   1  26
TORSDOF 8
