REMARK  9 active torsions:
REMARK  status: ('A' for Active; 'I' for Inactive)
REMARK    1  A    between atoms: N1_1  and  C1_4 
REMARK    2  A    between atoms: C3_7  and  C4_8 
REMARK    3  A    between atoms: C4_8  and  N3_9 
REMARK    4  A    between atoms: C4_8  and  O1_13 
REMARK    5  A    between atoms: N7_22  and  C7_23 
REMARK    6  A    between atoms: C7_23  and  C8_24 
REMARK    7  A    between atoms: C7_23  and  C14_41 
REMARK       I    between atoms: N8_27  and  C11_29 
REMARK       I    between atoms: C11_29  and  N9_30 
REMARK       I    between atoms: C11_29  and  N10_34 
REMARK    8  A    between atoms: C14_41  and  O2_42 
REMARK    9  A    between atoms: C14_41  and  C15_44 
ROOT
HETATM    1  C7  UNL     1       0.665  -1.232  -1.648  1.00  0.00     0.201 C 
ENDROOT
BRANCH   1   2
HETATM    2  N7  UNL     1      -0.523  -1.340  -0.847  1.00  0.00    -0.197 N 
HETATM    3  N6  UNL     1      -0.738  -2.376  -0.055  1.00  0.00    -0.223 N 
HETATM    4  N5  UNL     1      -1.885  -2.268   0.584  1.00  0.00    -0.266 N 
ATOM      5  H6  UNL     1      -0.096  -3.162   0.049  1.00  0.00     0.210 HD
HETATM    6  C6  UNL     1      -2.404  -1.111   0.167  1.00  0.00     0.171 A 
ATOM      7  H5  UNL     1      -2.288  -2.925   1.252  1.00  0.00     0.190 HD
HETATM    8  C5  UNL     1      -3.582  -0.452   0.474  1.00  0.00     0.106 A 
HETATM    9  N12 UNL     1      -1.562  -0.536  -0.719  1.00  0.00    -0.201 N 
HETATM   10  C3  UNL     1      -3.905   0.756  -0.095  1.00  0.00     0.053 A 
HETATM   11  N4  UNL     1      -4.447  -1.088   1.413  1.00  0.00    -0.098 NA
HETATM   12  C2  UNL     1      -3.012   1.301  -0.994  1.00  0.00     0.104 A 
HETATM   13  C1  UNL     1      -1.842   0.639  -1.294  1.00  0.00     0.149 A 
HETATM   14  N2  UNL     1      -3.335   2.552  -1.591  1.00  0.00    -0.098 NA
BRANCH  10  15
HETATM   15  C4  UNL     1      -5.180   1.412   0.274  1.00  0.00     0.354 C 
BRANCH  15  16
HETATM   16  N3  UNL     1      -5.436   1.400   1.681  1.00  0.00    -0.049 N 
ATOM     17  H33 UNL     1      -5.398   0.449   2.048  1.00  0.00     0.277 HD
ATOM     18  H32 UNL     1      -4.656   1.810   2.195  1.00  0.00     0.277 HD
ATOM     19  H31 UNL     1      -6.314   1.852   1.935  1.00  0.00     0.277 HD
ENDBRANCH  15  16
BRANCH  15  20
HETATM   20  O1  UNL     1      -6.272   0.805  -0.359  1.00  0.00    -0.366 OA
ATOM     21  H1  UNL     1      -7.090   1.226  -0.122  1.00  0.00     0.212 HD
ENDBRANCH  15  20
ENDBRANCH  10  15
BRANCH  13  22
HETATM   22  N1  UNL     1      -1.011   1.147  -2.127  1.00  0.00    -0.382 N 
ATOM     23  H12 UNL     1      -1.224   2.043  -2.565  1.00  0.00     0.157 HD
ATOM     24  H11 UNL     1      -0.145   0.657  -2.349  1.00  0.00     0.157 HD
ENDBRANCH  13  22
ENDBRANCH   1   2
BRANCH   1  25
HETATM   25  C8  UNL     1       1.743  -0.500  -0.874  1.00  0.00    -0.025 A 
HETATM   26  C9  UNL     1       1.617  -0.015   0.344  1.00  0.00     0.040 A 
HETATM   27  C10 UNL     1       2.899   0.621   0.726  1.00  0.00     0.056 A 
HETATM   28  N8  UNL     1       3.133   1.198   1.855  1.00  0.00    -0.339 N 
HETATM   29  C12 UNL     1       3.763   0.434  -0.426  1.00  0.00     0.073 A 
HETATM   30  C11 UNL     1       4.363   1.819   2.249  1.00  0.00     0.480 C 
ATOM     31  H8  UNL     1       2.370   1.214   2.532  1.00  0.00     0.163 HD
HETATM   32  N9  UNL     1       5.388   0.849   2.594  1.00  0.00    -0.033 N 
HETATM   33  N10 UNL     1       4.176   2.692   3.407  1.00  0.00    -0.033 N 
ATOM     34  H93 UNL     1       5.056   0.203   3.310  1.00  0.00     0.278 HD
ATOM     35  H92 UNL     1       5.538   0.186   1.833  1.00  0.00     0.278 HD
ATOM     36  H91 UNL     1       6.263   1.291   2.874  1.00  0.00     0.278 HD
ATOM     37 3H10 UNL     1       3.446   3.384   3.238  1.00  0.00     0.278 HD
ATOM     38 2H10 UNL     1       3.744   2.193   4.185  1.00  0.00     0.278 HD
ATOM     39 1H10 UNL     1       5.051   3.134   3.687  1.00  0.00     0.278 HD
HETATM   40  N11 UNL     1       5.119   0.887  -0.526  1.00  0.00    -0.100 NA
HETATM   41  C13 UNL     1       3.080  -0.219  -1.351  1.00  0.00     0.038 A 
ENDBRANCH   1  25
BRANCH   1  42
HETATM   42  C14 UNL     1       1.144  -2.637  -1.983  1.00  0.00     0.249 C 
BRANCH  42  43
HETATM   43  O2  UNL     1       0.090  -3.243  -2.686  1.00  0.00    -0.382 OA
ATOM     44  H2  UNL     1       0.389  -4.120  -2.895  1.00  0.00     0.210 HD
ENDBRANCH  42  43
BRANCH  42  45
HETATM   45  C15 UNL     1       1.614  -3.425  -0.862  1.00  0.00     0.205 C 
HETATM   46  O3  UNL     1       2.510  -3.007  -0.107  1.00  0.00    -0.646 OA
HETATM   47  O4  UNL     1       1.093  -4.668  -0.585  1.00  0.00    -0.646 OA
ENDBRANCH  42  45
ENDBRANCH   1  42
TORSDOF 9
