REMARK  11 active torsions:
REMARK  status: ('A' for Active; 'I' for Inactive)
REMARK    1  A    between atoms: N1_2  and  C2_3 
REMARK    2  A    between atoms: N1_2  and  C12_38 
REMARK    3  A    between atoms: C2_3  and  C3_4 
REMARK    4  A    between atoms: N2_6  and  N3_7 
REMARK    5  A    between atoms: C7_14  and  N5_15 
REMARK    6  A    between atoms: C8_20  and  N7_21 
REMARK       I    between atoms: N7_21  and  C9_23 
REMARK    7  A    between atoms: N9_25  and  O1_27 
REMARK    8  A    between atoms: N10_29  and  C10_30 
REMARK    9  A    between atoms: C12_38  and  O3_39 
REMARK   10  A    between atoms: C12_38  and  C13_41 
REMARK   11  A    between atoms: C13_41  and  N14_42 
ROOT
HETATM    1  C3  UNL     1      -0.862   0.351  -0.010  1.00  0.00     0.075 A 
HETATM    2  C4  UNL     1      -0.482  -0.899  -0.092  1.00  0.00     0.147 A 
HETATM    3  N2  UNL     1       0.910  -1.240  -0.039  1.00  0.00    -0.264 N 
HETATM    4  C5  UNL     1       1.878  -0.217   0.103  1.00  0.00     0.145 A 
HETATM    5  C6  UNL     1       1.457   1.087   0.187  1.00  0.00     0.162 A 
HETATM    6  N4  UNL     1       2.405   2.056   0.321  1.00  0.00    -0.174 N 
ATOM      7  H4  UNL     1       2.135   3.037   0.387  1.00  0.00     0.186 HD
HETATM    8  C7  UNL     1       3.700   1.703   0.365  1.00  0.00     0.679 A 
HETATM    9  N6  UNL     1       4.114   0.408   0.282  1.00  0.00    -0.174 N 
ATOM     10  H6  UNL     1       5.110   0.193   0.321  1.00  0.00     0.186 HD
HETATM   11  C8  UNL     1       3.224  -0.587   0.149  1.00  0.00     0.156 A 
HETATM   12  N10 UNL     1       0.081   1.425   0.134  1.00  0.00    -0.274 N 
ENDROOT
BRANCH   1  13
HETATM   13  C2  UNL     1      -2.279   0.761  -0.060  1.00  0.00     0.119 C 
BRANCH  13  14
HETATM   14  N1  UNL     1      -3.165  -0.307  -0.250  1.00  0.00    -0.365 N 
HETATM   15  C1  UNL     1      -3.227  -0.966  -1.481  1.00  0.00     0.151 C 
BRANCH  14  16
HETATM   16  C12 UNL     1      -4.040  -0.647   0.790  1.00  0.00     0.244 C 
BRANCH  16  17
HETATM   17  O3  UNL     1      -3.770  -1.928   1.262  1.00  0.00    -0.375 OA
ATOM     18  H3  UNL     1      -4.363  -2.159   1.967  1.00  0.00     0.212 HD
ENDBRANCH  16  17
BRANCH  16  19
HETATM   19  C13 UNL     1      -5.501  -0.438   0.573  1.00  0.00     0.282 C 
BRANCH  19  20
HETATM   20  N14 UNL     1      -6.100  -1.342  -0.378  1.00  0.00    -0.075 N 
ATOM     21 3H14 UNL     1      -5.600  -1.305  -1.266  1.00  0.00     0.274 HD
ATOM     22 2H14 UNL     1      -5.915  -2.310  -0.113  1.00  0.00     0.274 HD
ATOM     23 1H14 UNL     1      -7.099  -1.199  -0.526  1.00  0.00     0.274 HD
ENDBRANCH  19  20
ENDBRANCH  16  19
ENDBRANCH  14  16
ENDBRANCH  13  14
ENDBRANCH   1  13
BRANCH  12  24
HETATM   24  C10 UNL     1      -0.348   2.770   0.215  1.00  0.00     0.179 A 
HETATM   25  N11 UNL     1      -0.653   3.395   1.372  1.00  0.00    -0.222 N 
HETATM   26  O2  UNL     1      -1.004   4.603   1.104  1.00  0.00    -0.154 OA
ATOM     27  H11 UNL     1      -0.612   2.979   2.302  1.00  0.00     0.198 HD
HETATM   28  N12 UNL     1      -0.948   4.818  -0.194  1.00  0.00    -0.224 N 
HETATM   29  C11 UNL     1      -0.539   3.688  -0.796  1.00  0.00     0.184 A 
ATOM     30  H12 UNL     1      -1.176   5.694  -0.663  1.00  0.00     0.198 HD
HETATM   31  N13 UNL     1      -0.322   3.405  -2.170  1.00  0.00    -0.077 NA
ENDBRANCH  12  24
BRANCH   3  32
HETATM   32  N3  UNL     1       1.311  -2.590  -0.131  1.00  0.00    -0.338 N 
ATOM     33  H32 UNL     1       0.613  -3.327  -0.233  1.00  0.00     0.177 HD
ATOM     34  H31 UNL     1       2.301  -2.833  -0.093  1.00  0.00     0.177 HD
ENDBRANCH   3  32
BRANCH  11  35
HETATM   35  N7  UNL     1       3.521  -1.814   0.067  1.00  0.00    -0.313 N 
HETATM   36  C9  UNL     1       4.874  -2.232   0.110  1.00  0.00     0.213 C 
HETATM   37  N8  UNL     1       5.460  -2.677  -1.098  1.00  0.00    -0.061 NA
HETATM   38  N9  UNL     1       5.552  -2.213   1.226  1.00  0.00    -0.241 N 
ATOM     39  H9  UNL     1       5.106  -1.893   2.086  1.00  0.00     0.197 HD
ATOM     40  H7  UNL     1       2.780  -2.508  -0.031  1.00  0.00     0.170 HD
BRANCH  38  41
HETATM   41  O1  UNL     1       6.847  -2.617   1.246  1.00  0.00    -0.287 OA
ATOM     42  H1  UNL     1       7.340  -2.603   2.058  1.00  0.00     0.244 HD
ENDBRANCH  38  41
ENDBRANCH  11  35
BRANCH   8  43
HETATM   43  N5  UNL     1       4.621   2.598   0.490  1.00  0.00    -0.234 N 
ATOM     44  H52 UNL     1       4.311   3.568   0.552  1.00  0.00     0.174 HD
ATOM     45  H51 UNL     1       5.605   2.330   0.523  1.00  0.00     0.174 HD
ENDBRANCH   8  43
TORSDOF 11
