REMARK  7 active torsions:
REMARK  status: ('A' for Active; 'I' for Inactive)
REMARK    1  A    between atoms: C2_2  and  N1_4 
REMARK    2  A    between atoms: N1_4  and  N2_6 
REMARK       I    between atoms: N2_6  and  C4_8 
REMARK       I    between atoms: C4_8  and  N3_9 
REMARK       I    between atoms: C4_8  and  N8_26 
REMARK    3  A    between atoms: N3_9  and  N4_11 
REMARK    4  A    between atoms: N4_11  and  C5_13 
REMARK    5  A    between atoms: C6_18  and  S1_19 
REMARK    6  A    between atoms: S1_19  and  N7_20 
REMARK    7  A    between atoms: N8_26  and  N9_28 
ROOT
HETATM    1  N2  UNL     1      -2.372   0.070  -1.141  1.00  0.00    -0.129 N 
ATOM      2  H2  UNL     1      -2.891  -0.112  -2.000  1.00  0.00     0.205 HD
HETATM    3  C4  UNL     1      -1.307  -0.626  -0.929  1.00  0.00     0.730 C 
HETATM    4  N3  UNL     1      -0.564  -0.392   0.259  1.00  0.00    -0.126 N 
ATOM      5  H3  UNL     1      -0.819  -0.893   1.110  1.00  0.00     0.206 HD
HETATM    6  N8  UNL     1      -0.943  -1.589  -1.909  1.00  0.00    -0.069 N 
ATOM      7  H8  UNL     1      -0.853  -2.563  -1.621  1.00  0.00     0.212 HD
ENDROOT
BRANCH   4   8
HETATM    8  N4  UNL     1       0.516   0.513   0.295  1.00  0.00    -0.249 N 
ATOM      9  H4  UNL     1       0.351   1.514   0.400  1.00  0.00     0.191 HD
BRANCH   8  10
HETATM   10  C5  UNL     1       1.721   0.051   0.192  1.00  0.00     0.261 A 
HETATM   11  N5  UNL     1       2.122  -1.228   0.047  1.00  0.00    -0.261 N 
HETATM   12  N6  UNL     1       3.443  -1.194  -0.013  1.00  0.00    -0.265 N 
ATOM     13  H5  UNL     1       1.527  -2.055  -0.006  1.00  0.00     0.190 HD
HETATM   14  C6  UNL     1       3.864   0.086   0.092  1.00  0.00     0.284 A 
ATOM     15  H6  UNL     1       4.049  -2.007  -0.122  1.00  0.00     0.190 HD
HETATM   16  O3  UNL     1       2.782   0.818   0.216  1.00  0.00    -0.247 OA
BRANCH  14  17
HETATM   17  S1  UNL     1       5.502   0.698   0.072  1.00  0.00     0.297 S 
HETATM   18  O1  UNL     1       5.491   2.121  -0.445  1.00  0.00    -0.197 OA
HETATM   19  O2  UNL     1       6.332  -0.175  -0.801  1.00  0.00    -0.197 OA
BRANCH  17  20
HETATM   20  N7  UNL     1       6.068   0.721   1.697  1.00  0.00    -0.321 N 
ATOM     21  H72 UNL     1       5.533   0.427   2.514  1.00  0.00     0.169 HD
ATOM     22  H71 UNL     1       7.023   1.078   1.685  1.00  0.00     0.169 HD
ENDBRANCH  17  20
ENDBRANCH  14  17
ENDBRANCH   8  10
ENDBRANCH   4   8
BRANCH   1  23
HETATM   23  N1  UNL     1      -2.863   1.043  -0.292  1.00  0.00    -0.295 N 
ATOM     24  H1  UNL     1      -2.454   1.976  -0.337  1.00  0.00     0.186 HD
BRANCH  23  25
HETATM   25  C2  UNL     1      -3.808   0.831   0.551  1.00  0.00    -0.004 C 
HETATM   26  C1  UNL     1      -4.249   1.955   1.409  1.00  0.00     0.064 C 
HETATM   27  C3  UNL     1      -4.438  -0.502   0.661  1.00  0.00     0.064 C 
ENDBRANCH  23  25
ENDBRANCH   1  23
BRANCH   6  28
HETATM   28  N9  UNL     1      -0.703  -1.269  -3.243  1.00  0.00    -0.024 N 
HETATM   29  O4  UNL     1      -1.101  -0.185  -3.697  1.00  0.00    -0.516 OA
HETATM   30  O5  UNL     1      -0.033  -2.148  -4.038  1.00  0.00    -0.516 OA
ENDBRANCH   6  28
TORSDOF 7
