REMARK  5 active torsions:
REMARK  status: ('A' for Active; 'I' for Inactive)
REMARK    1  A    between atoms: C2_2  and  C3_3 
REMARK    2  A    between atoms: C3_3  and  O1_4 
REMARK    3  A    between atoms: O1_4  and  C4_5 
REMARK    4  A    between atoms: C7_9  and  O2_10 
REMARK    5  A    between atoms: C8_12  and  O3_13 
ROOT
HETATM    1  C4  UNL     1       0.306  -0.354  -0.658  1.00  0.00     0.214 C 
HETATM    2  S1  UNL     1      -0.891  -1.516  -1.432  1.00  0.00    -0.135 SA
HETATM    3  C5  UNL     1      -2.338  -1.636  -0.321  1.00  0.00     0.079 C 
HETATM    4  C6  UNL     1      -2.393  -0.373   0.521  1.00  0.00     0.045 C 
HETATM    5  C7  UNL     1      -1.885   0.817  -0.267  1.00  0.00     0.150 C 
HETATM    6  C8  UNL     1      -0.381   0.879  -0.177  1.00  0.00     0.185 C 
ENDROOT
BRANCH   1   7
HETATM    7  O1  UNL     1       0.850  -1.002   0.444  1.00  0.00    -0.369 OA
BRANCH   7   8
HETATM    8  C3  UNL     1       2.192  -1.189   0.260  1.00  0.00     0.196 C 
BRANCH   8   9
HETATM    9  C2  UNL     1       2.887   0.104   0.115  1.00  0.00    -0.011 C 
HETATM   10  C1  UNL     1       3.834   0.426   0.986  1.00  0.00     0.009 C 
ENDBRANCH   8   9
ENDBRANCH   7   8
ENDBRANCH   1   7
BRANCH   6  11
HETATM   11  O3  UNL     1       0.093   2.016  -0.881  1.00  0.00    -0.390 OA
ATOM     12  H3  UNL     1      -0.345   2.802  -0.575  1.00  0.00     0.210 HD
ENDBRANCH   6  11
BRANCH   5  13
HETATM   13  O2  UNL     1      -2.372   1.973   0.384  1.00  0.00    -0.393 OA
ATOM     14  H2  UNL     1      -2.053   2.719  -0.110  1.00  0.00     0.210 HD
ENDBRANCH   5  13
TORSDOF 5
