REMARK  4 active torsions:
REMARK  status: ('A' for Active; 'I' for Inactive)
REMARK    1  A    between atoms: N1_1  and  C1_5 
REMARK    2  A    between atoms: C1_5  and  C2_6 
REMARK    3  A    between atoms: C5_9  and  C6_10 
REMARK    4  A    between atoms: C6_10  and  N2_11 
ROOT
HETATM    1  C2  UNL     1       2.751  -0.220   0.643  1.00  0.00     0.211 C 
HETATM    2  C3  UNL     1       2.418  -0.877  -0.686  1.00  0.00     0.037 C 
HETATM    3  C4  UNL     1       0.914  -0.806  -0.750  1.00  0.00     0.037 C 
HETATM    4  C5  UNL     1       0.538  -0.050   0.476  1.00  0.00     0.204 C 
HETATM    5  N3  UNL     1       1.679   0.752   0.793  1.00  0.00    -0.064 N 
ATOM      6  H31 UNL     1       1.781   1.606   0.244  1.00  0.00     0.278 HD
ATOM      7  H32 UNL     1       1.643   1.229   1.694  1.00  0.00     0.278 HD
ENDROOT
BRANCH   4   8
HETATM    8  C6  UNL     1      -0.712   0.743   0.158  1.00  0.00     0.149 C 
BRANCH   8   9
HETATM    9  N2  UNL     1      -1.720  -0.185  -0.203  1.00  0.00    -0.406 N 
HETATM   10  C7  UNL     1      -2.246  -1.027   0.812  1.00  0.00     0.143 C 
HETATM   11  C8  UNL     1      -3.647  -0.621   1.238  1.00  0.00     0.187 C 
HETATM   12  O1  UNL     1      -4.435  -0.315   0.147  1.00  0.00    -0.388 OA
HETATM   13  C9  UNL     1      -3.917   0.636  -0.691  1.00  0.00     0.187 C 
HETATM   14  C10 UNL     1      -2.600   0.158  -1.252  1.00  0.00     0.143 C 
ENDBRANCH   8   9
ENDBRANCH   4   8
BRANCH   1  15
HETATM   15  C1  UNL     1       4.102   0.394   0.593  1.00  0.00     0.262 C 
BRANCH  15  16
HETATM   16  N1  UNL     1       4.284   1.407  -0.389  1.00  0.00    -0.077 N 
ATOM     17  H13 UNL     1       4.031   1.048  -1.310  1.00  0.00     0.274 HD
ATOM     18  H12 UNL     1       3.576   2.133  -0.275  1.00  0.00     0.274 HD
ATOM     19  H11 UNL     1       5.212   1.829  -0.423  1.00  0.00     0.274 HD
ENDBRANCH  15  16
ENDBRANCH   1  15
TORSDOF 4
