REMARK  5 active torsions:
REMARK  status: ('A' for Active; 'I' for Inactive)
REMARK    1  A    between atoms: C2_2  and  N1_4 
REMARK    2  A    between atoms: C6_7  and  O1_8 
REMARK    3  A    between atoms: O1_8  and  C7_9 
REMARK    4  A    between atoms: C12_15  and  C13_16 
REMARK    5  A    between atoms: C16_19  and  N2_20 
REMARK       I    between atoms: N2_20  and  C17_22 
REMARK       I    between atoms: C17_22  and  N3_24 
ROOT
HETATM    1  C7  UNL     1      -1.959  -2.304   0.434  1.00  0.00     0.101 A 
HETATM    2  C8  UNL     1      -2.976  -3.126   0.925  1.00  0.00     0.068 A 
HETATM    3 CL1  UNL     1      -4.382  -3.474  -0.020  1.00  0.00    -0.081 Cl
HETATM    4  C9  UNL     1      -2.874  -3.695   2.164  1.00  0.00     0.027 A 
HETATM    5  C10 UNL     1      -1.760  -3.448   2.914  1.00  0.00     0.003 A 
HETATM    6  C11 UNL     1      -0.778  -2.652   2.423  1.00  0.00     0.014 A 
HETATM    7  C12 UNL     1      -0.838  -2.040   1.138  1.00  0.00     0.001 A 
ENDROOT
BRANCH   7   8
HETATM    8  C13 UNL     1       0.384  -1.431   0.702  1.00  0.00    -0.067 C 
HETATM    9  C14 UNL     1       1.230  -0.823   1.812  1.00  0.00     0.037 C 
HETATM   10  C15 UNL     1       1.925   0.430   1.418  1.00  0.00     0.029 C 
HETATM   11  C16 UNL     1       2.636   0.453   0.120  1.00  0.00     0.086 C 
HETATM   12  C22 UNL     1       2.124  -0.646  -0.777  1.00  0.00     0.029 C 
HETATM   13  C23 UNL     1       0.589  -0.669  -0.513  1.00  0.00     0.037 C 
BRANCH  11  14
HETATM   14  N2  UNL     1       4.082   0.468   0.249  1.00  0.00    -0.338 N 
HETATM   15  C17 UNL     1       4.887   1.410  -0.385  1.00  0.00     0.318 C 
HETATM   16  O2  UNL     1       4.314   2.294  -1.118  1.00  0.00    -0.247 OA
HETATM   17  N3  UNL     1       6.277   1.488  -0.300  1.00  0.00    -0.330 N 
HETATM   18  C18 UNL     1       7.065   2.492  -1.021  1.00  0.00     0.153 C 
HETATM   19  C21 UNL     1       7.037   0.582   0.523  1.00  0.00     0.153 C 
HETATM   20  C19 UNL     1       8.277   1.743  -1.557  1.00  0.00     0.187 C 
HETATM   21  O3  UNL     1       7.979   0.377  -1.686  1.00  0.00    -0.388 OA
HETATM   22  C20 UNL     1       7.896  -0.249  -0.426  1.00  0.00     0.187 C 
ATOM     23  H2  UNL     1       4.527  -0.243   0.829  1.00  0.00     0.164 HD
ENDBRANCH  11  14
ENDBRANCH   7   8
BRANCH   1  24
HETATM   24  O1  UNL     1      -2.174  -1.771  -0.826  1.00  0.00    -0.343 OA
BRANCH  24  25
HETATM   25  C6  UNL     1      -3.149  -0.756  -0.917  1.00  0.00     0.132 C 
HETATM   26  C5  UNL     1      -3.946  -0.779  -2.204  1.00  0.00     0.052 C 
HETATM   27  C4  UNL     1      -5.178   0.106  -1.998  1.00  0.00     0.119 C 
HETATM   28  N1  UNL     1      -5.080   0.904  -0.840  1.00  0.00    -0.409 N 
HETATM   29  C25 UNL     1      -3.863   1.590  -0.632  1.00  0.00     0.119 C 
HETATM   30  C24 UNL     1      -2.702   0.669  -0.754  1.00  0.00     0.052 C 
BRANCH  28  31
HETATM   31  C2  UNL     1      -6.254   1.411  -0.275  1.00  0.00     0.070 C 
HETATM   32  C1  UNL     1      -7.234   0.380   0.229  1.00  0.00     0.031 C 
HETATM   33  C3  UNL     1      -6.005   2.359   0.899  1.00  0.00     0.031 C 
ENDBRANCH  28  31
ENDBRANCH  24  25
ENDBRANCH   1  24
TORSDOF 5
