REMARK  8 active torsions:
REMARK  status: ('A' for Active; 'I' for Inactive)
REMARK    1  A    between atoms: C7_7  and  N1_8 
REMARK       I    between atoms: N1_8  and  C8_10 
REMARK    2  A    between atoms: C8_10  and  C9_12 
REMARK    3  A    between atoms: C9_12  and  O2_13 
REMARK    4  A    between atoms: O2_13  and  C10_14 
REMARK    5  A    between atoms: C11_15  and  S1_16 
REMARK    6  A    between atoms: C14_23  and  C15_24 
REMARK    7  A    between atoms: C16_25  and  C17_26 
REMARK    8  A    between atoms: C20_29  and  C21_30 
ROOT
HETATM    1  C10 UNL     1      -1.628  -1.435   0.019  1.00  0.00     0.101 A 
HETATM    2  C11 UNL     1      -1.862  -2.697   0.548  1.00  0.00     0.103 A 
HETATM    3  C13 UNL     1      -3.140  -3.002   0.932  1.00  0.00     0.126 A 
HETATM    4 CL1  UNL     1      -3.423  -4.608   1.602  1.00  0.00    -0.063 Cl
HETATM    5  N2  UNL     1      -4.113  -2.108   0.797  1.00  0.00    -0.338 N 
ATOM      6  H2  UNL     1      -5.053  -2.369   1.096  1.00  0.00     0.167 HD
HETATM    7  C14 UNL     1      -3.921  -0.841   0.273  1.00  0.00     0.097 A 
HETATM    8  C20 UNL     1      -2.676  -0.479  -0.128  1.00  0.00     0.020 A 
ENDROOT
BRANCH   1   9
HETATM    9  O2  UNL     1      -0.348  -1.198  -0.347  1.00  0.00    -0.340 OA
BRANCH   9  10
HETATM   10  C9  UNL     1       0.736  -0.906   0.476  1.00  0.00     0.278 C 
BRANCH  10  11
HETATM   11  C8  UNL     1       1.988  -0.661  -0.325  1.00  0.00     0.242 C 
HETATM   12  N1  UNL     1       3.185  -0.341   0.323  1.00  0.00    -0.354 N 
ATOM     13  H1  UNL     1       3.170  -0.282   1.341  1.00  0.00     0.162 HD
HETATM   14  O1  UNL     1       1.897  -0.757  -1.564  1.00  0.00    -0.271 OA
BRANCH  12  15
HETATM   15  C7  UNL     1       4.441  -0.088  -0.345  1.00  0.00     0.088 C 
HETATM   16  C2  UNL     1       4.901   1.342  -0.150  1.00  0.00     0.004 C 
HETATM   17  C1  UNL     1       4.063   2.317  -0.960  1.00  0.00     0.012 C 
HETATM   18  C3  UNL     1       6.326   1.472  -0.637  1.00  0.00     0.006 C 
HETATM   19  C4  UNL     1       7.239   0.766   0.344  1.00  0.00     0.001 C 
HETATM   20  C5  UNL     1       6.546  -0.416   0.979  1.00  0.00     0.002 C 
HETATM   21  C6  UNL     1       5.525  -1.033   0.037  1.00  0.00     0.025 C 
ENDBRANCH  12  15
ENDBRANCH  10  11
ENDBRANCH   9  10
ENDBRANCH   1   9
BRANCH   2  22
HETATM   22  S1  UNL     1      -0.565  -3.888   0.704  1.00  0.00     0.051 S 
HETATM   23  C12 UNL     1      -0.468  -4.873  -0.775  1.00  0.00     0.133 C 
HETATM   24  O3  UNL     1      -0.989  -4.891   2.002  1.00  0.00    -0.253 OA
ENDBRANCH   2  22
BRANCH   8  25
HETATM   25  C21 UNL     1      -2.388   0.793  -0.748  1.00  0.00    -0.018 C 
HETATM   26  C22 UNL     1      -3.534   1.727  -0.949  1.00  0.00     0.019 C 
HETATM   27  C23 UNL     1      -1.712   0.567  -2.141  1.00  0.00     0.019 C 
HETATM   28  C24 UNL     1      -1.359   1.663   0.007  1.00  0.00     0.019 C 
ENDBRANCH   8  25
BRANCH   7  29
HETATM   29  C15 UNL     1      -5.132  -0.065   0.252  1.00  0.00    -0.048 C 
HETATM   30  C16 UNL     1      -6.156   0.528   0.264  1.00  0.00    -0.095 C 
BRANCH  30  31
HETATM   31  C17 UNL     1      -7.408   1.279   0.266  1.00  0.00     0.065 A 
HETATM   32  C18 UNL     1      -7.284   2.723   0.614  1.00  0.00     0.018 A 
HETATM   33  C19 UNL     1      -7.954   1.782   1.595  1.00  0.00     0.018 A 
ENDBRANCH  30  31
ENDBRANCH   7  29
TORSDOF 8
