REMARK  3 active torsions:
REMARK  status: ('A' for Active; 'I' for Inactive)
REMARK    1  A    between atoms: C10_10  and  O1_11 
REMARK    2  A    between atoms: N1_14  and  O2_16 
REMARK    3  A    between atoms: O2_16  and  C12_17 
ROOT
HETATM    1  C1  UNL     1      -5.295  -1.667   0.452  1.00  0.00     0.010 C 
HETATM    2  C2  UNL     1      -4.417  -1.282  -0.708  1.00  0.00    -0.018 C 
HETATM    3  C3  UNL     1      -4.854   0.122  -1.138  1.00  0.00     0.005 C 
HETATM    4  C4  UNL     1      -3.666   0.794  -1.744  1.00  0.00     0.010 C 
HETATM    5  C5  UNL     1      -2.651   1.169  -0.656  1.00  0.00    -0.040 C 
HETATM    6  C6  UNL     1      -3.234   2.410   0.032  1.00  0.00     0.015 C 
HETATM    7  C7  UNL     1      -1.372   1.483  -1.333  1.00  0.00     0.010 C 
HETATM    8  C8  UNL     1      -0.134   1.130  -0.596  1.00  0.00     0.009 C 
HETATM    9  C9  UNL     1      -0.398   1.093   0.881  1.00  0.00     0.025 C 
HETATM   10  C10 UNL     1       0.857   0.532   1.564  1.00  0.00     0.170 C 
HETATM   11  C11 UNL     1       0.879  -0.834   0.988  1.00  0.00     0.039 C 
HETATM   12  N1  UNL     1       1.927  -1.471   0.657  1.00  0.00    -0.272 N 
ATOM     13  H1  UNL     1       1.798  -2.406   0.270  1.00  0.00     0.193 HD
HETATM   14  C17 UNL     1      -0.541  -1.257   0.893  1.00  0.00     0.062 C 
HETATM   15  C18 UNL     1      -1.373  -0.037   1.140  1.00  0.00     0.003 C 
HETATM   16  C19 UNL     1      -2.614   0.049   0.320  1.00  0.00    -0.001 C 
HETATM   17  C20 UNL     1      -2.955  -1.291  -0.348  1.00  0.00     0.010 C 
ENDROOT
BRANCH  10  18
HETATM   18  O1  UNL     1       0.664   0.507   2.943  1.00  0.00    -0.389 OA
ATOM     19  H1  UNL     1       1.441   0.160   3.366  1.00  0.00     0.210 HD
ENDBRANCH  10  18
BRANCH  12  20
HETATM   20  O2  UNL     1       3.197  -1.024   0.770  1.00  0.00    -0.275 OA
BRANCH  20  21
HETATM   21  C12 UNL     1       4.035  -0.698  -0.338  1.00  0.00     0.155 C 
HETATM   22  C13 UNL     1       4.465   0.726  -0.173  1.00  0.00     0.062 C 
HETATM   23  C14 UNL     1       5.968   0.885  -0.161  1.00  0.00     0.235 C 
HETATM   24  N2  UNL     1       6.475   0.166  -1.319  1.00  0.00    -0.075 N 
HETATM   25  C15 UNL     1       6.386  -1.231  -1.052  1.00  0.00     0.235 C 
ATOM     26  H22 UNL     1       6.003   0.431  -2.184  1.00  0.00     0.277 HD
ATOM     27  H21 UNL     1       7.417   0.457  -1.580  1.00  0.00     0.277 HD
HETATM   28  C16 UNL     1       5.175  -1.675  -0.325  1.00  0.00     0.062 C 
ENDBRANCH  20  21
ENDBRANCH  12  20
TORSDOF 3
