REMARK  10 active torsions:
REMARK  status: ('A' for Active; 'I' for Inactive)
REMARK    1  A    between atoms: C2_2  and  C4_4 
REMARK    2  A    between atoms: C4_4  and  N1_5 
REMARK    3  A    between atoms: C4_4  and  C10_17 
REMARK       I    between atoms: N1_5  and  C5_7 
REMARK    4  A    between atoms: C5_7  and  C6_9 
REMARK    5  A    between atoms: C6_9  and  N2_10 
REMARK    6  A    between atoms: C9_14  and  O2_15 
REMARK       I    between atoms: C10_17  and  N3_19 
REMARK    7  A    between atoms: C14_23  and  C15_24 
REMARK       I    between atoms: C15_24  and  N4_26 
REMARK    8  A    between atoms: N4_26  and  C16_28 
REMARK    9  A    between atoms: C17_29  and  C18_30 
REMARK   10  A    between atoms: C22_36  and  C23_37 
ROOT
HETATM    1  C10 UNL     1       1.055  -0.409  -0.888  1.00  0.00     0.243 C 
HETATM    2  O3  UNL     1       0.446  -0.433   0.206  1.00  0.00    -0.271 OA
HETATM    3  N3  UNL     1       0.450   0.303  -1.973  1.00  0.00    -0.337 N 
HETATM    4  C11 UNL     1       1.125   0.456  -3.232  1.00  0.00     0.127 C 
HETATM    5  C12 UNL     1      -0.063   0.265  -4.187  1.00  0.00     0.022 C 
HETATM    6  C13 UNL     1      -1.149   1.079  -3.496  1.00  0.00     0.037 C 
HETATM    7  C14 UNL     1      -0.798   0.965  -2.054  1.00  0.00     0.179 C 
ENDROOT
BRANCH   1   8
HETATM    8  C4  UNL     1       2.341  -1.118  -0.940  1.00  0.00     0.180 C 
BRANCH   8   9
HETATM    9  C2  UNL     1       2.168  -2.622  -1.106  1.00  0.00     0.009 C 
HETATM   10  C1  UNL     1       1.399  -2.995  -2.348  1.00  0.00     0.012 C 
HETATM   11  C3  UNL     1       1.630  -3.300   0.113  1.00  0.00     0.012 C 
ENDBRANCH   8   9
BRANCH   8  12
HETATM   12  N1  UNL     1       3.095  -0.921   0.310  1.00  0.00    -0.346 N 
HETATM   13  C5  UNL     1       4.409  -0.389   0.350  1.00  0.00     0.246 C 
HETATM   14  O1  UNL     1       4.943  -0.075  -0.763  1.00  0.00    -0.272 OA
ATOM     15  H1  UNL     1       2.650  -1.180   1.190  1.00  0.00     0.163 HD
BRANCH  13  16
HETATM   16  C6  UNL     1       5.155  -0.191   1.590  1.00  0.00     0.379 C 
BRANCH  16  17
HETATM   17  N2  UNL     1       6.460   0.321   1.361  1.00  0.00     0.136 N 
HETATM   18  C7  UNL     1       7.116   0.724   2.604  1.00  0.00     0.287 C 
HETATM   19  C8  UNL     1       7.179  -0.503   3.500  1.00  0.00     0.108 C 
HETATM   20  S1  UNL     1       7.681  -1.731   2.225  1.00  0.00    -0.105 SA
HETATM   21  C9  UNL     1       7.363  -0.653   0.763  1.00  0.00     0.422 C 
BRANCH  21  22
HETATM   22  O2  UNL     1       8.529  -0.083   0.307  1.00  0.00    -0.360 OA
ATOM     23  H2  UNL     1       9.118  -0.718  -0.083  1.00  0.00     0.213 HD
ENDBRANCH  21  22
ENDBRANCH  16  17
ENDBRANCH  13  16
ENDBRANCH   8  12
ENDBRANCH   1   8
BRANCH   7  24
HETATM   24  C15 UNL     1      -1.899   0.338  -1.278  1.00  0.00     0.241 C 
HETATM   25  O4  UNL     1      -1.899  -0.913  -1.165  1.00  0.00    -0.271 OA
HETATM   26  N4  UNL     1      -2.905   1.141  -0.691  1.00  0.00    -0.351 N 
ATOM     27  H4  UNL     1      -2.852   2.152  -0.817  1.00  0.00     0.163 HD
BRANCH  26  28
HETATM   28  C16 UNL     1      -3.988   0.610   0.068  1.00  0.00     0.128 C 
HETATM   29  C17 UNL     1      -3.593   0.820   1.547  1.00  0.00     0.158 C 
HETATM   30  O5  UNL     1      -4.658   1.547   2.139  1.00  0.00    -0.313 OA
HETATM   31  C21 UNL     1      -5.779   1.486   1.374  1.00  0.00     0.266 C 
HETATM   32  O6  UNL     1      -6.959   1.627   1.712  1.00  0.00    -0.265 OA
HETATM   33  C22 UNL     1      -5.311   1.204  -0.013  1.00  0.00     0.114 C 
BRANCH  29  34
HETATM   34  C18 UNL     1      -3.333  -0.479   2.250  1.00  0.00     0.009 C 
HETATM   35  C19 UNL     1      -4.488  -1.426   2.297  1.00  0.00     0.012 C 
HETATM   36  C20 UNL     1      -2.939  -0.160   3.682  1.00  0.00     0.012 C 
ENDBRANCH  29  34
BRANCH  33  37
HETATM   37  C23 UNL     1      -5.553   2.376  -0.917  1.00  0.00    -0.007 C 
HETATM   38  C24 UNL     1      -5.258   2.026  -2.343  1.00  0.00     0.010 C 
HETATM   39  C25 UNL     1      -4.977   3.669  -0.439  1.00  0.00     0.010 C 
ENDBRANCH  33  37
ENDBRANCH  26  28
ENDBRANCH   7  24
TORSDOF 10
