REMARK  4 active torsions:
REMARK  status: ('A' for Active; 'I' for Inactive)
REMARK    1  A    between atoms: C7_8  and  O2_9 
REMARK    2  A    between atoms: C8_11  and  O3_12 
REMARK    3  A    between atoms: C10_15  and  C11_16 
REMARK    4  A    between atoms: C11_16  and  C12_17 
ROOT
HETATM    1  C1  UNL     1       1.174   2.863   0.048  1.00  0.00     0.012 C 
HETATM    2  C2  UNL     1       1.186   1.373   0.373  1.00  0.00     0.009 C 
HETATM    3  C3  UNL     1       0.054   1.102   1.312  1.00  0.00     0.173 C 
HETATM    4  O1  UNL     1      -0.582  -0.092   1.055  1.00  0.00    -0.377 OA
HETATM    5  C4  UNL     1      -1.203  -0.084  -0.182  1.00  0.00     0.089 C 
HETATM    6  C5  UNL     1      -1.712  -1.479  -0.510  1.00  0.00     0.043 C 
HETATM    7  C6  UNL     1      -2.991  -1.631   0.304  1.00  0.00     0.037 C 
HETATM    8  C7  UNL     1      -3.238  -0.282   0.945  1.00  0.00     0.150 C 
HETATM    9  C8  UNL     1      -2.538   0.651  -0.004  1.00  0.00     0.181 C 
HETATM   10  C9  UNL     1      -0.387   0.513  -1.277  1.00  0.00     0.045 C 
HETATM   11  C10 UNL     1       1.069   0.578  -0.903  1.00  0.00    -0.006 C 
ENDROOT
BRANCH   9  12
HETATM   12  O3  UNL     1      -3.188   0.580  -1.247  1.00  0.00    -0.390 OA
ATOM     13  H3  UNL     1      -4.015   1.035  -1.137  1.00  0.00     0.210 HD
ENDBRANCH   9  12
BRANCH   8  14
HETATM   14  O2  UNL     1      -4.592  -0.008   1.079  1.00  0.00    -0.393 OA
ATOM     15  H2  UNL     1      -4.747   0.839   1.481  1.00  0.00     0.210 HD
ENDBRANCH   8  14
BRANCH  11  16
HETATM   16  C11 UNL     1       1.688  -0.797  -0.792  1.00  0.00     0.010 C 
BRANCH  16  17
HETATM   17  C12 UNL     1       3.162  -0.721  -0.463  1.00  0.00    -0.014 A 
HETATM   18  C13 UNL     1       3.832  -2.072  -0.340  1.00  0.00     0.005 A 
HETATM   19  C14 UNL     1       3.660  -1.210   0.853  1.00  0.00     0.005 A 
ENDBRANCH  16  17
ENDBRANCH  11  16
TORSDOF 4
