REMARK  10 active torsions:
REMARK  status: ('A' for Active; 'I' for Inactive)
REMARK    1  A    between atoms: O1_2  and  C2_3 
REMARK    2  A    between atoms: C2_3  and  C3_4 
REMARK    3  A    between atoms: C3_4  and  N1_6 
REMARK    4  A    between atoms: N1_6  and  C5_8 
REMARK    5  A    between atoms: C5_8  and  C6_9 
REMARK    6  A    between atoms: C8_13  and  C9_14 
REMARK    7  A    between atoms: N4_19  and  C12_21 
REMARK    8  A    between atoms: C19_32  and  O4_33 
REMARK    9  A    between atoms: O4_33  and  C20_34 
REMARK   10  A    between atoms: C20_34  and  C21_35 
ROOT
HETATM    1  C6  UNL     1      -2.716   0.161   0.431  1.00  0.00     0.010 A 
HETATM    2  C7  UNL     1      -2.285  -0.580   1.499  1.00  0.00     0.100 A 
HETATM    3  N2  UNL     1      -0.949  -0.434   1.590  1.00  0.00    -0.362 N 
ATOM      4  H2  UNL     1      -0.339  -0.862   2.286  1.00  0.00     0.165 HD
HETATM    5  C8  UNL     1      -0.561   0.402   0.566  1.00  0.00     0.078 A 
HETATM    6  C19 UNL     1      -1.628   0.755  -0.143  1.00  0.00     0.105 A 
ENDROOT
BRANCH   5   7
HETATM    7  C9  UNL     1       0.864   0.608   0.381  1.00  0.00     0.011 A 
HETATM    8  C10 UNL     1       1.620  -0.515  -0.013  1.00  0.00     0.103 A 
HETATM    9  N3  UNL     1       2.912  -0.524  -0.059  1.00  0.00    -0.350 N 
HETATM   10  C11 UNL     1       3.676   0.539   0.241  1.00  0.00     0.123 A 
ATOM     11  H3  UNL     1       3.377  -1.387  -0.339  1.00  0.00     0.166 HD
HETATM   12  N4  UNL     1       4.907   0.571   0.275  1.00  0.00    -0.370 N 
HETATM   13  C17 UNL     1       2.969   1.689   0.635  1.00  0.00     0.078 A 
ATOM     14  H4  UNL     1       5.308   1.479   0.512  1.00  0.00     0.161 HD
HETATM   15 CL1  UNL     1       3.851   3.115   1.139  1.00  0.00    -0.080 Cl
HETATM   16  C18 UNL     1       1.579   1.705   0.703  1.00  0.00     0.043 A 
BRANCH  12  17
HETATM   17  C12 UNL     1       5.870  -0.476   0.032  1.00  0.00     0.084 C 
HETATM   18  C13 UNL     1       6.915  -0.035  -0.912  1.00  0.00     0.040 C 
HETATM   19  C14 UNL     1       8.307  -0.073  -0.353  1.00  0.00     0.142 C 
HETATM   20  S1  UNL     1       8.581  -1.682   0.362  1.00  0.00     0.144 S 
HETATM   21  O2  UNL     1       8.361  -2.716  -0.683  1.00  0.00    -0.228 OA
HETATM   22  O3  UNL     1       9.928  -1.769   1.020  1.00  0.00    -0.228 OA
HETATM   23  C15 UNL     1       7.278  -1.915   1.572  1.00  0.00     0.142 C 
HETATM   24  C16 UNL     1       6.371  -0.758   1.456  1.00  0.00     0.040 C 
ENDBRANCH  12  17
ENDBRANCH   5   7
BRANCH   6  25
HETATM   25  O4  UNL     1      -1.833   1.515  -1.246  1.00  0.00    -0.347 OA
BRANCH  25  26
HETATM   26  C20 UNL     1      -1.520   1.305  -2.582  1.00  0.00     0.191 C 
BRANCH  26  27
HETATM   27  C21 UNL     1      -2.374   2.358  -3.317  1.00  0.00     0.072 C 
HETATM   28  C22 UNL     1      -2.305   3.687  -2.637  1.00  0.00     0.027 C 
HETATM   29  C23 UNL     1      -2.365   4.412  -3.918  1.00  0.00     0.075 C 
HETATM   30  S2  UNL     1      -1.306   3.141  -4.648  1.00  0.00    -0.162 SA
ENDBRANCH  26  27
ENDBRANCH  25  26
ENDBRANCH   6  25
BRANCH   1  31
HETATM   31  C5  UNL     1      -4.215   0.199  -0.043  1.00  0.00     0.157 C 
BRANCH  31  32
HETATM   32  N1  UNL     1      -4.820  -0.364   1.072  1.00  0.00    -0.411 N 
ATOM     33  H1  UNL     1      -4.547   0.053   1.962  1.00  0.00     0.153 HD
BRANCH  32  34
HETATM   34  C3  UNL     1      -5.716  -1.380   1.171  1.00  0.00     0.096 C 
HETATM   35  C4  UNL     1      -5.669  -2.150  -0.211  1.00  0.00     0.034 C 
BRANCH  34  36
HETATM   36  C2  UNL     1      -7.117  -1.089   1.434  1.00  0.00     0.191 C 
BRANCH  36  37
HETATM   37  O1  UNL     1      -7.877  -2.232   1.811  1.00  0.00    -0.394 OA
HETATM   38  C1  UNL     1      -7.256  -2.802   2.935  1.00  0.00     0.201 C 
ENDBRANCH  36  37
ENDBRANCH  34  36
ENDBRANCH  32  34
ENDBRANCH  31  32
ENDBRANCH   1  31
TORSDOF 10
