REMARK  12 active torsions:
REMARK  status: ('A' for Active; 'I' for Inactive)
REMARK    1  A    between atoms: C4_4  and  C5_5 
REMARK    2  A    between atoms: N1_7  and  C6_9 
REMARK    3  A    between atoms: N3_12  and  N4_13 
REMARK    4  A    between atoms: C9_22  and  N7_23 
REMARK    5  A    between atoms: N7_23  and  O1_25 
REMARK    6  A    between atoms: O1_25  and  C10_26 
REMARK    7  A    between atoms: C10_26  and  C12_29 
REMARK    8  A    between atoms: C12_29  and  N9_30 
REMARK    9  A    between atoms: N9_30  and  N10_32 
REMARK   10  A    between atoms: N10_32  and  C13_33 
REMARK   11  A    between atoms: C13_33  and  C14_34 
REMARK   12  A    between atoms: C14_34  and  N11_35 
ROOT
HETATM    1  C10 UNL     1      -1.414  -2.300   0.445  1.00  0.00     0.313 C 
HETATM    2  C11 UNL     1      -1.310  -3.305  -0.667  1.00  0.00     0.100 C 
HETATM    3  N8  UNL     1      -1.216  -4.088  -1.506  1.00  0.00    -0.194 NA
ENDROOT
BRANCH   1   4
HETATM    4  O1  UNL     1      -0.712  -1.214   0.281  1.00  0.00    -0.252 OA
BRANCH   4   5
HETATM    5  N7  UNL     1       0.165  -0.291   0.345  1.00  0.00    -0.246 N 
ATOM      6  H7  UNL     1       0.374   0.044   1.285  1.00  0.00     0.196 HD
BRANCH   5   7
HETATM    7  C9  UNL     1       0.831   0.286  -0.607  1.00  0.00     0.171 A 
HETATM    8  C6  UNL     1       1.703   1.237  -0.307  1.00  0.00     0.124 A 
HETATM    9  C7  UNL     1       2.393   1.883  -1.329  1.00  0.00     0.186 A 
HETATM   10  N2  UNL     1       3.311   2.903  -0.987  1.00  0.00    -0.077 NA
HETATM   11  N3  UNL     1       2.180   1.539  -2.610  1.00  0.00    -0.077 N 
HETATM   12  C8  UNL     1       1.289   0.562  -2.924  1.00  0.00     0.700 A 
HETATM   13  N5  UNL     1       1.065   0.220  -4.104  1.00  0.00    -0.233 N 
HETATM   14  N6  UNL     1       0.616  -0.061  -1.908  1.00  0.00    -0.171 N 
ATOM     15  H52 UNL     1       1.567   0.684  -4.861  1.00  0.00     0.174 HD
ATOM     16  H51 UNL     1       0.396  -0.513  -4.340  1.00  0.00     0.174 HD
ATOM     17  H6  UNL     1      -0.056  -0.796  -2.127  1.00  0.00     0.186 HD
BRANCH   8  18
HETATM   18  N1  UNL     1       2.014   1.668   1.069  1.00  0.00    -0.342 N 
HETATM   19  C5  UNL     1       3.120   1.086   1.580  1.00  0.00     0.110 C 
HETATM   20  S1  UNL     1       3.007   2.320   3.202  1.00  0.00    -0.030 SA
ATOM     21  H1  UNL     1       1.448   2.341   1.585  1.00  0.00     0.167 HD
BRANCH  19  22
HETATM   22  C4  UNL     1       4.246   0.494   2.100  1.00  0.00     0.091 A 
HETATM   23  C3  UNL     1       5.477   0.415   1.383  1.00  0.00     0.068 A 
HETATM   24  C2  UNL     1       6.360  -0.318   2.133  1.00  0.00     0.074 A 
HETATM   25  C1  UNL     1       7.778  -0.653   1.747  1.00  0.00     0.079 C 
HETATM   26  O3  UNL     1       5.747  -0.662   3.218  1.00  0.00    -0.242 OA
HETATM   27  N14 UNL     1       4.529  -0.204   3.217  1.00  0.00    -0.258 N 
ATOM     28  H14 UNL     1       3.864  -0.356   3.976  1.00  0.00     0.195 HD
ENDBRANCH  19  22
ENDBRANCH   8  18
BRANCH  11  29
HETATM   29  N4  UNL     1       2.868   2.150  -3.646  1.00  0.00    -0.323 N 
ATOM     30  H42 UNL     1       3.537   2.883  -3.410  1.00  0.00     0.178 HD
ATOM     31  H41 UNL     1       2.706   1.889  -4.619  1.00  0.00     0.178 HD
ENDBRANCH  11  29
ENDBRANCH   5   7
ENDBRANCH   4   5
ENDBRANCH   1   4
BRANCH   1  32
HETATM   32  C12 UNL     1      -2.902  -2.083   0.563  1.00  0.00     0.115 C 
HETATM   33  C15 UNL     1      -3.651  -3.050   0.998  1.00  0.00     0.176 A 
HETATM   34  N12 UNL     1      -3.413  -4.410   1.438  1.00  0.00    -0.222 N 
HETATM   35  N13 UNL     1      -5.012  -3.348   1.252  1.00  0.00    -0.222 N 
HETATM   36  O2  UNL     1      -4.740  -4.624   1.549  1.00  0.00    -0.153 OA
ATOM     37  H12 UNL     1      -2.580  -4.976   1.599  1.00  0.00     0.198 HD
ATOM     38  H13 UNL     1      -5.871  -2.799   1.221  1.00  0.00     0.198 HD
BRANCH  32  39
HETATM   39  N9  UNL     1      -3.445  -0.839   0.183  1.00  0.00    -0.301 N 
ATOM     40  H9  UNL     1      -2.805  -0.075  -0.034  1.00  0.00     0.182 HD
BRANCH  39  41
HETATM   41  N10 UNL     1      -4.817  -0.603   0.090  1.00  0.00    -0.139 NA
BRANCH  41  42
HETATM   42  C13 UNL     1      -5.036   0.804   0.381  1.00  0.00     0.162 C 
BRANCH  42  43
HETATM   43  C14 UNL     1      -6.519   1.169   0.293  1.00  0.00     0.247 C 
BRANCH  43  44
HETATM   44  N11 UNL     1      -6.688   2.585   0.612  1.00  0.00    -0.078 N 
ATOM     45 3H11 UNL     1      -6.283   2.829   1.516  1.00  0.00     0.274 HD
ATOM     46 2H11 UNL     1      -6.107   3.185   0.027  1.00  0.00     0.274 HD
ATOM     47 1H11 UNL     1      -7.677   2.828   0.553  1.00  0.00     0.274 HD
ENDBRANCH  43  44
ENDBRANCH  42  43
ENDBRANCH  41  42
ENDBRANCH  39  41
ENDBRANCH  32  39
ENDBRANCH   1  32
TORSDOF 12
