REMARK  3 active torsions:
REMARK  status: ('A' for Active; 'I' for Inactive)
REMARK    1  A    between atoms: C2_2  and  C4_4 
REMARK    2  A    between atoms: C4_4  and  C5_5 
REMARK    3  A    between atoms: C10_10  and  O1_11 
ROOT
HETATM    1  C5  UNL     1       1.317   0.336   0.116  1.00  0.00     0.029 C 
HETATM    2  C6  UNL     1       0.242   1.004   1.001  1.00  0.00     0.044 C 
HETATM    3  C7  UNL     1      -1.026   0.847   0.255  1.00  0.00    -0.074 C 
HETATM    4  C8  UNL     1      -1.584  -0.196  -0.311  1.00  0.00    -0.048 C 
HETATM    5  C9  UNL     1      -2.894   0.031  -0.987  1.00  0.00     0.068 C 
HETATM    6  C10 UNL     1      -3.858   0.825  -0.167  1.00  0.00     0.122 C 
HETATM    7  C11 UNL     1      -3.178   1.832   0.731  1.00  0.00     0.036 C 
HETATM    8  C12 UNL     1      -1.796   2.140   0.139  1.00  0.00     0.037 C 
HETATM    9  C13 UNL     1      -1.140  -1.586  -0.400  1.00  0.00     0.086 C 
HETATM   10  C14 UNL     1      -2.269  -2.457   0.116  1.00  0.00     0.043 C 
HETATM   11 CL1  UNL     1      -0.955  -1.951  -2.156  1.00  0.00    -0.109 Cl
HETATM   12  C15 UNL     1       0.142  -1.893   0.236  1.00  0.00     0.000 A 
HETATM   13  C16 UNL     1       0.445  -3.144   0.730  1.00  0.00     0.151 A 
HETATM   14  O2  UNL     1       1.658  -3.083   1.244  1.00  0.00    -0.334 OA
HETATM   15  C17 UNL     1       2.170  -1.881   1.121  1.00  0.00     0.149 A 
HETATM   16  C18 UNL     1       1.253  -1.104   0.494  1.00  0.00    -0.021 A 
ENDROOT
BRANCH   1  17
HETATM   17  C4  UNL     1       2.615   0.984   0.431  1.00  0.00     0.042 C 
BRANCH  17  18
HETATM   18  C2  UNL     1       3.777   0.518  -0.342  1.00  0.00    -0.092 C 
HETATM   19  C1  UNL     1       3.789  -0.333  -1.337  1.00  0.00     0.014 C 
HETATM   20  C3  UNL     1       5.110   1.090   0.085  1.00  0.00     0.042 C 
ENDBRANCH  17  18
ENDBRANCH   1  17
BRANCH   6  21
HETATM   21  O1  UNL     1      -4.735   1.478  -1.051  1.00  0.00    -0.395 OA
ATOM     22  H1  UNL     1      -5.348   1.983  -0.530  1.00  0.00     0.210 HD
ENDBRANCH   6  21
TORSDOF 3
