REMARK  4 active torsions:
REMARK  status: ('A' for Active; 'I' for Inactive)
REMARK    1  A    between atoms: C2_2  and  C5_5 
REMARK    2  A    between atoms: C5_5  and  N1_7 
REMARK    3  A    between atoms: N1_7  and  C6_9 
REMARK    4  A    between atoms: C6_9  and  C7_10 
ROOT
HETATM    1  C6  UNL     1      -0.995   0.249  -0.029  1.00  0.00     0.059 C 
HETATM    2  C11 UNL     1      -1.633  -0.266   1.223  1.00  0.00     0.039 C 
HETATM    3  C12 UNL     1      -2.256  -1.609   1.197  1.00  0.00     0.040 C 
HETATM    4  C13 UNL     1      -3.204  -1.699   0.048  1.00  0.00     0.170 C 
HETATM    5  F1  UNL     1      -3.800  -2.959  -0.035  1.00  0.00    -0.249 F 
HETATM    6  C14 UNL     1      -2.442  -1.489  -1.213  1.00  0.00     0.040 C 
HETATM    7  C15 UNL     1      -1.587  -0.265  -1.276  1.00  0.00     0.039 C 
ENDROOT
BRANCH   1   8
HETATM    8  N1  UNL     1       0.429   0.160  -0.047  1.00  0.00    -0.370 N 
ATOM      9  H1  UNL     1       0.883   1.067   0.066  1.00  0.00     0.161 HD
BRANCH   8  10
HETATM   10  C5  UNL     1       1.326  -0.870  -0.182  1.00  0.00     0.082 C 
HETATM   11  S1  UNL     1       0.928  -2.401  -0.436  1.00  0.00    -0.065 SA
BRANCH  10  12
HETATM   12  C2  UNL     1       2.784  -0.563  -0.122  1.00  0.00     0.002 C 
HETATM   13  C1  UNL     1       3.135   0.280  -1.335  1.00  0.00     0.022 C 
HETATM   14  C3  UNL     1       3.655  -1.774  -0.120  1.00  0.00     0.022 C 
HETATM   15  C4  UNL     1       3.058   0.334   1.085  1.00  0.00     0.022 C 
ENDBRANCH  10  12
ENDBRANCH   8  10
ENDBRANCH   1   8
BRANCH   1  16
HETATM   16  C7  UNL     1      -1.224   1.780   0.019  1.00  0.00    -0.023 A 
HETATM   17  C8  UNL     1      -1.206   2.493   1.162  1.00  0.00     0.017 A 
HETATM   18  C9  UNL     1      -1.391   3.836   1.090  1.00  0.00     0.050 A 
HETATM   19  S2  UNL     1      -1.593   4.121  -0.571  1.00  0.00    -0.113 SA
HETATM   20  C10 UNL     1      -1.431   2.488  -1.132  1.00  0.00     0.059 A 
ENDBRANCH   1  16
TORSDOF 4
