REMARK  3 active torsions:
REMARK  status: ('A' for Active; 'I' for Inactive)
REMARK    1  A    between atoms: C2_2  and  O1_3 
REMARK    2  A    between atoms: C9_11  and  C10_12 
REMARK    3  A    between atoms: C11_13  and  C12_14 
ROOT
HETATM    1  C1  UNL     1      -3.476  -1.674   1.447  1.00  0.00     0.046 C 
HETATM    2  C2  UNL     1      -3.244  -0.530   0.455  1.00  0.00     0.058 C 
HETATM    3  C3  UNL     1      -3.946   0.666   0.985  1.00  0.00     0.038 C 
HETATM    4  C4  UNL     1      -3.468   1.975   0.469  1.00  0.00     0.004 C 
HETATM    5  C5  UNL     1      -1.991   2.053   0.226  1.00  0.00     0.010 C 
HETATM    6  C6  UNL     1      -1.470   0.841  -0.527  1.00  0.00    -0.037 C 
HETATM    7  C7  UNL     1      -2.150   0.824  -1.873  1.00  0.00     0.015 C 
HETATM    8  C8  UNL     1       0.000   1.073  -0.764  1.00  0.00     0.018 C 
HETATM    9  C9  UNL     1       0.748  -0.186  -1.096  1.00  0.00     0.009 C 
HETATM   10  C17 UNL     1       0.363  -1.354  -0.262  1.00  0.00     0.009 C 
HETATM   11  C18 UNL     1      -1.156  -1.584  -0.328  1.00  0.00     0.009 C 
HETATM   12  C19 UNL     1      -1.775  -0.361   0.298  1.00  0.00     0.028 C 
ENDROOT
BRANCH   9  13
HETATM   13  C10 UNL     1       2.210   0.106  -0.902  1.00  0.00    -0.021 C 
HETATM   14  C11 UNL     1       2.963  -0.609  -0.108  1.00  0.00     0.009 C 
BRANCH  14  15
HETATM   15  C12 UNL     1       4.364  -0.325   0.075  1.00  0.00    -0.021 A 
HETATM   16  C13 UNL     1       5.113  -1.133   0.942  1.00  0.00     0.017 A 
HETATM   17  C14 UNL     1       6.439  -0.862   1.114  1.00  0.00     0.062 A 
HETATM   18  C15 UNL     1       7.032   0.185   0.449  1.00  0.00     0.188 A 
HETATM   19  F1  UNL     1       8.349   0.412   0.653  1.00  0.00    -0.186 F 
HETATM   20  N1  UNL     1       6.292   0.942  -0.375  1.00  0.00    -0.342 N 
HETATM   21  C16 UNL     1       4.961   0.714  -0.582  1.00  0.00     0.101 A 
ATOM     22  H1  UNL     1       6.740   1.716  -0.865  1.00  0.00     0.167 HD
ENDBRANCH  14  15
ENDBRANCH   9  13
BRANCH   2  23
HETATM   23  O1  UNL     1      -3.803  -0.984  -0.761  1.00  0.00    -0.390 OA
ATOM     24  H1  UNL     1      -3.659  -0.275  -1.376  1.00  0.00     0.210 HD
ENDBRANCH   2  23
TORSDOF 3
