REMARK  7 active torsions:
REMARK  status: ('A' for Active; 'I' for Inactive)
REMARK    1  A    between atoms: O1_2  and  C2_3 
REMARK    2  A    between atoms: C2_3  and  C3_5 
REMARK    3  A    between atoms: C8_10  and  C9_11 
REMARK    4  A    between atoms: C8_10  and  C10_18 
REMARK    5  A    between atoms: C9_11  and  O3_12 
REMARK    6  A    between atoms: N1_14  and  O4_16 
REMARK    7  A    between atoms: C10_18  and  C12_21 
ROOT
HETATM    1  C10 UNL     1      -0.539   1.725  -0.317  1.00  0.00     0.171 C 
HETATM    2  C11 UNL     1      -0.666   2.343   0.997  1.00  0.00     0.072 C 
HETATM    3  N2  UNL     1      -0.746   2.840   2.041  1.00  0.00    -0.196 NA
ENDROOT
BRANCH   1   4
HETATM    4  C8  UNL     1      -0.757   0.228  -0.189  1.00  0.00     0.061 C 
HETATM    5  C3  UNL     1       0.153  -0.495   0.707  1.00  0.00     0.104 C 
HETATM    6  C4  UNL     1       0.004  -1.994   0.443  1.00  0.00     0.016 C 
HETATM    7  C5  UNL     1       0.358  -2.414  -0.936  1.00  0.00     0.001 C 
HETATM    8  C6  UNL     1       0.179  -1.320  -1.957  1.00  0.00     0.001 C 
HETATM    9  C7  UNL     1      -0.948  -0.387  -1.569  1.00  0.00     0.020 C 
BRANCH   5  10
HETATM   10  C2  UNL     1       1.569  -0.183   0.763  1.00  0.00     0.263 C 
HETATM   11  O2  UNL     1       2.400  -1.063   0.406  1.00  0.00    -0.265 OA
BRANCH  10  12
HETATM   12  O1  UNL     1       2.160   1.003   1.173  1.00  0.00    -0.326 OA
HETATM   13  C1  UNL     1       3.563   1.161   1.174  1.00  0.00     0.213 C 
ENDBRANCH  10  12
ENDBRANCH   5  10
BRANCH   4  14
HETATM   14  C9  UNL     1      -2.115   0.144   0.434  1.00  0.00     0.146 C 
HETATM   15  N1  UNL     1      -2.368  -0.420   1.556  1.00  0.00    -0.250 N 
ATOM     16  H1  UNL     1      -1.596  -0.845   2.070  1.00  0.00     0.196 HD
BRANCH  14  17
HETATM   17  O3  UNL     1      -3.170   0.719  -0.254  1.00  0.00    -0.347 OA
ATOM     18  H3  UNL     1      -4.032   0.666   0.142  1.00  0.00     0.219 HD
ENDBRANCH  14  17
BRANCH  15  19
HETATM   19  O4  UNL     1      -3.619  -0.480   2.096  1.00  0.00    -0.288 OA
ATOM     20  H4  UNL     1      -3.807  -0.898   2.928  1.00  0.00     0.244 HD
ENDBRANCH  15  19
ENDBRANCH   4  14
ENDBRANCH   1   4
BRANCH   1  21
HETATM   21  C12 UNL     1       0.587   2.151  -1.124  1.00  0.00     0.251 C 
HETATM   22  O5  UNL     1       0.951   3.332  -0.986  1.00  0.00    -0.305 OA
ENDBRANCH   1  21
TORSDOF 7
