REMARK  15 active torsions:
REMARK  status: ('A' for Active; 'I' for Inactive)
REMARK    1  A    between atoms: N1_1  and  C1_4 
REMARK    2  A    between atoms: C1_4  and  N2_5 
REMARK    3  A    between atoms: C1_4  and  C9_24 
REMARK    4  A    between atoms: N2_5  and  C2_7 
REMARK    5  A    between atoms: C4_9  and  N3_10 
REMARK    6  A    between atoms: C5_14  and  N4_15 
REMARK    7  A    between atoms: C7_20  and  C8_21 
REMARK    8  A    between atoms: C8_21  and  O1_22 
REMARK    9  A    between atoms: C9_24  and  C10_25 
REMARK   10  A    between atoms: C9_24  and  N10_45 
REMARK   11  A    between atoms: C11_31  and  O2_32 
REMARK   12  A    between atoms: O2_32  and  C12_33 
REMARK   13  A    between atoms: C15_38  and  N8_39 
REMARK   14  A    between atoms: C17_49  and  C18_50 
REMARK   15  A    between atoms: C19_53  and  O8_54 
ROOT
HETATM    1  C9  UNL     1       0.241   1.595   0.755  1.00  0.00     0.206 C 
ENDROOT
BRANCH   1   2
HETATM    2  C1  UNL     1      -0.874   1.065  -0.029  1.00  0.00     0.099 C 
BRANCH   2   3
HETATM    3  N1  UNL     1      -1.136   1.513  -1.186  1.00  0.00    -0.387 N 
ATOM      4  H12 UNL     1      -1.914   1.143  -1.733  1.00  0.00     0.157 HD
ATOM      5  H11 UNL     1      -0.544   2.253  -1.563  1.00  0.00     0.157 HD
ENDBRANCH   2   3
BRANCH   2   6
HETATM    6  N2  UNL     1      -1.699   0.033   0.497  1.00  0.00    -0.373 N 
ATOM      7  H2  UNL     1      -1.774  -0.067   1.509  1.00  0.00     0.161 HD
BRANCH   6   8
HETATM    8  C2  UNL     1      -2.435  -0.879  -0.346  1.00  0.00     0.091 C 
HETATM    9  C3  UNL     1      -3.445  -0.137  -1.211  1.00  0.00     0.060 C 
HETATM   10  C4  UNL     1      -4.739  -0.911  -1.354  1.00  0.00     0.215 C 
HETATM   11  C5  UNL     1      -5.451  -1.165  -0.068  1.00  0.00     0.214 C 
HETATM   12  C6  UNL     1      -4.459  -1.303   1.044  1.00  0.00     0.043 C 
HETATM   13  C7  UNL     1      -3.180  -1.895   0.440  1.00  0.00     0.034 C 
BRANCH  10  14
HETATM   14  N3  UNL     1      -5.611  -0.159  -2.256  1.00  0.00    -0.073 N 
ATOM     15  H33 UNL     1      -5.757   0.804  -1.954  1.00  0.00     0.274 HD
ATOM     16  H32 UNL     1      -5.171   0.046  -3.153  1.00  0.00     0.274 HD
ATOM     17  H31 UNL     1      -6.482  -0.680  -2.352  1.00  0.00     0.274 HD
ENDBRANCH  10  14
BRANCH  11  18
HETATM   18  N4  UNL     1      -6.182  -2.434  -0.211  1.00  0.00    -0.073 N 
ATOM     19  H43 UNL     1      -6.804  -2.446  -1.019  1.00  0.00     0.274 HD
ATOM     20  H42 UNL     1      -5.582  -3.209  -0.493  1.00  0.00     0.274 HD
ATOM     21  H41 UNL     1      -6.669  -2.608   0.668  1.00  0.00     0.274 HD
ENDBRANCH  11  18
BRANCH  13  22
HETATM   22  C8  UNL     1      -2.429  -2.576   1.530  1.00  0.00     0.170 C 
BRANCH  22  23
HETATM   23  O1  UNL     1      -3.337  -3.488   2.123  1.00  0.00    -0.400 OA
ATOM     24  H1  UNL     1      -2.858  -3.923   2.819  1.00  0.00     0.209 HD
ENDBRANCH  22  23
ENDBRANCH  13  22
ENDBRANCH   6   8
ENDBRANCH   2   6
ENDBRANCH   1   2
BRANCH   1  25
HETATM   25  C10 UNL     1       1.280   0.570   1.154  1.00  0.00     0.277 C 
HETATM   26  N5  UNL     1       0.733  -0.494   1.948  1.00  0.00    -0.090 NA
HETATM   27  N6  UNL     1       1.318  -1.730   1.621  1.00  0.00    -0.241 N 
HETATM   28  N7  UNL     1       2.559  -1.885   1.102  1.00  0.00    -0.247 N 
ATOM     29  H6  UNL     1       0.767  -2.572   1.787  1.00  0.00     0.204 HD
HETATM   30  C11 UNL     1       2.986  -0.875   0.265  1.00  0.00     0.289 C 
ATOM     31  H7  UNL     1       3.140  -2.696   1.316  1.00  0.00     0.192 HD
HETATM   32  O5  UNL     1       2.079   0.123   0.095  1.00  0.00    -0.288 OA
BRANCH  30  33
HETATM   33  O2  UNL     1       4.152  -1.203  -0.109  1.00  0.00    -0.255 OA
BRANCH  33  34
HETATM   34  C12 UNL     1       5.296  -1.525  -0.477  1.00  0.00     0.160 A 
HETATM   35  C13 UNL     1       5.595  -2.026  -1.763  1.00  0.00     0.139 A 
HETATM   36  C14 UNL     1       6.864  -2.361  -2.076  1.00  0.00     0.294 A 
HETATM   37  O3  UNL     1       7.199  -2.821  -3.222  1.00  0.00    -0.260 OA
HETATM   38  O4  UNL     1       7.848  -2.237  -1.222  1.00  0.00    -0.242 OA
HETATM   39  C15 UNL     1       7.628  -1.782  -0.035  1.00  0.00     0.226 A 
HETATM   40  N9  UNL     1       6.413  -1.430   0.356  1.00  0.00    -0.302 N 
ATOM     41  H9  UNL     1       6.288  -1.075   1.304  1.00  0.00     0.171 HD
BRANCH  39  42
HETATM   42  N8  UNL     1       8.619  -1.660   0.812  1.00  0.00    -0.365 N 
ATOM     43  H82 UNL     1       9.555  -1.931   0.511  1.00  0.00     0.159 HD
ATOM     44  H81 UNL     1       8.445  -1.300   1.750  1.00  0.00     0.159 HD
ENDBRANCH  39  42
ENDBRANCH  33  34
ENDBRANCH  30  33
ENDBRANCH   1  25
BRANCH   1  45
HETATM   45  N10 UNL     1       0.932   2.715   0.173  1.00  0.00    -0.306 N 
HETATM   46  C16 UNL     1       1.746   2.729  -0.905  1.00  0.00     0.186 A 
HETATM   47  N11 UNL     1       2.201   3.968  -1.122  1.00  0.00    -0.343 N 
HETATM   48  C17 UNL     1       1.686   4.788  -0.179  1.00  0.00     0.162 A 
ATOM     49  H11 UNL     1       2.831   4.247  -1.874  1.00  0.00     0.167 HD
HETATM   50  C19 UNL     1       0.906   3.990   0.608  1.00  0.00     0.178 A 
BRANCH  48  51
HETATM   51  C18 UNL     1       1.887   6.201  -0.004  1.00  0.00     0.231 C 
HETATM   52  O6  UNL     1       1.324   6.803   0.933  1.00  0.00    -0.643 OA
HETATM   53  O7  UNL     1       2.700   6.901  -0.867  1.00  0.00    -0.643 OA
ENDBRANCH  48  51
BRANCH  50  54
HETATM   54  O8  UNL     1       0.174   4.402   1.712  1.00  0.00    -0.344 OA
ATOM     55  H8  UNL     1       0.156   5.301   2.019  1.00  0.00     0.219 HD
ENDBRANCH  50  54
ENDBRANCH   1  45
TORSDOF 15
