REMARK  9 active torsions:
REMARK  status: ('A' for Active; 'I' for Inactive)
REMARK    1  A    between atoms: C2_2  and  C3_3 
REMARK    2  A    between atoms: N2_7  and  C5_8 
REMARK    3  A    between atoms: C5_8  and  N3_9 
REMARK    4  A    between atoms: N3_9  and  C6_11 
REMARK    5  A    between atoms: C6_11  and  N4_12 
REMARK    6  A    between atoms: C6_11  and  C7_16 
REMARK    7  A    between atoms: C7_16  and  N5_17 
REMARK    8  A    between atoms: N5_17  and  C8_20 
REMARK    9  A    between atoms: C8_20  and  C9_21 
ROOT
HETATM    1  C6  UNL     1      -1.158   0.594   0.144  1.00  0.00     0.304 C 
ENDROOT
BRANCH   1   2
HETATM    2  N3  UNL     1      -0.029  -0.157   0.509  1.00  0.00    -0.378 N 
ATOM      3  H3  UNL     1       0.292  -0.225   1.475  1.00  0.00     0.157 HD
BRANCH   2   4
HETATM    4  C5  UNL     1       0.652  -0.833  -0.590  1.00  0.00     0.251 C 
BRANCH   4   5
HETATM    5  N2  UNL     1       2.040  -0.244  -0.648  1.00  0.00    -0.301 N 
HETATM    6  C4  UNL     1       2.289   0.867  -1.365  1.00  0.00     0.187 A 
HETATM    7  N1  UNL     1       3.553   1.214  -1.214  1.00  0.00    -0.348 N 
HETATM    8  C3  UNL     1       4.142   0.309  -0.376  1.00  0.00     0.089 A 
ATOM      9  H1  UNL     1       4.010   2.017  -1.647  1.00  0.00     0.167 HD
HETATM   10  C10 UNL     1       3.154  -0.596  -0.041  1.00  0.00     0.219 A 
HETATM   11  F3  UNL     1       3.329  -1.650   0.788  1.00  0.00    -0.183 F 
BRANCH   8  12
HETATM   12  C2  UNL     1       5.551   0.417   0.070  1.00  0.00     0.024 C 
HETATM   13  C1  UNL     1       6.187  -0.575   0.607  1.00  0.00     0.013 C 
ENDBRANCH   8  12
ENDBRANCH   4   5
ENDBRANCH   2   4
ENDBRANCH   1   2
BRANCH   1  14
HETATM   14  N4  UNL     1      -1.517   1.330   1.415  1.00  0.00    -0.057 N 
ATOM     15  H43 UNL     1      -1.654   0.729   2.228  1.00  0.00     0.276 HD
ATOM     16  H42 UNL     1      -0.756   1.878   1.815  1.00  0.00     0.276 HD
ATOM     17  H41 UNL     1      -2.337   1.876   1.150  1.00  0.00     0.276 HD
ENDBRANCH   1  14
BRANCH   1  18
HETATM   18  C7  UNL     1      -2.381   0.064  -0.468  1.00  0.00     0.286 C 
BRANCH  18  19
HETATM   19  N5  UNL     1      -3.190  -0.852   0.225  1.00  0.00    -0.067 N 
ATOM     20  H52 UNL     1      -2.699  -1.734   0.371  1.00  0.00     0.277 HD
ATOM     21  H51 UNL     1      -3.313  -0.567   1.197  1.00  0.00     0.277 HD
BRANCH  19  22
HETATM   22  C8  UNL     1      -4.451  -1.070  -0.405  1.00  0.00     0.303 C 
BRANCH  22  23
HETATM   23  C9  UNL     1      -5.456   0.056  -0.322  1.00  0.00     0.378 C 
HETATM   24  F1  UNL     1      -6.621  -0.334  -1.009  1.00  0.00    -0.213 F 
HETATM   25  F2  UNL     1      -5.083   1.275  -0.697  1.00  0.00    -0.213 F 
ENDBRANCH  22  23
ENDBRANCH  19  22
ENDBRANCH  18  19
ENDBRANCH   1  18
TORSDOF 9
