REMARK  1 active torsions:
REMARK  status: ('A' for Active; 'I' for Inactive)
REMARK    1  A    between atoms: O1_3  and  C2_4 
ROOT
HETATM    1  N1  UNL     1       4.487   1.379  -0.604  1.00  0.00    -0.164 NA
HETATM    2  C1  UNL     1       3.391   1.145  -0.273  1.00  0.00     0.229 C 
HETATM    3  O1  UNL     1       2.113   0.887   0.132  1.00  0.00    -0.276 OA
ENDROOT
BRANCH   3   4
HETATM    4  C2  UNL     1       1.403  -0.253  -0.281  1.00  0.00     0.168 C 
HETATM    5  C3  UNL     1       1.025  -1.160   0.853  1.00  0.00     0.066 C 
HETATM    6  C4  UNL     1      -0.391  -1.066   1.282  1.00  0.00     0.275 C 
HETATM    7  N2  UNL     1      -1.351  -1.004   0.223  1.00  0.00     0.095 N 
HETATM    8  C5  UNL     1      -2.132   0.210   0.392  1.00  0.00     0.316 C 
HETATM    9  C8  UNL     1      -0.777  -0.949  -1.090  1.00  0.00     0.300 C 
HETATM   10  C6  UNL     1      -1.262   1.434   0.319  1.00  0.00     0.086 C 
HETATM   11  N3  UNL     1      -0.318   1.442  -0.727  1.00  0.00    -0.392 N 
HETATM   12  C7  UNL     1       0.215   0.173  -1.117  1.00  0.00     0.139 C 
ATOM     13  H3  UNL     1      -0.030   2.308  -1.183  1.00  0.00     0.159 HD
ENDBRANCH   3   4
TORSDOF 1
