REMARK  5 active torsions:
REMARK  status: ('A' for Active; 'I' for Inactive)
REMARK    1  A    between atoms: C5_9  and  O1_10 
REMARK    2  A    between atoms: C5_9  and  C6_12 
REMARK    3  A    between atoms: C6_12  and  N2_13 
REMARK       I    between atoms: N2_13  and  C7_15 
REMARK    4  A    between atoms: C7_15  and  O3_17 
REMARK    5  A    between atoms: O3_17  and  C8_18 
ROOT
HETATM    1  C1  UNL     1      -4.179  -1.605  -0.389  1.00  0.00     0.150 C 
HETATM    2  N1  UNL     1      -3.074  -0.777  -0.691  1.00  0.00    -0.344 N 
HETATM    3  C2  UNL     1      -2.958  -0.386  -2.024  1.00  0.00     0.337 C 
HETATM    4  F1  UNL     1      -2.380  -1.469  -2.713  1.00  0.00    -0.181 F 
HETATM    5  F2  UNL     1      -4.259  -0.333  -2.556  1.00  0.00    -0.181 F 
HETATM    6  C3  UNL     1      -2.227   0.854  -2.337  1.00  0.00     0.180 C 
HETATM    7 CL1  UNL     1      -3.433   2.116  -2.782  1.00  0.00    -0.117 Cl
HETATM    8  C4  UNL     1      -1.253   1.349  -1.331  1.00  0.00     0.070 C 
HETATM    9  C5  UNL     1      -1.259   0.674  -0.010  1.00  0.00     0.100 C 
HETATM   10  C12 UNL     1      -2.549   0.010   0.333  1.00  0.00     0.065 C 
HETATM   11  C13 UNL     1      -2.487  -0.836   1.570  1.00  0.00     0.034 C 
HETATM   12  C14 UNL     1      -2.354   0.102   2.724  1.00  0.00     0.003 C 
HETATM   13  C15 UNL     1      -3.211   1.248   2.316  1.00  0.00     0.003 C 
HETATM   14  C16 UNL     1      -3.498   1.102   0.837  1.00  0.00     0.034 C 
ENDROOT
BRANCH   9  15
HETATM   15  O1  UNL     1      -1.077   1.699   0.952  1.00  0.00    -0.386 OA
ATOM     16  H1  UNL     1      -1.081   1.267   1.798  1.00  0.00     0.210 HD
ENDBRANCH   9  15
BRANCH   9  17
HETATM   17  C6  UNL     1      -0.056  -0.222   0.165  1.00  0.00     0.165 C 
BRANCH  17  18
HETATM   18  N2  UNL     1       1.196   0.477  -0.061  1.00  0.00    -0.334 N 
HETATM   19  C7  UNL     1       2.386  -0.283   0.080  1.00  0.00     0.361 C 
HETATM   20  O2  UNL     1       2.393  -1.505   0.384  1.00  0.00    -0.238 OA
ATOM     21  H2  UNL     1       1.219   1.466  -0.309  1.00  0.00     0.164 HD
BRANCH  19  22
HETATM   22  O3  UNL     1       3.593   0.322  -0.121  1.00  0.00    -0.294 OA
BRANCH  22  23
HETATM   23  C8  UNL     1       4.848  -0.306  -0.016  1.00  0.00     0.061 C 
HETATM   24  C9  UNL     1       5.102  -0.875   1.363  1.00  0.00     0.046 C 
HETATM   25  C10 UNL     1       5.093  -1.345  -1.059  1.00  0.00     0.046 C 
HETATM   26  C11 UNL     1       5.897   0.793  -0.221  1.00  0.00     0.046 C 
ENDBRANCH  22  23
ENDBRANCH  19  22
ENDBRANCH  17  18
ENDBRANCH   9  17
TORSDOF 5
