REMARK  3 active torsions:
REMARK  status: ('A' for Active; 'I' for Inactive)
REMARK    1  A    between atoms: O1_1  and  C1_3 
REMARK    2  A    between atoms: N1_6  and  C4_7 
REMARK    3  A    between atoms: C7_13  and  C8_14 
ROOT
HETATM    1  C4  UNL     1       1.959  -0.670  -0.044  1.00  0.00     0.680 A 
HETATM    2  N2  UNL     1       2.286  -1.999  -0.012  1.00  0.00    -0.199 N 
ATOM      3  H2  UNL     1       3.275  -2.249  -0.025  1.00  0.00     0.183 HD
HETATM    4  C5  UNL     1       1.395  -2.984   0.035  1.00  0.00     0.150 A 
HETATM    5  C6  UNL     1       0.071  -2.659   0.052  1.00  0.00     0.155 A 
HETATM    6  F1  UNL     1      -0.924  -3.598   0.139  1.00  0.00    -0.203 F 
HETATM    7  C7  UNL     1      -0.336  -1.310   0.023  1.00  0.00     0.071 A 
HETATM    8  N4  UNL     1       0.640  -0.390  -0.022  1.00  0.00    -0.192 N 
ATOM      9  H4  UNL     1       0.364   0.592  -0.041  1.00  0.00     0.184 HD
ENDROOT
BRANCH   7  10
HETATM   10  C8  UNL     1      -1.789  -1.034  -0.109  1.00  0.00     0.045 C 
HETATM   11  C9  UNL     1      -2.211  -0.546   1.278  1.00  0.00     0.041 C 
HETATM   12  C10 UNL     1      -3.679  -0.332   1.380  1.00  0.00     0.273 C 
HETATM   13  N3  UNL     1      -4.151   0.727   0.514  1.00  0.00     0.088 N 
HETATM   14  C11 UNL     1      -4.536   0.281  -0.776  1.00  0.00     0.272 C 
HETATM   15  C15 UNL     1      -3.191   1.796   0.428  1.00  0.00     0.272 C 
HETATM   16  C12 UNL     1      -3.409  -0.102  -1.702  1.00  0.00     0.035 C 
HETATM   17  C13 UNL     1      -2.066   0.114  -1.088  1.00  0.00    -0.001 C 
HETATM   18  C14 UNL     1      -1.989   1.458  -0.380  1.00  0.00     0.035 C 
ENDBRANCH   7  10
BRANCH   1  19
HETATM   19  N1  UNL     1       3.019   0.240  -0.200  1.00  0.00    -0.215 N 
HETATM   20  C3  UNL     1       3.445   1.424   0.472  1.00  0.00     0.144 C 
HETATM   21  C2  UNL     1       4.886   1.693   0.015  1.00  0.00     0.054 C 
HETATM   22  C1  UNL     1       5.278   0.360  -0.572  1.00  0.00     0.138 C 
HETATM   23  C16 UNL     1       3.981   0.026  -1.326  1.00  0.00     0.173 C 
BRANCH  22  24
HETATM   24  O1  UNL     1       5.476  -0.555   0.462  1.00  0.00    -0.394 OA
ATOM     25  H1  UNL     1       5.723  -1.395   0.092  1.00  0.00     0.210 HD
ENDBRANCH  22  24
ENDBRANCH   1  19
TORSDOF 3
