REMARK  5 active torsions:
REMARK  status: ('A' for Active; 'I' for Inactive)
REMARK    1  A    between atoms: N1_1  and  N2_4 
REMARK    2  A    between atoms: C1_6  and  N3_7 
REMARK    3  A    between atoms: N3_7  and  N4_9 
REMARK    4  A    between atoms: N4_9  and  S1_11 
REMARK    5  A    between atoms: S1_11  and  C2_14 
ROOT
HETATM    1  S1  UNL     1      -0.099   0.857  -1.402  1.00  0.00     0.310 S 
HETATM    2  O1  UNL     1       0.022   2.208  -2.045  1.00  0.00    -0.196 OA
HETATM    3  O2  UNL     1      -0.315  -0.172  -2.435  1.00  0.00    -0.196 OA
ENDROOT
BRANCH   1   4
HETATM    4  N4  UNL     1      -1.352   0.946  -0.239  1.00  0.00    -0.220 N 
ATOM      5  H4  UNL     1      -1.608   1.804   0.249  1.00  0.00     0.200 HD
BRANCH   4   6
HETATM    6  N3  UNL     1      -1.985  -0.277  -0.029  1.00  0.00    -0.285 N 
ATOM      7  H3  UNL     1      -1.616  -1.138  -0.434  1.00  0.00     0.188 HD
BRANCH   6   8
HETATM    8  C1  UNL     1      -3.162  -0.286   0.768  1.00  0.00     0.213 C 
HETATM    9  N2  UNL     1      -4.303  -0.310   0.207  1.00  0.00    -0.301 N 
ATOM     10  H2  UNL     1      -4.373  -0.323  -0.811  1.00  0.00     0.187 HD
BRANCH   9  11
HETATM   11  N1  UNL     1      -5.460  -0.319   0.988  1.00  0.00    -0.344 N 
ATOM     12  H12 UNL     1      -5.373  -0.306   2.004  1.00  0.00     0.176 HD
ATOM     13  H11 UNL     1      -6.375  -0.338   0.538  1.00  0.00     0.176 HD
ENDBRANCH   9  11
ENDBRANCH   6   8
ENDBRANCH   4   6
ENDBRANCH   1   4
BRANCH   1  14
HETATM   14  C2  UNL     1       1.387   0.479  -0.547  1.00  0.00     0.248 A 
HETATM   15  N5  UNL     1       1.661  -0.599   0.205  1.00  0.00    -0.294 N 
HETATM   16  C3  UNL     1       2.916  -0.484   0.671  1.00  0.00     0.243 A 
ATOM     17  H5  UNL     1       1.024  -1.374   0.391  1.00  0.00     0.171 HD
HETATM   18  N6  UNL     1       3.550  -1.333   1.441  1.00  0.00    -0.364 N 
HETATM   19  O3  UNL     1       3.363   0.647   0.194  1.00  0.00    -0.199 OA
ATOM     20  H62 UNL     1       3.201  -2.216   1.813  1.00  0.00     0.159 HD
ATOM     21  H61 UNL     1       4.503  -1.246   1.795  1.00  0.00     0.159 HD
HETATM   22  N7  UNL     1       2.484   1.253  -0.536  1.00  0.00    -0.230 N 
ATOM     23  H7  UNL     1       2.602   2.147  -1.012  1.00  0.00     0.197 HD
ENDBRANCH   1  14
TORSDOF 5
