REMARK  6 active torsions:
REMARK  status: ('A' for Active; 'I' for Inactive)
REMARK    1  A    between atoms: C2_2  and  N1_3 
REMARK    2  A    between atoms: C2_2  and  O4_19 
REMARK    3  A    between atoms: N1_3  and  C3_5 
REMARK    4  A    between atoms: C6_14  and  N4_15 
REMARK    5  A    between atoms: N4_15  and  O3_17 
REMARK    6  A    between atoms: O4_19  and  N5_20 
ROOT
HETATM    1  C3  UNL     1      -0.674  -0.101  -0.217  1.00  0.00     0.141 A 
HETATM    2  N2  UNL     1      -0.994   0.628   0.864  1.00  0.00    -0.292 N 
ATOM      3  H2  UNL     1      -0.231   1.006   1.425  1.00  0.00     0.172 HD
HETATM    4  C4  UNL     1      -2.255   0.894   1.259  1.00  0.00     0.328 A 
HETATM    5  O1  UNL     1      -2.480   1.597   2.303  1.00  0.00    -0.247 OA
HETATM    6  N3  UNL     1      -3.256   0.395   0.519  1.00  0.00    -0.273 N 
ATOM      7  H3  UNL     1      -4.218   0.584   0.799  1.00  0.00     0.173 HD
HETATM    8  C5  UNL     1      -3.029  -0.358  -0.598  1.00  0.00     0.281 A 
HETATM    9  O2  UNL     1      -4.003  -0.804  -1.259  1.00  0.00    -0.265 OA
HETATM   10  C6  UNL     1      -1.725  -0.606  -0.966  1.00  0.00     0.166 A 
ENDROOT
BRANCH   1  11
HETATM   11  N1  UNL     1       0.669  -0.372  -0.633  1.00  0.00    -0.346 N 
ATOM     12  H1  UNL     1       0.802  -0.926  -1.479  1.00  0.00     0.163 HD
BRANCH  11  13
HETATM   13  C2  UNL     1       1.833   0.079   0.054  1.00  0.00     0.247 C 
HETATM   14  C1  UNL     1       1.886  -0.557   1.427  1.00  0.00     0.065 C 
BRANCH  13  15
HETATM   15  O4  UNL     1       2.961  -0.225  -0.699  1.00  0.00    -0.262 OA
BRANCH  15  16
HETATM   16  N5  UNL     1       3.549   0.937  -1.055  1.00  0.00    -0.309 N 
ATOM     17  H52 UNL     1       3.212   1.867  -0.807  1.00  0.00     0.184 HD
ATOM     18  H51 UNL     1       4.377   0.714  -1.608  1.00  0.00     0.184 HD
ENDBRANCH  15  16
ENDBRANCH  13  15
ENDBRANCH  11  13
ENDBRANCH   1  11
BRANCH  10  19
HETATM   19  N4  UNL     1      -1.464  -1.383  -2.120  1.00  0.00    -0.260 N 
ATOM     20  H4  UNL     1      -0.986  -0.931  -2.900  1.00  0.00     0.194 HD
BRANCH  19  21
HETATM   21  O3  UNL     1      -1.777  -2.577  -2.247  1.00  0.00    -0.289 OA
ATOM     22  H3  UNL     1      -1.602  -3.098  -3.022  1.00  0.00     0.244 HD
ENDBRANCH  19  21
ENDBRANCH  10  19
TORSDOF 6
