REMARK  4 active torsions:
REMARK  status: ('A' for Active; 'I' for Inactive)
REMARK    1  A    between atoms: C2_2  and  N2_6 
REMARK    2  A    between atoms: N3_8  and  C3_10 
REMARK    3  A    between atoms: C5_15  and  C6_16 
REMARK    4  A    between atoms: C12_26  and  N7_27 
ROOT
HETATM    1  C3  UNL     1       1.064  -0.242   0.409  1.00  0.00     0.103 A 
HETATM    2  C4  UNL     1       0.367   0.452   1.371  1.00  0.00     0.133 A 
HETATM    3 CL1  UNL     1       1.268   1.303   2.631  1.00  0.00    -0.062 Cl
HETATM    4  N4  UNL     1      -0.969   0.465   1.328  1.00  0.00    -0.346 N 
ATOM      5  H4  UNL     1      -1.460   0.987   2.054  1.00  0.00     0.167 HD
HETATM    6  C5  UNL     1      -1.713  -0.158   0.400  1.00  0.00     0.042 A 
HETATM    7  C10 UNL     1      -1.025  -0.859  -0.571  1.00  0.00     0.072 A 
HETATM    8  N5  UNL     1      -1.666  -1.527  -1.558  1.00  0.00    -0.350 N 
ATOM      9  H5  UNL     1      -2.686  -1.511  -1.583  1.00  0.00     0.166 HD
HETATM   10  C11 UNL     1      -1.004  -2.211  -2.506  1.00  0.00     0.182 A 
HETATM   11  N6  UNL     1       0.359  -2.271  -2.528  1.00  0.00    -0.338 N 
ATOM     12  H6  UNL     1       0.853  -2.794  -3.252  1.00  0.00     0.168 HD
HETATM   13  C12 UNL     1       1.027  -1.619  -1.565  1.00  0.00     0.114 A 
HETATM   14  C13 UNL     1       0.365  -0.906  -0.573  1.00  0.00     0.067 A 
ENDROOT
BRANCH   1  15
HETATM   15  N3  UNL     1       2.474  -0.253   0.459  1.00  0.00    -0.295 N 
HETATM   16  N2  UNL     1       3.108   0.711   1.006  1.00  0.00    -0.289 N 
ATOM     17  H2  UNL     1       2.574   1.484   1.404  1.00  0.00     0.188 HD
ATOM     18  H3  UNL     1       2.990  -1.035   0.056  1.00  0.00     0.187 HD
BRANCH  16  19
HETATM   19  C2  UNL     1       4.506   0.752   1.083  1.00  0.00     0.085 C 
HETATM   20  C1  UNL     1       5.268   1.759   0.265  1.00  0.00     0.090 C 
HETATM   21  N1  UNL     1       5.228  -0.027   1.824  1.00  0.00    -0.388 N 
ATOM     22  H12 UNL     1       6.246   0.003   1.880  1.00  0.00     0.157 HD
ATOM     23  H11 UNL     1       4.711  -0.710   2.379  1.00  0.00     0.157 HD
ENDBRANCH  16  19
ENDBRANCH   1  15
BRANCH  13  24
HETATM   24  N7  UNL     1       2.315  -1.646  -1.543  1.00  0.00    -0.385 N 
ATOM     25  H72 UNL     1       2.801  -2.169  -2.271  1.00  0.00     0.157 HD
ATOM     26  H71 UNL     1       2.823  -1.150  -0.811  1.00  0.00     0.157 HD
ENDBRANCH  13  24
BRANCH   6  27
HETATM   27  C6  UNL     1      -3.170  -0.094   0.425  1.00  0.00     0.038 C 
HETATM   28  C7  UNL     1      -3.675   0.735   1.588  1.00  0.00     0.011 C 
HETATM   29  C8  UNL     1      -4.753   1.248   0.655  1.00  0.00     0.001 C 
HETATM   30  C9  UNL     1      -3.806   0.939  -0.487  1.00  0.00     0.011 C 
ENDBRANCH   6  27
TORSDOF 4
