REMARK  3 active torsions:
REMARK  status: ('A' for Active; 'I' for Inactive)
REMARK    1  A    between atoms: C5_8  and  N3_9 
REMARK    2  A    between atoms: N3_9  and  C6_11 
REMARK    3  A    between atoms: C11_16  and  O1_17 
ROOT
HETATM    1  N1  UNL     1       2.898   1.949   1.756  1.00  0.00    -0.191 NA
HETATM    2  C1  UNL     1       3.149   1.245   0.841  1.00  0.00     0.104 C 
HETATM    3  C2  UNL     1       3.468   0.389  -0.319  1.00  0.00     0.102 A 
HETATM    4  C3  UNL     1       4.720   0.309  -0.797  1.00  0.00     0.076 A 
HETATM    5  N2  UNL     1       5.872   1.002  -0.228  1.00  0.00    -0.100 NA
HETATM    6  C4  UNL     1       4.934  -0.479  -1.898  1.00  0.00     0.080 A 
HETATM    7  S1  UNL     1       3.377  -1.083  -2.227  1.00  0.00    -0.081 SA
HETATM    8  C5  UNL     1       2.487  -0.313  -0.948  1.00  0.00     0.093 A 
ENDROOT
BRANCH   8   9
HETATM    9  N3  UNL     1       1.104  -0.508  -0.735  1.00  0.00    -0.378 N 
ATOM     10  H3  UNL     1       0.632  -1.047  -1.461  1.00  0.00     0.160 HD
BRANCH   9  11
HETATM   11  C6  UNL     1       0.267  -0.077   0.322  1.00  0.00     0.089 C 
HETATM   12  C7  UNL     1       0.409  -0.841   1.615  1.00  0.00     0.026 C 
HETATM   13  C8  UNL     1      -1.004  -0.996   2.198  1.00  0.00     0.007 C 
HETATM   14  C9  UNL     1      -1.838  -0.072   1.335  1.00  0.00    -0.003 C 
HETATM   15  C10 UNL     1      -3.270  -0.465   1.252  1.00  0.00     0.037 C 
HETATM   16  C14 UNL     1      -1.194  -0.326  -0.012  1.00  0.00     0.046 C 
HETATM   17  C11 UNL     1      -3.944   0.389   0.208  1.00  0.00     0.121 C 
HETATM   18  C12 UNL     1      -3.233   0.393  -1.109  1.00  0.00     0.069 C 
HETATM   19  C13 UNL     1      -1.748   0.677  -0.976  1.00  0.00     0.179 C 
HETATM   20  F1  UNL     1      -1.204   0.557  -2.240  1.00  0.00    -0.249 F 
BRANCH  17  21
HETATM   21  O1  UNL     1      -5.224  -0.118   0.006  1.00  0.00    -0.395 OA
ATOM     22  H1  UNL     1      -5.649   0.420  -0.652  1.00  0.00     0.210 HD
ENDBRANCH  17  21
ENDBRANCH   9  11
ENDBRANCH   8   9
TORSDOF 3
