REMARK  0 active torsions:
REMARK  status: ('A' for Active; 'I' for Inactive)
ROOT
HETATM    1  C1  UNL     1      -3.016   0.833  -0.383  1.00  0.00     0.084 C 
HETATM    2  C2  UNL     1      -2.206  -0.407  -0.174  1.00  0.00     0.222 C 
HETATM    3  C3  UNL     1      -3.195  -1.531   0.166  1.00  0.00     0.084 C 
HETATM    4  O1  UNL     1      -1.488  -0.820  -1.260  1.00  0.00    -0.195 OA
HETATM    5  O2  UNL     1      -0.442  -0.133  -1.549  1.00  0.00    -0.195 OA
HETATM    6  C4  UNL     1       0.366   0.168  -0.444  1.00  0.00     0.229 C 
HETATM    7  C5  UNL     1       1.044  -1.060   0.048  1.00  0.00     0.074 C 
HETATM    8  C6  UNL     1       2.264  -0.837   0.862  1.00  0.00     0.006 C 
HETATM    9  C7  UNL     1       3.137   0.281   0.415  1.00  0.00     0.000 C 
HETATM   10  C8  UNL     1       2.402   1.542   0.075  1.00  0.00     0.006 C 
HETATM   11  C9  UNL     1       1.306   1.252  -0.900  1.00  0.00     0.074 C 
HETATM   12  O3  UNL     1      -0.490   0.736   0.523  1.00  0.00    -0.195 OA
HETATM   13  O4  UNL     1      -1.317  -0.236   0.892  1.00  0.00    -0.195 OA
ENDROOT
TORSDOF 0
