REMARK  5 active torsions:
REMARK  status: ('A' for Active; 'I' for Inactive)
REMARK    1  A    between atoms: N1_2  and  C2_4 
REMARK    2  A    between atoms: N2_6  and  C4_8 
REMARK    3  A    between atoms: C4_8  and  N3_9 
REMARK    4  A    between atoms: C4_8  and  C5_13 
REMARK    5  A    between atoms: C5_13  and  N4_14 
ROOT
HETATM    1  C5  UNL     1      -0.980  -0.939  -0.810  1.00  0.00     0.182 C 
ENDROOT
BRANCH   1   2
HETATM    2  C4  UNL     1      -1.884  -0.557   0.339  1.00  0.00     0.301 C 
BRANCH   2   3
HETATM    3  N2  UNL     1      -3.236  -0.540  -0.177  1.00  0.00    -0.352 N 
HETATM    4  C2  UNL     1      -3.905   0.563  -0.149  1.00  0.00     0.070 C 
HETATM    5  C3  UNL     1      -3.394   1.826   0.374  1.00  0.00     0.088 C 
ATOM      6  H2  UNL     1      -3.655  -1.389  -0.558  1.00  0.00     0.162 HD
BRANCH   4   7
HETATM    7  N1  UNL     1      -5.228   0.519  -0.670  1.00  0.00    -0.385 N 
HETATM    8  C1  UNL     1      -6.300   0.871   0.249  1.00  0.00     0.147 C 
ATOM      9  H1  UNL     1      -5.415   0.255  -1.637  1.00  0.00     0.160 HD
ENDBRANCH   4   7
ENDBRANCH   2   3
BRANCH   2  10
HETATM   10  N3  UNL     1      -1.776  -1.529   1.415  1.00  0.00    -0.057 N 
ATOM     11  H33 UNL     1      -2.464  -1.364   2.150  1.00  0.00     0.276 HD
ATOM     12  H32 UNL     1      -2.087  -2.456   1.126  1.00  0.00     0.276 HD
ATOM     13  H31 UNL     1      -0.823  -1.541   1.779  1.00  0.00     0.276 HD
ENDBRANCH   2  10
ENDBRANCH   1   2
BRANCH   1  14
HETATM   14  N4  UNL     1       0.403  -0.999  -0.457  1.00  0.00    -0.356 N 
HETATM   15  C6  UNL     1       0.986  -2.136  -0.028  1.00  0.00     0.092 A 
HETATM   16  C7  UNL     1       2.299  -2.235   0.309  1.00  0.00     0.031 A 
HETATM   17  C8  UNL     1       3.092  -1.123   0.213  1.00  0.00    -0.007 A 
HETATM   18  C9  UNL     1       4.441  -1.133   0.534  1.00  0.00     0.102 A 
HETATM   19  C13 UNL     1       2.534   0.052  -0.221  1.00  0.00    -0.001 A 
HETATM   20  N5  UNL     1       5.207  -0.031   0.433  1.00  0.00    -0.370 N 
HETATM   21  C10 UNL     1       6.633  -0.047   0.775  1.00  0.00     0.154 C 
HETATM   22  C11 UNL     1       4.629   1.106   0.004  1.00  0.00     0.091 A 
HETATM   23  C12 UNL     1       3.302   1.191  -0.331  1.00  0.00     0.031 A 
HETATM   24  C14 UNL     1       1.175   0.089  -0.553  1.00  0.00     0.018 A 
HETATM   25  C15 UNL     1       0.633   1.366  -0.999  1.00  0.00     0.069 C 
ENDBRANCH   1  14
TORSDOF 5
