REMARK  4 active torsions:
REMARK  status: ('A' for Active; 'I' for Inactive)
REMARK    1  A    between atoms: N2_10  and  C9_12 
REMARK    2  A    between atoms: C9_12  and  N3_14 
REMARK    3  A    between atoms: C9_12  and  C11_18 
REMARK    4  A    between atoms: C11_18  and  N4_19 
ROOT
HETATM    1  C1  UNL     1      -2.471  -1.547  -2.338  1.00  0.00     0.012 C 
HETATM    2  C2  UNL     1      -2.996  -0.980  -1.050  1.00  0.00     0.017 C 
HETATM    3  C3  UNL     1      -3.145   0.511  -1.066  1.00  0.00     0.242 C 
HETATM    4  N1  UNL     1      -2.395   1.115   0.007  1.00  0.00    -0.066 N 
HETATM    5  C4  UNL     1      -2.594   2.543  -0.036  1.00  0.00     0.272 C 
HETATM    6  C5  UNL     1      -2.887   0.625   1.267  1.00  0.00     0.238 C 
HETATM    7  C6  UNL     1      -2.962  -0.884   1.355  1.00  0.00     0.039 C 
HETATM    8  C7  UNL     1      -2.161  -1.415   0.150  1.00  0.00     0.040 C 
HETATM    9  C8  UNL     1      -0.881  -0.645   0.214  1.00  0.00     0.015 C 
HETATM   10  N2  UNL     1       0.160  -1.206   0.597  1.00  0.00    -0.362 N 
ATOM     11  H2  UNL     1       0.055  -2.189   0.848  1.00  0.00     0.161 HD
HETATM   12  C15 UNL     1      -0.991   0.755  -0.202  1.00  0.00     0.289 C 
ENDROOT
BRANCH  10  13
HETATM   13  C9  UNL     1       1.488  -0.680   0.740  1.00  0.00     0.216 C 
HETATM   14  C10 UNL     1       1.485   0.363   1.826  1.00  0.00     0.072 C 
BRANCH  13  15
HETATM   15  N3  UNL     1       2.308  -1.786   1.276  1.00  0.00    -0.051 N 
ATOM     16  H33 UNL     1       1.935  -2.190   2.135  1.00  0.00     0.277 HD
ATOM     17  H32 UNL     1       2.265  -2.635   0.712  1.00  0.00     0.277 HD
ATOM     18  H31 UNL     1       3.252  -1.412   1.378  1.00  0.00     0.277 HD
ENDBRANCH  13  15
BRANCH  13  19
HETATM   19  C11 UNL     1       2.096  -0.221  -0.540  1.00  0.00     0.297 C 
BRANCH  19  20
HETATM   20  N4  UNL     1       3.429   0.298  -0.461  1.00  0.00    -0.064 N 
HETATM   21  C12 UNL     1       3.659   1.689  -0.103  1.00  0.00     0.272 C 
HETATM   22  C13 UNL     1       4.262  -0.101  -1.646  1.00  0.00     0.265 A 
HETATM   23  C14 UNL     1       4.577  -0.553  -0.301  1.00  0.00     0.265 A 
ENDBRANCH  19  20
ENDBRANCH  13  19
ENDBRANCH  10  13
TORSDOF 4
