REMARK  4 active torsions:
REMARK  status: ('A' for Active; 'I' for Inactive)
REMARK    1  A    between atoms: C2_2  and  C3_3 
REMARK    2  A    between atoms: C3_3  and  N1_4 
REMARK    3  A    between atoms: C3_3  and  C6_11 
REMARK       I    between atoms: N1_4  and  C4_6 
REMARK    4  A    between atoms: C4_6  and  C5_8 
REMARK       I    between atoms: C6_11  and  N3_13 
REMARK       I    between atoms: N3_13  and  C7_15 
REMARK       I    between atoms: C7_15  and  N4_16 
ROOT
HETATM    1  C6  UNL     1       0.410  -0.058   0.320  1.00  0.00     0.258 C 
HETATM    2  O3  UNL     1       0.587   1.159   0.095  1.00  0.00    -0.270 OA
HETATM    3  N3  UNL     1       1.516  -0.863   0.641  1.00  0.00    -0.157 N 
ATOM      4  H3  UNL     1       1.370  -1.856   0.824  1.00  0.00     0.187 HD
HETATM    5  C7  UNL     1       2.824  -0.336   0.717  1.00  0.00     0.696 C 
HETATM    6  N4  UNL     1       3.036   1.058   0.460  1.00  0.00    -0.165 N 
ATOM      7  H4  UNL     1       2.695   1.744   1.133  1.00  0.00     0.186 HD
HETATM    8  C8  UNL     1       3.645   1.467  -0.598  1.00  0.00     0.215 C 
HETATM    9  N5  UNL     1       3.813   2.866  -0.775  1.00  0.00    -0.066 NA
HETATM   10  N6  UNL     1       4.160   0.600  -1.601  1.00  0.00    -0.066 NA
HETATM   11  N7  UNL     1       3.828  -1.086   1.012  1.00  0.00    -0.126 N 
ATOM     12  H7  UNL     1       4.769  -0.695   1.064  1.00  0.00     0.197 HD
HETATM   13  C9  UNL     1       3.609  -2.443   1.260  1.00  0.00     0.196 C 
HETATM   14  N8  UNL     1       3.428  -3.569   1.481  1.00  0.00    -0.171 NA
ENDROOT
BRANCH   1  15
HETATM   15  C3  UNL     1      -0.962  -0.600   0.238  1.00  0.00     0.177 C 
BRANCH  15  16
HETATM   16  C2  UNL     1      -1.041  -1.772  -0.732  1.00  0.00     0.030 C 
HETATM   17  C1  UNL     1      -2.419  -2.381  -0.673  1.00  0.00     0.007 C 
ENDBRANCH  15  16
BRANCH  15  18
HETATM   18  N1  UNL     1      -1.934   0.408  -0.105  1.00  0.00    -0.340 N 
HETATM   19  C4  UNL     1      -2.988   0.770   0.771  1.00  0.00     0.307 C 
HETATM   20  O1  UNL     1      -3.058   0.182   1.874  1.00  0.00    -0.263 OA
ATOM     21  H1  UNL     1      -1.861   0.876  -1.008  1.00  0.00     0.163 HD
BRANCH  19  22
HETATM   22  C5  UNL     1      -3.972   1.782   0.436  1.00  0.00     0.322 C 
HETATM   23  N2  UNL     1      -5.006   2.103   1.353  1.00  0.00    -0.053 NA
HETATM   24  O2  UNL     1      -3.952   2.405  -0.657  1.00  0.00    -0.266 OA
ENDBRANCH  19  22
ENDBRANCH  15  18
ENDBRANCH   1  15
TORSDOF 4
