REMARK  5 active torsions:
REMARK  status: ('A' for Active; 'I' for Inactive)
REMARK    1  A    between atoms: C1_2  and  C2_3 
REMARK       I    between atoms: C1_2  and  N2_16 
REMARK    2  A    between atoms: C2_3  and  O2_4 
REMARK    3  A    between atoms: O2_4  and  C3_5 
REMARK    4  A    between atoms: N1_8  and  C6_9 
REMARK    5  A    between atoms: N2_16  and  C13_18 
ROOT
HETATM    1  C2  UNL     1      -1.325   0.028   0.114  1.00  0.00     0.270 C 
ENDROOT
BRANCH   1   2
HETATM    2  C1  UNL     1      -2.631  -0.567  -0.262  1.00  0.00     0.241 C 
HETATM    3  O1  UNL     1      -2.665  -1.658  -0.889  1.00  0.00    -0.271 OA
HETATM    4  N2  UNL     1      -3.863   0.062   0.065  1.00  0.00    -0.355 N 
ATOM      5  H2  UNL     1      -3.844   0.947   0.572  1.00  0.00     0.162 HD
BRANCH   4   6
HETATM    6  C13 UNL     1      -5.141  -0.506  -0.295  1.00  0.00     0.086 C 
HETATM    7  C14 UNL     1      -5.960  -0.905   0.910  1.00  0.00     0.040 C 
HETATM    8  C15 UNL     1      -6.274   0.264   1.812  1.00  0.00     0.142 C 
HETATM    9  S1  UNL     1      -7.171   1.452   0.845  1.00  0.00     0.144 S 
HETATM   10  O3  UNL     1      -7.450   2.708   1.579  1.00  0.00    -0.228 OA
HETATM   11  O4  UNL     1      -8.496   0.838   0.452  1.00  0.00    -0.228 OA
HETATM   12  C16 UNL     1      -6.254   1.710  -0.657  1.00  0.00     0.142 C 
HETATM   13  C17 UNL     1      -5.898   0.382  -1.240  1.00  0.00     0.040 C 
ENDBRANCH   4   6
ENDBRANCH   1   2
BRANCH   1  14
HETATM   14  O2  UNL     1      -0.285  -0.776  -0.316  1.00  0.00    -0.377 OA
BRANCH  14  15
HETATM   15  C3  UNL     1       0.966  -0.282  -0.002  1.00  0.00     0.125 C 
HETATM   16  C4  UNL     1       1.739  -1.130   0.946  1.00  0.00     0.051 C 
HETATM   17  C5  UNL     1       3.165  -0.539   1.008  1.00  0.00     0.119 C 
HETATM   18  N1  UNL     1       3.826  -0.880  -0.203  1.00  0.00    -0.408 N 
HETATM   19  C11 UNL     1       2.991  -0.814  -1.365  1.00  0.00     0.119 C 
HETATM   20  C12 UNL     1       1.793   0.066  -1.191  1.00  0.00     0.051 C 
BRANCH  18  21
HETATM   21  C6  UNL     1       5.170  -0.499  -0.363  1.00  0.00     0.079 C 
HETATM   22  C7  UNL     1       6.089  -1.149   0.652  1.00  0.00     0.025 C 
HETATM   23  C8  UNL     1       7.352  -0.298   0.620  1.00  0.00     0.002 C 
HETATM   24  C9  UNL     1       6.901   1.050   0.086  1.00  0.00     0.002 C 
HETATM   25  C10 UNL     1       5.388   0.966  -0.049  1.00  0.00     0.025 C 
ENDBRANCH  18  21
ENDBRANCH  14  15
ENDBRANCH   1  14
TORSDOF 5
