REMARK  4 active torsions:
REMARK  status: ('A' for Active; 'I' for Inactive)
REMARK    1  A    between atoms: N1_2  and  C2_4 
REMARK    2  A    between atoms: C7_11  and  C8_12 
REMARK    3  A    between atoms: C8_12  and  O1_13 
REMARK    4  A    between atoms: C8_12  and  O2_15 
ROOT
HETATM    1  C2  UNL     1       2.548   0.522  -0.287  1.00  0.00     0.143 A 
HETATM    2  N2  UNL     1       1.838   1.449  -0.977  1.00  0.00    -0.338 N 
ATOM      3  H2  UNL     1       2.334   2.227  -1.413  1.00  0.00     0.167 HD
HETATM    4  C3  UNL     1       0.509   1.376  -1.104  1.00  0.00     0.061 A 
HETATM    5  C4  UNL     1      -0.149   2.340  -1.842  1.00  0.00     0.032 A 
HETATM    6  C5  UNL     1      -1.495   2.290  -2.013  1.00  0.00     0.003 A 
HETATM    7  C6  UNL     1      -2.170   1.266  -1.433  1.00  0.00     0.014 A 
HETATM    8  C7  UNL     1      -1.571   0.234  -0.657  1.00  0.00     0.025 A 
HETATM    9  C10 UNL     1      -0.213   0.310  -0.510  1.00  0.00     0.073 A 
HETATM   10  N3  UNL     1       0.452  -0.629   0.176  1.00  0.00    -0.334 N 
HETATM   11  C11 UNL     1      -0.187  -1.765   0.721  1.00  0.00     0.158 C 
HETATM   12  C12 UNL     1       1.825  -0.493   0.270  1.00  0.00     0.163 A 
HETATM   13  N4  UNL     1       2.491  -1.506   1.020  1.00  0.00    -0.078 NA
ENDROOT
BRANCH   8  14
HETATM   14  C8  UNL     1      -2.413  -0.742  -0.009  1.00  0.00     0.293 C 
BRANCH  14  15
HETATM   15  O1  UNL     1      -3.298  -1.425  -0.878  1.00  0.00    -0.367 OA
ATOM     16  H1  UNL     1      -3.852  -2.068  -0.451  1.00  0.00     0.213 HD
ENDBRANCH  14  15
BRANCH  14  17
HETATM   17  O2  UNL     1      -3.492   0.199   0.412  1.00  0.00    -0.362 OA
HETATM   18  C9  UNL     1      -3.788   0.070   1.729  1.00  0.00     0.205 C 
ENDBRANCH  14  17
ENDBRANCH   8  14
BRANCH   1  19
HETATM   19  N1  UNL     1       3.802   0.602  -0.172  1.00  0.00    -0.378 N 
HETATM   20  C1  UNL     1       4.771  -0.188   0.464  1.00  0.00     0.147 C 
ATOM     21  H1  UNL     1       4.196   1.417  -0.643  1.00  0.00     0.160 HD
ENDBRANCH   1  19
TORSDOF 4
