REMARK  8 active torsions:
REMARK  status: ('A' for Active; 'I' for Inactive)
REMARK       I    between atoms: N1_2  and  C2_4 
REMARK       I    between atoms: C2_4  and  N2_6 
REMARK    1  A    between atoms: N2_6  and  N3_8 
REMARK    2  A    between atoms: N4_10  and  C3_12 
REMARK    3  A    between atoms: C6_19  and  N7_20 
REMARK    4  A    between atoms: N7_20  and  N8_22 
REMARK    5  A    between atoms: N8_22  and  C7_24 
REMARK    6  A    between atoms: C8_27  and  N10_28 
REMARK    7  A    between atoms: N10_28  and  N11_30 
REMARK    8  A    between atoms: N12_33  and  O5_34 
ROOT
HETATM    1  C3  UNL     1       2.783  -0.856  -0.019  1.00  0.00     0.169 A 
HETATM    2  N5  UNL     1       2.702   0.159   0.832  1.00  0.00    -0.301 N 
ATOM      3  H5  UNL     1       3.448   0.229   1.524  1.00  0.00     0.171 HD
HETATM    4  C4  UNL     1       1.769   1.085   0.885  1.00  0.00     0.274 A 
HETATM    5  O2  UNL     1       1.930   1.964   1.815  1.00  0.00    -0.266 OA
HETATM    6  C5  UNL     1       0.659   1.233   0.087  1.00  0.00     0.149 A 
HETATM    7  N6  UNL     1      -0.233   2.356   0.355  1.00  0.00    -0.093 NA
HETATM    8  C6  UNL     1       0.371   0.368  -0.937  1.00  0.00     0.122 A 
HETATM    9  S1  UNL     1       1.503  -0.907  -1.139  1.00  0.00    -0.031 SA
ENDROOT
BRANCH   8  10
HETATM   10  N7  UNL     1      -0.758   0.499  -1.766  1.00  0.00    -0.278 N 
ATOM     11  H7  UNL     1      -0.894  -0.193  -2.503  1.00  0.00     0.188 HD
BRANCH  10  12
HETATM   12  N8  UNL     1      -1.680   1.494  -1.645  1.00  0.00    -0.132 N 
ATOM     13  H8  UNL     1      -1.405   2.433  -1.932  1.00  0.00     0.205 HD
BRANCH  12  14
HETATM   14  C7  UNL     1      -3.007   1.313  -1.144  1.00  0.00     0.691 C 
HETATM   15  N9  UNL     1      -3.431   0.091  -1.059  1.00  0.00    -0.188 N 
HETATM   16  C8  UNL     1      -4.719  -0.429  -0.594  1.00  0.00     0.324 C 
ATOM     17  H9  UNL     1      -2.764  -0.619  -1.363  1.00  0.00     0.181 HD
HETATM   18  N12 UNL     1      -5.078   0.360   0.566  1.00  0.00    -0.154 NA
HETATM   19  C9  UNL     1      -5.808   1.541   0.182  1.00  0.00     0.145 C 
HETATM   20  C10 UNL     1      -4.853   2.713   0.086  1.00  0.00     0.155 C 
HETATM   21  N13 UNL     1      -3.750   2.457  -0.785  1.00  0.00    -0.224 N 
ATOM     22  H13 UNL     1      -3.423   3.299  -1.258  1.00  0.00     0.177 HD
BRANCH  16  23
HETATM   23  N10 UNL     1      -4.620  -1.810  -0.239  1.00  0.00    -0.238 N 
ATOM     24  H10 UNL     1      -3.728  -2.296  -0.328  1.00  0.00     0.190 HD
BRANCH  23  25
HETATM   25  N11 UNL     1      -5.728  -2.486   0.223  1.00  0.00    -0.041 N 
HETATM   26  O3  UNL     1      -6.844  -2.230  -0.285  1.00  0.00    -0.517 OA
HETATM   27  O4  UNL     1      -5.581  -3.418   1.225  1.00  0.00    -0.517 OA
ENDBRANCH  23  25
ENDBRANCH  16  23
BRANCH  18  28
HETATM   28  O5  UNL     1      -5.642  -0.343   1.544  1.00  0.00    -0.309 OA
ATOM     29  H5  UNL     1      -5.878   0.175   2.305  1.00  0.00     0.237 HD
ENDBRANCH  18  28
ENDBRANCH  12  14
ENDBRANCH  10  12
ENDBRANCH   8  10
BRANCH   1  30
HETATM   30  N4  UNL     1       3.867  -1.794   0.043  1.00  0.00    -0.265 N 
HETATM   31  N3  UNL     1       4.996  -1.337   0.374  1.00  0.00    -0.237 N 
ATOM     32  H3  UNL     1       5.077  -0.341   0.577  1.00  0.00     0.208 HD
ATOM     33  H4  UNL     1       3.732  -2.782  -0.170  1.00  0.00     0.190 HD
BRANCH  31  34
HETATM   34  N2  UNL     1       6.138  -2.131   0.475  1.00  0.00    -0.237 N 
HETATM   35  C2  UNL     1       7.422  -1.526   0.455  1.00  0.00     0.335 C 
HETATM   36  N1  UNL     1       8.591  -2.341   0.559  1.00  0.00    -0.346 N 
HETATM   37  O1  UNL     1       7.511  -0.271   0.344  1.00  0.00    -0.246 OA
HETATM   38  C1  UNL     1       9.914  -1.771   0.542  1.00  0.00     0.151 C 
ATOM     39  H1  UNL     1       8.486  -3.352   0.647  1.00  0.00     0.163 HD
ATOM     40  H2  UNL     1       6.051  -3.143   0.563  1.00  0.00     0.193 HD
ENDBRANCH  31  34
ENDBRANCH   1  30
TORSDOF 8
