REMARK  3 active torsions:
REMARK  status: ('A' for Active; 'I' for Inactive)
REMARK    1  A    between atoms: C4_5  and  C5_6 
REMARK    2  A    between atoms: C6_7  and  C7_8 
REMARK    3  A    between atoms: N2_12  and  O1_13 
ROOT
HETATM    1  C5  UNL     1       0.422   1.424  -0.479  1.00  0.00     0.074 A 
HETATM    2  C6  UNL     1      -0.951   1.446  -0.454  1.00  0.00     0.076 A 
HETATM    3  N3  UNL     1      -1.372   2.613  -1.001  1.00  0.00    -0.296 N 
ATOM      4  H3  UNL     1      -2.347   2.893  -1.110  1.00  0.00     0.187 HD
HETATM    5  N4  UNL     1      -0.329   3.333  -1.372  1.00  0.00    -0.265 N 
ATOM      6  H4  UNL     1      -0.361   4.253  -1.811  1.00  0.00     0.190 HD
HETATM    7  C12 UNL     1       0.772   2.646  -1.072  1.00  0.00     0.273 A 
HETATM    8  O2  UNL     1       1.978   3.003  -1.274  1.00  0.00    -0.266 OA
ENDROOT
BRANCH   1   9
HETATM    9  C4  UNL     1       1.364   0.414  -0.017  1.00  0.00    -0.003 A 
HETATM   10  C3  UNL     1       2.078  -0.325  -0.944  1.00  0.00     0.017 A 
HETATM   11  C2  UNL     1       2.995  -1.296  -0.520  1.00  0.00     0.046 A 
HETATM   12  C1  UNL     1       3.201  -1.532   0.822  1.00  0.00     0.116 A 
HETATM   13  N1  UNL     1       4.143  -2.527   1.262  1.00  0.00    -0.083 NA
HETATM   14  N5  UNL     1       2.498  -0.805   1.698  1.00  0.00    -0.354 N 
HETATM   15  C13 UNL     1       1.607   0.139   1.311  1.00  0.00     0.101 A 
ATOM     16  H5  UNL     1       2.638  -0.968   2.695  1.00  0.00     0.166 HD
ENDBRANCH   1   9
BRANCH   2  17
HETATM   17  C7  UNL     1      -1.819   0.408   0.063  1.00  0.00     0.011 A 
HETATM   18  C8  UNL     1      -2.586  -0.303  -0.846  1.00  0.00     0.017 A 
HETATM   19  C9  UNL     1      -3.439  -1.307  -0.409  1.00  0.00     0.021 A 
HETATM   20  C10 UNL     1      -3.528  -1.601   0.918  1.00  0.00     0.122 A 
HETATM   21  N2  UNL     1      -2.782  -0.908   1.808  1.00  0.00    -0.246 N 
HETATM   22  C11 UNL     1      -1.958   0.062   1.385  1.00  0.00     0.136 A 
BRANCH  21  23
HETATM   23  O1  UNL     1      -2.905  -1.236   3.143  1.00  0.00    -0.284 OA
ATOM     24  H1  UNL     1      -2.381  -0.749   3.768  1.00  0.00     0.245 HD
ENDBRANCH  21  23
ENDBRANCH   2  17
TORSDOF 3
