REMARK  2 active torsions:
REMARK  status: ('A' for Active; 'I' for Inactive)
REMARK       I    between atoms: N3_4  and  C2_6 
REMARK       I    between atoms: C2_6  and  N4_8 
REMARK    1  A    between atoms: N4_8  and  C3_10 
REMARK    2  A    between atoms: C8_15  and  C9_16 
REMARK       I    between atoms: C9_16  and  N5_18 
ROOT
HETATM    1  C3  UNL     1       0.739  -0.058  -0.105  1.00  0.00     0.099 C 
HETATM    2  C4  UNL     1       0.983  -1.110  -1.176  1.00  0.00     0.026 C 
HETATM    3  C5  UNL     1       1.571  -2.368  -0.604  1.00  0.00     0.002 C 
HETATM    4  C6  UNL     1       0.900  -2.882   0.607  1.00  0.00     0.001 C 
HETATM    5  C7  UNL     1       0.354  -1.855   1.538  1.00  0.00     0.016 C 
HETATM    6  C8  UNL     1      -0.232  -0.653   0.855  1.00  0.00     0.101 C 
ENDROOT
BRANCH   1   7
HETATM    7  N4  UNL     1       1.998   0.285   0.473  1.00  0.00    -0.337 N 
HETATM    8  C2  UNL     1       2.526   1.588   0.348  1.00  0.00     0.322 C 
HETATM    9  N3  UNL     1       3.769   1.938   0.916  1.00  0.00    -0.285 N 
HETATM   10  O1  UNL     1       1.864   2.445  -0.284  1.00  0.00    -0.247 OA
HETATM   11  C1  UNL     1       4.860   1.658   0.309  1.00  0.00     0.204 C 
ATOM     12  H3  UNL     1       3.798   2.417   1.816  1.00  0.00     0.172 HD
HETATM   13  N1  UNL     1       4.821   0.994  -0.937  1.00  0.00    -0.066 NA
HETATM   14  N2  UNL     1       6.089   2.021   0.902  1.00  0.00    -0.066 NA
ATOM     15  H4  UNL     1       2.525  -0.423   0.985  1.00  0.00     0.164 HD
ENDBRANCH   1   7
BRANCH   6  16
HETATM   16  C9  UNL     1      -1.516  -0.934   0.204  1.00  0.00     0.226 C 
HETATM   17  O2  UNL     1      -1.817  -2.176   0.098  1.00  0.00    -0.273 OA
HETATM   18  N5  UNL     1      -2.434  -0.016  -0.305  1.00  0.00    -0.352 N 
HETATM   19  C10 UNL     1      -2.268   1.442  -0.265  1.00  0.00     0.125 C 
HETATM   20  C14 UNL     1      -3.667  -0.459  -0.932  1.00  0.00     0.125 C 
HETATM   21  C11 UNL     1      -3.659   2.050  -0.182  1.00  0.00     0.020 C 
HETATM   22  C12 UNL     1      -4.584   1.189   0.641  1.00  0.00     0.003 C 
HETATM   23  C13 UNL     1      -4.801  -0.156   0.013  1.00  0.00     0.020 C 
ENDBRANCH   6  16
TORSDOF 2
