REMARK  5 active torsions:
REMARK  status: ('A' for Active; 'I' for Inactive)
REMARK    1  A    between atoms: N3_4  and  C2_6 
REMARK    2  A    between atoms: C2_6  and  N4_8 
REMARK    3  A    between atoms: N4_8  and  C3_10 
REMARK    4  A    between atoms: C3_10  and  C4_11 
REMARK    5  A    between atoms: C4_11  and  C5_13 
ROOT
HETATM    1  C4  UNL     1       0.457   0.291  -0.225  1.00  0.00     0.149 C 
HETATM    2  O1  UNL     1       0.778   1.362  -0.699  1.00  0.00    -0.296 OA
ENDROOT
BRANCH   1   3
HETATM    3  C3  UNL     1       1.459  -0.803  -0.210  1.00  0.00     0.200 C 
BRANCH   3   4
HETATM    4  N4  UNL     1       2.726  -0.441  -0.756  1.00  0.00    -0.360 N 
ATOM      5  H4  UNL     1       3.039  -0.833  -1.644  1.00  0.00     0.162 HD
BRANCH   4   6
HETATM    6  C2  UNL     1       3.549   0.480  -0.038  1.00  0.00     0.174 C 
HETATM    7  S1  UNL     1       3.074   1.092   1.380  1.00  0.00    -0.041 SA
BRANCH   6   8
HETATM    8  N3  UNL     1       4.799   0.835  -0.596  1.00  0.00    -0.310 N 
HETATM    9  C1  UNL     1       5.751  -0.024  -0.592  1.00  0.00     0.203 C 
HETATM   10  N1  UNL     1       5.559  -1.314  -0.038  1.00  0.00    -0.066 NA
HETATM   11  N2  UNL     1       6.997   0.359  -1.160  1.00  0.00    -0.066 NA
ATOM     12  H3  UNL     1       4.941   1.762  -0.996  1.00  0.00     0.170 HD
ENDBRANCH   6   8
ENDBRANCH   4   6
ENDBRANCH   3   4
ENDBRANCH   1   3
BRANCH   1  13
HETATM   13  C5  UNL     1      -0.891   0.106   0.313  1.00  0.00     0.065 C 
HETATM   14  C6  UNL     1      -1.655  -1.015  -0.367  1.00  0.00    -0.002 C 
HETATM   15  C7  UNL     1      -2.216  -0.633  -1.692  1.00  0.00     0.010 C 
HETATM   16  C11 UNL     1      -2.818  -1.353   0.555  1.00  0.00     0.010 C 
HETATM   17  C8  UNL     1      -3.088   0.596  -1.594  1.00  0.00    -0.013 C 
HETATM   18  C9  UNL     1      -4.244   0.260  -0.677  1.00  0.00     0.009 C 
HETATM   19  C14 UNL     1      -2.238   1.708  -1.045  1.00  0.00     0.010 C 
HETATM   20  C10 UNL     1      -3.688  -0.128   0.667  1.00  0.00    -0.013 C 
HETATM   21  C12 UNL     1      -2.928   1.039   1.223  1.00  0.00     0.010 C 
HETATM   22  C13 UNL     1      -1.730   1.365   0.315  1.00  0.00    -0.002 C 
ENDBRANCH   1  13
TORSDOF 5
