REMARK  5 active torsions:
REMARK  status: ('A' for Active; 'I' for Inactive)
REMARK    1  A    between atoms: C2_2  and  O1_3 
REMARK    2  A    between atoms: C2_2  and  N1_5 
REMARK    3  A    between atoms: C6_8  and  C7_9 
REMARK    4  A    between atoms: C7_9  and  N2_10 
REMARK    5  A    between atoms: C11_17  and  S1_18 
ROOT
HETATM    1  N2  UNL     1      -1.760   0.186   0.694  1.00  0.00    -0.283 N 
HETATM    2  N3  UNL     1      -2.093  -1.053   0.994  1.00  0.00    -0.300 N 
ATOM      3  H3  UNL     1      -1.512  -1.689   1.541  1.00  0.00     0.187 HD
HETATM    4  C8  UNL     1      -3.305  -1.373   0.483  1.00  0.00     0.046 A 
HETATM    5  C9  UNL     1      -4.002  -2.682   0.618  1.00  0.00     0.071 C 
HETATM    6  C10 UNL     1      -3.727  -0.243  -0.170  1.00  0.00     0.092 A 
HETATM    7 CL1  UNL     1      -5.223  -0.044  -1.028  1.00  0.00    -0.079 Cl
HETATM    8  C11 UNL     1      -2.748   0.726  -0.028  1.00  0.00     0.110 A 
ENDROOT
BRANCH   1   9
HETATM    9  C7  UNL     1      -0.537   0.821   1.064  1.00  0.00     0.156 C 
BRANCH   9  10
HETATM   10  C6  UNL     1       0.639   0.619   0.209  1.00  0.00     0.025 C 
HETATM   11  C5  UNL     1       0.555   1.041  -1.221  1.00  0.00     0.028 C 
HETATM   12  C4  UNL     1       1.684   0.250  -1.895  1.00  0.00     0.125 C 
HETATM   13  N1  UNL     1       2.267  -0.560  -0.846  1.00  0.00    -0.362 N 
HETATM   14  C13 UNL     1       1.162  -0.798   0.107  1.00  0.00     0.131 C 
BRANCH  13  15
HETATM   15  C2  UNL     1       3.591  -1.021  -0.751  1.00  0.00     0.130 C 
HETATM   16  C1  UNL     1       3.877  -2.280  -0.988  1.00  0.00     0.071 C 
BRANCH  15  17
HETATM   17  O1  UNL     1       4.603  -0.151  -0.406  1.00  0.00    -0.341 OA
HETATM   18  C3  UNL     1       5.156  -0.077   0.879  1.00  0.00     0.211 C 
ENDBRANCH  15  17
ENDBRANCH  13  15
ENDBRANCH   9  10
ENDBRANCH   1   9
BRANCH   8  19
HETATM   19  S1  UNL     1      -2.850   2.413  -0.692  1.00  0.00    -0.114 SA
HETATM   20  C12 UNL     1      -3.647   3.510   0.537  1.00  0.00     0.097 C 
ENDBRANCH   8  19
TORSDOF 5
