REMARK  12 active torsions:
REMARK  status: ('A' for Active; 'I' for Inactive)
REMARK    1  A    between atoms: C3_3  and  C4_4 
REMARK    2  A    between atoms: C4_4  and  O1_5 
REMARK    3  A    between atoms: O1_5  and  C5_6 
REMARK    4  A    between atoms: C8_9  and  N1_10 
REMARK    5  A    between atoms: N1_10  and  C9_12 
REMARK    6  A    between atoms: C10_15  and  N3_16 
REMARK    7  A    between atoms: C13_19  and  C14_20 
REMARK    8  A    between atoms: C14_20  and  O2_21 
REMARK    9  A    between atoms: C17_25  and  O3_26 
REMARK   10  A    between atoms: O3_26  and  C18_27 
REMARK   11  A    between atoms: C23_32  and  C24_33 
REMARK   12  A    between atoms: C25_35  and  O5_36 
ROOT
HETATM    1  C1  UNL     1      11.479  -1.156   1.266  1.00  0.00     0.112 C 
HETATM    2  C2  UNL     1      10.194  -0.724   0.724  1.00  0.00    -0.109 C 
HETATM    3  C3  UNL     1       9.132  -0.388   0.269  1.00  0.00    -0.080 C 
ENDROOT
BRANCH   3   4
HETATM    4  C4  UNL     1       7.839  -0.003  -0.294  1.00  0.00     0.269 C 
BRANCH   4   5
HETATM    5  O1  UNL     1       6.986   0.545   0.685  1.00  0.00    -0.338 OA
BRANCH   5   6
HETATM    6  C5  UNL     1       5.713   0.992   0.445  1.00  0.00     0.091 A 
HETATM    7  C6  UNL     1       5.110   0.961  -0.783  1.00  0.00     0.041 A 
HETATM    8  C7  UNL     1       3.835   1.413  -1.003  1.00  0.00     0.033 A 
HETATM    9  C8  UNL     1       3.131   1.921   0.063  1.00  0.00     0.051 A 
HETATM   10  C30 UNL     1       3.718   1.961   1.309  1.00  0.00     0.056 A 
HETATM   11  C31 UNL     1       5.005   1.502   1.514  1.00  0.00     0.069 A 
HETATM   12 CL1  UNL     1       5.683   1.589   3.135  1.00  0.00    -0.081 Cl
BRANCH   9  13
HETATM   13  N1  UNL     1       1.815   2.393  -0.137  1.00  0.00    -0.192 N 
ATOM     14  H1  UNL     1       1.667   3.396  -0.246  1.00  0.00     0.184 HD
BRANCH  13  15
HETATM   15  C9  UNL     1       0.776   1.595  -0.188  1.00  0.00     0.685 A 
HETATM   16  N2  UNL     1      -0.436   2.098  -0.378  1.00  0.00    -0.174 N 
HETATM   17  C10 UNL     1      -1.562   1.317  -0.438  1.00  0.00     0.155 A 
ATOM     18  H2  UNL     1      -0.535   3.108  -0.484  1.00  0.00     0.186 HD
HETATM   19  C17 UNL     1      -1.441  -0.036  -0.294  1.00  0.00     0.143 A 
HETATM   20  C23 UNL     1      -0.166  -0.563  -0.099  1.00  0.00     0.120 A 
HETATM   21  N4  UNL     1       0.910   0.253  -0.049  1.00  0.00    -0.186 N 
ATOM     22  H4  UNL     1       1.837  -0.147   0.096  1.00  0.00     0.184 HD
BRANCH  17  23
HETATM   23  N3  UNL     1      -2.815   1.932  -0.691  1.00  0.00    -0.364 N 
HETATM   24  C11 UNL     1      -3.578   1.764  -1.920  1.00  0.00     0.125 C 
HETATM   25  C12 UNL     1      -3.771   3.106  -2.611  1.00  0.00     0.026 C 
HETATM   26  C13 UNL     1      -3.886   4.221  -1.593  1.00  0.00     0.012 C 
HETATM   27  C15 UNL     1      -4.452   3.631  -0.297  1.00  0.00     0.026 C 
HETATM   28  C16 UNL     1      -3.380   2.795   0.321  1.00  0.00     0.125 C 
BRANCH  26  29
HETATM   29  C14 UNL     1      -4.771   5.334  -2.051  1.00  0.00     0.168 C 
BRANCH  29  30
HETATM   30  O2  UNL     1      -6.044   4.864  -2.291  1.00  0.00    -0.400 OA
ATOM     31  H2  UNL     1      -6.607   5.572  -2.582  1.00  0.00     0.209 HD
ENDBRANCH  29  30
ENDBRANCH  26  29
ENDBRANCH  17  23
BRANCH  19  32
HETATM   32  O3  UNL     1      -2.528  -0.877  -0.329  1.00  0.00    -0.340 OA
BRANCH  32  33
HETATM   33  C18 UNL     1      -3.324  -1.149   0.809  1.00  0.00     0.129 C 
HETATM   34  C19 UNL     1      -3.304  -2.533   1.338  1.00  0.00     0.032 C 
HETATM   35  C20 UNL     1      -4.616  -2.663   2.123  1.00  0.00     0.002 C 
HETATM   36  C21 UNL     1      -5.571  -1.968   1.185  1.00  0.00     0.002 C 
HETATM   37  C22 UNL     1      -4.784  -0.796   0.632  1.00  0.00     0.032 C 
ENDBRANCH  32  33
ENDBRANCH  19  32
BRANCH  20  38
HETATM   38  C24 UNL     1       0.101  -2.012  -0.125  1.00  0.00     0.114 A 
HETATM   39  O4  UNL     1      -0.659  -2.886  -0.749  1.00  0.00    -0.285 OA
HETATM   40  C25 UNL     1      -0.205  -4.078  -0.611  1.00  0.00     0.185 A 
HETATM   41  C27 UNL     1       0.928  -4.024   0.149  1.00  0.00     0.073 A 
HETATM   42  C28 UNL     1       1.116  -2.678   0.459  1.00  0.00    -0.021 A 
HETATM   43  C29 UNL     1       2.235  -2.211   1.314  1.00  0.00     0.051 C 
BRANCH  40  44
HETATM   44  O5  UNL     1      -0.759  -5.261  -1.141  1.00  0.00    -0.335 OA
HETATM   45  C26 UNL     1      -1.622  -6.059  -0.355  1.00  0.00     0.212 C 
ENDBRANCH  40  44
ENDBRANCH  20  38
ENDBRANCH  13  15
ENDBRANCH   9  13
ENDBRANCH   5   6
ENDBRANCH   4   5
ENDBRANCH   3   4
TORSDOF 12
