REMARK  11 active torsions:
REMARK  status: ('A' for Active; 'I' for Inactive)
REMARK    1  A    between atoms: C2_2  and  C3_3 
REMARK    2  A    between atoms: C3_3  and  C4_4 
REMARK    3  A    between atoms: C5_5  and  O1_6 
REMARK    4  A    between atoms: O1_6  and  C6_7 
REMARK    5  A    between atoms: C6_7  and  C7_8 
REMARK    6  A    between atoms: C7_8  and  C8_9 
REMARK    7  A    between atoms: C8_9  and  N1_10 
REMARK    8  A    between atoms: C14_16  and  C15_17 
REMARK       I    between atoms: C15_17  and  N2_19 
REMARK    9  A    between atoms: N2_19  and  C16_21 
REMARK   10  A    between atoms: C22_33  and  N5_34 
REMARK   11  A    between atoms: N5_34  and  C23_36 
ROOT
HETATM    1  C4  UNL     1       1.411  -1.028  -1.090  1.00  0.00     0.004 A 
HETATM    2  C5  UNL     1       0.248  -0.393  -1.556  1.00  0.00     0.093 A 
HETATM    3  C14 UNL     1      -0.024  -0.424  -2.897  1.00  0.00     0.067 A 
HETATM    4  C19 UNL     1       0.833  -1.085  -3.792  1.00  0.00     0.035 A 
HETATM    5  C20 UNL     1       1.966  -1.706  -3.314  1.00  0.00     0.009 A 
HETATM    6  C21 UNL     1       2.829  -2.365  -4.164  1.00  0.00     0.120 A 
HETATM    7  N4  UNL     1       3.908  -2.953  -3.666  1.00  0.00    -0.201 N 
ATOM      8  H4  UNL     1       4.543  -3.441  -4.298  1.00  0.00     0.183 HD
HETATM    9  C22 UNL     1       4.191  -2.924  -2.338  1.00  0.00     0.684 A 
HETATM   10  N7  UNL     1       3.359  -2.289  -1.527  1.00  0.00    -0.190 N 
ATOM     11  H7  UNL     1       3.568  -2.265  -0.529  1.00  0.00     0.184 HD
HETATM   12  C27 UNL     1       2.241  -1.670  -1.975  1.00  0.00     0.070 A 
ENDROOT
BRANCH   3  13
HETATM   13  C15 UNL     1      -1.109   0.320  -3.518  1.00  0.00     0.260 C 
HETATM   14  O2  UNL     1      -1.335   0.137  -4.757  1.00  0.00    -0.267 OA
HETATM   15  N2  UNL     1      -1.900   1.238  -2.779  1.00  0.00    -0.303 N 
ATOM     16  H2  UNL     1      -2.648   0.941  -2.153  1.00  0.00     0.171 HD
BRANCH  15  17
HETATM   17  C16 UNL     1      -1.589   2.505  -2.968  1.00  0.00     0.152 A 
HETATM   18  N3  UNL     1      -2.163   3.569  -2.406  1.00  0.00    -0.344 N 
HETATM   19  C17 UNL     1      -1.723   4.754  -2.714  1.00  0.00     0.121 A 
ATOM     20  H3  UNL     1      -2.933   3.456  -1.747  1.00  0.00     0.167 HD
HETATM   21  C18 UNL     1      -0.686   4.839  -3.606  1.00  0.00     0.093 A 
HETATM   22 CL1  UNL     1       0.115   6.301  -4.210  1.00  0.00    -0.075 Cl
HETATM   23  S1  UNL     1      -0.389   3.197  -3.964  1.00  0.00    -0.040 SA
ENDBRANCH  15  17
ENDBRANCH   3  13
BRANCH   2  24
HETATM   24  O1  UNL     1      -0.609   0.245  -0.678  1.00  0.00    -0.349 OA
BRANCH  24  25
HETATM   25  C6  UNL     1      -1.693  -0.294  -0.003  1.00  0.00     0.177 C 
BRANCH  25  26
HETATM   26  C7  UNL     1      -2.383   0.747   0.896  1.00  0.00     0.057 C 
BRANCH  26  27
HETATM   27  C8  UNL     1      -3.504   0.033   1.557  1.00  0.00     0.274 C 
BRANCH  27  28
HETATM   28  N1  UNL     1      -4.306   0.808   2.459  1.00  0.00     0.088 N 
HETATM   29  C9  UNL     1      -5.365   0.020   3.061  1.00  0.00     0.272 C 
HETATM   30  C10 UNL     1      -6.061   0.731   4.174  1.00  0.00     0.030 C 
HETATM   31  C11 UNL     1      -6.630   2.023   3.622  1.00  0.00     0.003 C 
HETATM   32  C12 UNL     1      -6.218   2.253   2.195  1.00  0.00     0.030 C 
HETATM   33  C13 UNL     1      -4.729   2.064   1.973  1.00  0.00     0.272 C 
ENDBRANCH  27  28
ENDBRANCH  26  27
ENDBRANCH  25  26
ENDBRANCH  24  25
ENDBRANCH   2  24
BRANCH   1  34
HETATM   34  C3  UNL     1       1.674  -0.891   0.347  1.00  0.00     0.043 C 
BRANCH  34  35
HETATM   35  C2  UNL     1       2.144   0.570   0.542  1.00  0.00     0.000 C 
HETATM   36  C1  UNL     1       3.367   0.842  -0.253  1.00  0.00     0.005 C 
ENDBRANCH  34  35
ENDBRANCH   1  34
BRANCH   9  37
HETATM   37  N5  UNL     1       5.239  -3.490  -1.960  1.00  0.00    -0.170 N 
ATOM     38  H5  UNL     1       5.799  -3.929  -2.691  1.00  0.00     0.186 HD
BRANCH  37  39
HETATM   39  C23 UNL     1       5.750  -3.598  -0.624  1.00  0.00     0.164 A 
HETATM   40  N6  UNL     1       7.007  -3.378  -0.230  1.00  0.00    -0.340 N 
HETATM   41  C24 UNL     1       7.323  -3.518   1.010  1.00  0.00     0.014 A 
ATOM     42  H6  UNL     1       7.715  -3.100  -0.910  1.00  0.00     0.168 HD
HETATM   43  C25 UNL     1       8.737  -3.287   1.519  1.00  0.00     0.068 C 
HETATM   44  C26 UNL     1       6.335  -3.895   1.889  1.00  0.00     0.077 A 
HETATM   45  S2  UNL     1       4.991  -4.024   0.844  1.00  0.00    -0.063 SA
ENDBRANCH  37  39
ENDBRANCH   9  37
TORSDOF 11
