REMARK  7 active torsions:
REMARK  status: ('A' for Active; 'I' for Inactive)
REMARK    1  A    between atoms: O1_2  and  N1_3 
REMARK       I    between atoms: N1_3  and  C2_5 
REMARK    2  A    between atoms: C2_5  and  C3_7 
REMARK    3  A    between atoms: C3_7  and  N2_8 
REMARK    4  A    between atoms: N2_8  and  C6_11 
REMARK    5  A    between atoms: C6_11  and  C7_12 
REMARK    6  A    between atoms: C7_12  and  C10_15 
REMARK    7  A    between atoms: C18_26  and  O3_27 
ROOT
HETATM    1  C10 UNL     1       0.739   1.820  -0.464  1.00  0.00     0.003 C 
HETATM    2  C11 UNL     1       0.391   1.979   1.008  1.00  0.00     0.006 C 
HETATM    3  C12 UNL     1      -1.125   2.101   0.889  1.00  0.00     0.006 C 
HETATM    4  C13 UNL     1      -1.494   1.553  -0.455  1.00  0.00    -0.002 C 
HETATM    5  C14 UNL     1      -2.748   0.831  -0.573  1.00  0.00    -0.005 C 
HETATM    6  C15 UNL     1      -3.818   1.660   0.133  1.00  0.00     0.007 C 
HETATM    7  C16 UNL     1      -5.174   1.051   0.014  1.00  0.00     0.034 C 
HETATM    8  C17 UNL     1      -5.174  -0.433  -0.091  1.00  0.00     0.197 C 
HETATM    9  N3  UNL     1      -6.342  -0.990   0.598  1.00  0.00    -0.044 N 
ATOM     10  H31 UNL     1      -7.157  -0.377   0.593  1.00  0.00     0.280 HD
ATOM     11  H32 UNL     1      -6.240  -1.039   1.612  1.00  0.00     0.280 HD
HETATM   12  C18 UNL     1      -6.571  -2.289  -0.041  1.00  0.00     0.319 C 
HETATM   13  C19 UNL     1      -5.270  -2.897  -0.463  1.00  0.00     0.062 C 
HETATM   14  C20 UNL     1      -4.113  -2.543   0.453  1.00  0.00     0.016 C 
HETATM   15  C21 UNL     1      -3.957  -1.031   0.600  1.00  0.00    -0.011 C 
HETATM   16  C22 UNL     1      -3.946  -0.728   2.048  1.00  0.00     0.018 C 
HETATM   17  C23 UNL     1      -2.746  -0.603  -0.180  1.00  0.00     0.000 C 
HETATM   18  C24 UNL     1      -1.479  -0.972   0.532  1.00  0.00     0.006 C 
HETATM   19  C25 UNL     1      -0.223  -0.511  -0.090  1.00  0.00     0.010 C 
HETATM   20  C26 UNL     1      -0.216   0.774  -0.836  1.00  0.00    -0.036 C 
HETATM   21  C27 UNL     1      -0.374   0.521  -2.328  1.00  0.00     0.016 C 
ENDROOT
BRANCH   1  22
HETATM   22  C7  UNL     1       2.175   1.804  -0.771  1.00  0.00    -0.019 C 
HETATM   23  C8  UNL     1       2.606   3.219  -0.273  1.00  0.00     0.017 C 
HETATM   24  C9  UNL     1       2.359   1.979  -2.271  1.00  0.00     0.017 C 
BRANCH  22  25
HETATM   25  C6  UNL     1       2.922   0.732  -0.154  1.00  0.00     0.251 C 
BRANCH  25  26
HETATM   26  N2  UNL     1       4.328   0.551  -0.248  1.00  0.00    -0.049 N 
HETATM   27  C4  UNL     1       4.605  -0.068  -1.551  1.00  0.00     0.278 C 
HETATM   28  C5  UNL     1       5.155   1.681  -0.037  1.00  0.00     0.278 C 
BRANCH  26  29
HETATM   29  C3  UNL     1       4.566  -0.502   0.722  1.00  0.00     0.277 C 
BRANCH  29  30
HETATM   30  C2  UNL     1       5.866  -1.096   0.817  1.00  0.00     0.288 C 
HETATM   31  N1  UNL     1       6.080  -2.149   1.801  1.00  0.00    -0.231 N 
ATOM     32  H1  UNL     1       5.295  -2.428   2.389  1.00  0.00     0.197 HD
HETATM   33  O2  UNL     1       6.908  -0.850   0.161  1.00  0.00    -0.265 OA
BRANCH  31  34
HETATM   34  O1  UNL     1       7.250  -2.767   1.973  1.00  0.00    -0.282 OA
HETATM   35  C1  UNL     1       7.649  -3.513   0.861  1.00  0.00     0.237 C 
ENDBRANCH  31  34
ENDBRANCH  29  30
ENDBRANCH  26  29
ENDBRANCH  25  26
ENDBRANCH  22  25
ENDBRANCH   1  22
BRANCH  12  36
HETATM   36  O3  UNL     1      -7.342  -3.088   0.768  1.00  0.00    -0.370 OA
ATOM     37  H3  UNL     1      -7.490  -3.930   0.354  1.00  0.00     0.212 HD
ENDBRANCH  12  36
TORSDOF 7
