REMARK  5 active torsions:
REMARK  status: ('A' for Active; 'I' for Inactive)
REMARK    1  A    between atoms: C2_2  and  C3_3 
REMARK    2  A    between atoms: C3_3  and  N1_4 
REMARK    3  A    between atoms: C6_7  and  N2_8 
REMARK    4  A    between atoms: C9_12  and  O1_13 
REMARK    5  A    between atoms: C11_17  and  C12_18 
ROOT
HETATM    1  N2  UNL     1      -0.858   0.186   0.255  1.00  0.00    -0.371 N 
ATOM      2  H2  UNL     1      -0.864   1.176   0.499  1.00  0.00     0.161 HD
HETATM    3  C7  UNL     1      -2.001  -0.325   0.136  1.00  0.00     0.106 A 
HETATM    4  C8  UNL     1      -2.303  -1.609  -0.176  1.00  0.00     0.104 A 
HETATM    5  C9  UNL     1      -3.603  -2.050  -0.341  1.00  0.00     0.146 A 
HETATM    6  N3  UNL     1      -4.599  -1.157  -0.186  1.00  0.00    -0.326 N 
ATOM      7  H3  UNL     1      -5.567  -1.458  -0.304  1.00  0.00     0.169 HD
HETATM    8  C11 UNL     1      -4.333   0.140   0.125  1.00  0.00     0.092 A 
HETATM    9  N4  UNL     1      -3.057   0.527   0.279  1.00  0.00    -0.332 N 
ATOM     10  H4  UNL     1      -2.868   1.502   0.513  1.00  0.00     0.168 HD
ENDROOT
BRANCH   1  11
HETATM   11  C6  UNL     1       0.441  -0.372   0.110  1.00  0.00     0.087 C 
HETATM   12  C5  UNL     1       1.021   0.319  -1.109  1.00  0.00     0.050 C 
HETATM   13  C4  UNL     1       2.525   0.316  -1.156  1.00  0.00     0.082 C 
HETATM   14  N1  UNL     1       2.979   0.910   0.012  1.00  0.00    -0.404 N 
HETATM   15  C22 UNL     1       2.957  -1.130  -1.216  1.00  0.00     0.034 C 
HETATM   16  C17 UNL     1       2.664   0.191   1.196  1.00  0.00     0.082 C 
HETATM   17  C16 UNL     1       1.235  -0.248   1.340  1.00  0.00     0.050 C 
HETATM   18  C18 UNL     1       3.622  -0.984   1.225  1.00  0.00     0.034 C 
HETATM   19  C19 UNL     1       3.890  -1.563  -0.140  1.00  0.00    -0.044 C 
HETATM   20  C20 UNL     1       3.710  -3.081   0.018  1.00  0.00     0.015 C 
HETATM   21  C21 UNL     1       5.346  -1.371  -0.517  1.00  0.00     0.015 C 
BRANCH  14  22
HETATM   22  C3  UNL     1       3.437   2.206   0.100  1.00  0.00     0.117 C 
BRANCH  22  23
HETATM   23  C2  UNL     1       4.744   2.468  -0.652  1.00  0.00     0.015 C 
HETATM   24  C1  UNL     1       5.214   3.895  -0.500  1.00  0.00     0.006 C 
ENDBRANCH  22  23
ENDBRANCH  14  22
ENDBRANCH   1  11
BRANCH   5  25
HETATM   25  O1  UNL     1      -3.880  -3.384  -0.660  1.00  0.00    -0.341 OA
HETATM   26  C10 UNL     1      -5.218  -3.808  -0.825  1.00  0.00     0.211 C 
ENDBRANCH   5  25
BRANCH   8  27
HETATM   27  C12 UNL     1      -5.481   1.104   0.246  1.00  0.00     0.008 C 
HETATM   28  C13 UNL     1      -6.190   0.827   1.533  1.00  0.00     0.022 C 
HETATM   29  C14 UNL     1      -4.916   2.516   0.234  1.00  0.00     0.022 C 
HETATM   30  C15 UNL     1      -6.388   0.967  -0.964  1.00  0.00     0.022 C 
ENDBRANCH   8  27
TORSDOF 5
