REMARK  2 active torsions:
REMARK  status: ('A' for Active; 'I' for Inactive)
REMARK    1  A    between atoms: C3_3  and  N1_4 
REMARK    2  A    between atoms: C6_7  and  C7_8 
ROOT
HETATM    1  N1  UNL     1      -0.717   0.901   0.309  1.00  0.00     0.100 N 
HETATM    2  C4  UNL     1      -0.892   2.278  -0.045  1.00  0.00     0.276 C 
HETATM    3  C5  UNL     1       0.103   1.972  -1.189  1.00  0.00     0.068 C 
HETATM    4  C6  UNL     1       0.649   1.073  -0.091  1.00  0.00     0.254 C 
ENDROOT
BRANCH   1   5
HETATM    5  C3  UNL     1      -1.518  -0.091  -0.307  1.00  0.00     0.226 C 
HETATM    6  C2  UNL     1      -1.981  -1.059   0.780  1.00  0.00     0.063 C 
HETATM    7  C1  UNL     1      -3.318  -1.687   0.450  1.00  0.00     0.234 C 
HETATM    8  N2  UNL     1      -4.381  -0.696   0.470  1.00  0.00    -0.075 N 
HETATM    9  C14 UNL     1      -3.846   0.632   0.176  1.00  0.00     0.234 C 
ATOM     10  H22 UNL     1      -5.145  -0.945  -0.159  1.00  0.00     0.277 HD
ATOM     11  H21 UNL     1      -4.898  -0.711   1.349  1.00  0.00     0.277 HD
HETATM   12  C13 UNL     1      -2.818   0.441  -0.901  1.00  0.00     0.063 C 
ENDBRANCH   1   5
BRANCH   4  13
HETATM   13  C7  UNL     1       1.463  -0.089  -0.462  1.00  0.00     0.159 C 
HETATM   14  O1  UNL     1       1.537  -0.962   0.639  1.00  0.00    -0.378 OA
HETATM   15  C8  UNL     1       2.842  -1.021   1.053  1.00  0.00     0.122 C 
HETATM   16  C9  UNL     1       3.626  -1.809   0.021  1.00  0.00     0.032 C 
HETATM   17  C12 UNL     1       3.390   0.380   0.704  1.00  0.00     0.039 C 
HETATM   18  C10 UNL     1       3.648  -0.896  -1.211  1.00  0.00     0.010 C 
HETATM   19  C11 UNL     1       2.894   0.323  -0.730  1.00  0.00     0.019 C 
ENDBRANCH   4  13
TORSDOF 2
