REMARK  11 active torsions:
REMARK  status: ('A' for Active; 'I' for Inactive)
REMARK    1  A    between atoms: O1_2  and  C2_3 
REMARK    2  A    between atoms: C3_4  and  O2_5 
REMARK    3  A    between atoms: C4_7  and  O3_8 
REMARK    4  A    between atoms: C5_10  and  N1_11 
REMARK    5  A    between atoms: N1_11  and  C6_12 
REMARK    6  A    between atoms: N1_11  and  C14_21 
REMARK    7  A    between atoms: C6_12  and  C7_13 
REMARK    8  A    between atoms: C8_14  and  C9_15 
REMARK    9  A    between atoms: C10_16  and  C11_17 
REMARK   10  A    between atoms: C21_29  and  O5_30 
REMARK   11  A    between atoms: C28_38  and  O6_39 
ROOT
HETATM    1  C2  UNL     1      -3.113   0.247   1.150  1.00  0.00     0.129 C 
HETATM    2  C3  UNL     1      -2.206  -0.894   1.119  1.00  0.00     0.187 C 
HETATM    3  C4  UNL     1      -0.739  -0.691   1.204  1.00  0.00     0.183 C 
HETATM    4  C5  UNL     1      -0.235   0.510   0.537  1.00  0.00     0.261 C 
HETATM    5  C17 UNL     1      -1.293   1.384   0.033  1.00  0.00     0.056 C 
HETATM    6  C18 UNL     1      -1.921   1.015  -1.269  1.00  0.00     0.043 C 
HETATM    7  C19 UNL     1      -3.315   0.574  -1.302  1.00  0.00     0.146 C 
HETATM    8  O4  UNL     1      -3.202  -0.888  -1.793  1.00  0.00    -0.341 OA
HETATM    9  C20 UNL     1      -4.408  -1.460  -1.329  1.00  0.00     0.110 A 
HETATM   10  C21 UNL     1      -5.228  -2.594  -1.432  1.00  0.00     0.099 A 
HETATM   11  C22 UNL     1      -6.424  -2.661  -0.720  1.00  0.00     0.040 A 
HETATM   12  C23 UNL     1      -6.811  -1.578   0.103  1.00  0.00     0.011 A 
HETATM   13  C24 UNL     1      -5.991  -0.449   0.199  1.00  0.00    -0.047 A 
HETATM   14  C25 UNL     1      -4.937  -0.587  -0.519  1.00  0.00    -0.001 A 
HETATM   15  C26 UNL     1      -4.037   0.441  -0.048  1.00  0.00     0.057 C 
HETATM   16  C27 UNL     1      -5.364   0.928   0.475  1.00  0.00     0.059 C 
HETATM   17  C28 UNL     1      -2.337   1.584   1.109  1.00  0.00     0.163 C 
ENDROOT
BRANCH   4  18
HETATM   18  N1  UNL     1       0.875   0.237  -0.399  1.00  0.00     0.103 N 
BRANCH  18  19
HETATM   19  C6  UNL     1       1.982  -0.301   0.395  1.00  0.00     0.301 C 
BRANCH  19  20
HETATM   20  C7  UNL     1       3.128  -0.842  -0.253  1.00  0.00     0.003 C 
HETATM   21  C8  UNL     1       4.379  -0.439  -0.107  1.00  0.00    -0.002 C 
BRANCH  21  22
HETATM   22  C9  UNL     1       5.485  -1.062  -0.817  1.00  0.00    -0.000 C 
HETATM   23  C10 UNL     1       6.709  -0.613  -0.636  1.00  0.00     0.001 C 
BRANCH  23  24
HETATM   24  C11 UNL     1       7.854  -1.202  -1.321  1.00  0.00     0.019 C 
HETATM   25  C12 UNL     1       9.056  -0.731  -1.128  1.00  0.00     0.008 C 
HETATM   26  C13 UNL     1       9.301   0.403  -0.218  1.00  0.00     0.062 C 
HETATM   27 CL1  UNL     1      10.395  -1.489  -1.990  1.00  0.00    -0.089 Cl
ENDBRANCH  23  24
ENDBRANCH  21  22
ENDBRANCH  19  20
ENDBRANCH  18  19
BRANCH  18  28
HETATM   28  C14 UNL     1       1.349   1.414  -1.037  1.00  0.00     0.216 C 
HETATM   29  C15 UNL     1       2.024   2.439  -0.187  1.00  0.00     0.042 C 
HETATM   30  C16 UNL     1       2.194   1.084  -2.224  1.00  0.00     0.042 C 
ENDBRANCH  18  28
ENDBRANCH   4  18
BRANCH   3  31
HETATM   31  O3  UNL     1      -0.374  -0.783   2.567  1.00  0.00    -0.391 OA
ATOM     32  H3  UNL     1       0.565  -0.653   2.621  1.00  0.00     0.210 HD
ENDBRANCH   3  31
BRANCH   2  33
HETATM   33  O2  UNL     1      -2.574  -1.897   2.087  1.00  0.00    -0.390 OA
ATOM     34  H2  UNL     1      -1.983  -2.640   2.067  1.00  0.00     0.210 HD
ENDBRANCH   2  33
BRANCH  17  35
HETATM   35  O6  UNL     1      -3.194   2.582   0.692  1.00  0.00    -0.392 OA
ATOM     36  H6  UNL     1      -2.717   3.403   0.667  1.00  0.00     0.210 HD
ENDBRANCH  17  35
BRANCH   1  37
HETATM   37  O1  UNL     1      -3.910   0.188   2.257  1.00  0.00    -0.378 OA
HETATM   38  C1  UNL     1      -3.463   0.272   3.505  1.00  0.00     0.202 C 
ENDBRANCH   1  37
BRANCH  10  39
HETATM   39  O5  UNL     1      -4.767  -3.598  -2.265  1.00  0.00    -0.358 OA
ATOM     40  H5  UNL     1      -5.322  -4.366  -2.335  1.00  0.00     0.217 HD
ENDBRANCH  10  39
TORSDOF 11
