REMARK  7 active torsions:
REMARK  status: ('A' for Active; 'I' for Inactive)
REMARK    1  A    between atoms: C2_3  and  O1_4 
REMARK    2  A    between atoms: C3_6  and  C4_7 
REMARK    3  A    between atoms: C4_7  and  O2_8 
REMARK    4  A    between atoms: N2_10  and  N3_12 
REMARK    5  A    between atoms: C5_13  and  N4_14 
REMARK    6  A    between atoms: C6_17  and  C7_18 
REMARK       I    between atoms: C7_18  and  N5_20 
REMARK    7  A    between atoms: N5_20  and  N6_22 
ROOT
HETATM    1  N3  UNL     1       0.955   0.562   0.162  1.00  0.00    -0.059 N 
HETATM    2  C5  UNL     1       1.879   0.008   1.020  1.00  0.00     0.245 A 
HETATM    3  C6  UNL     1       3.097   0.022   0.377  1.00  0.00     0.171 A 
HETATM    4  N7  UNL     1       2.830   0.589  -0.844  1.00  0.00    -0.181 N 
ATOM      5  H7  UNL     1       3.527   0.747  -1.572  1.00  0.00     0.184 HD
HETATM    6  C8  UNL     1       1.555   0.903  -0.953  1.00  0.00     0.700 A 
HETATM    7  N8  UNL     1       1.021   1.450  -1.992  1.00  0.00    -0.233 N 
ATOM      8  H81 UNL     1       1.488   1.715  -2.859  1.00  0.00     0.174 HD
ATOM      9  H82 UNL     1       0.034   1.693  -2.076  1.00  0.00     0.174 HD
ENDROOT
BRANCH   1  10
HETATM   10  N2  UNL     1      -0.419   0.740   0.425  1.00  0.00    -0.255 N 
HETATM   11  C4  UNL     1      -1.288   0.110  -0.253  1.00  0.00     0.195 C 
ATOM     12  H2  UNL     1      -0.716   1.378   1.163  1.00  0.00     0.190 HD
BRANCH  11  13
HETATM   13  C3  UNL     1      -2.702   0.311   0.039  1.00  0.00     0.183 A 
HETATM   14  C2  UNL     1      -3.779  -0.282  -0.588  1.00  0.00     0.185 A 
HETATM   15  N1  UNL     1      -4.929   0.177  -0.016  1.00  0.00    -0.276 N 
HETATM   16  C1  UNL     1      -6.263  -0.230  -0.419  1.00  0.00     0.164 C 
HETATM   17  C9  UNL     1      -4.527   1.023   0.930  1.00  0.00     0.374 A 
HETATM   18  O6  UNL     1      -3.224   1.094   0.953  1.00  0.00    -0.252 OA
HETATM   19  O7  UNL     1      -5.290   1.666   1.694  1.00  0.00    -0.237 OA
BRANCH  14  20
HETATM   20  O1  UNL     1      -3.725  -1.193  -1.626  1.00  0.00    -0.344 OA
ATOM     21  H1  UNL     1      -2.924  -1.513  -2.024  1.00  0.00     0.219 HD
ENDBRANCH  14  20
ENDBRANCH  11  13
BRANCH  11  22
HETATM   22  O2  UNL     1      -0.904  -0.756  -1.254  1.00  0.00    -0.343 OA
ATOM     23  H2  UNL     1       0.017  -0.887  -1.444  1.00  0.00     0.219 HD
ENDBRANCH  11  22
ENDBRANCH   1  10
BRANCH   2  24
HETATM   24  N4  UNL     1       1.545  -0.462   2.310  1.00  0.00    -0.093 N 
HETATM   25  O3  UNL     1       0.318  -0.354   2.666  1.00  0.00    -0.530 OA
HETATM   26  O4  UNL     1       2.405  -1.016   3.202  1.00  0.00    -0.530 OA
ENDBRANCH   2  24
BRANCH   3  27
HETATM   27  C7  UNL     1       4.392  -0.442   0.834  1.00  0.00     0.290 C 
HETATM   28  O5  UNL     1       4.667  -0.958   1.929  1.00  0.00    -0.264 OA
HETATM   29  N5  UNL     1       5.508  -0.298  -0.068  1.00  0.00    -0.271 N 
ATOM     30  H5  UNL     1       5.381   0.116  -0.991  1.00  0.00     0.189 HD
BRANCH  29  31
HETATM   31  N6  UNL     1       6.784  -0.744   0.356  1.00  0.00    -0.342 N 
ATOM     32  H62 UNL     1       6.894  -1.156   1.283  1.00  0.00     0.176 HD
ATOM     33  H61 UNL     1       7.573  -0.642  -0.282  1.00  0.00     0.176 HD
ENDBRANCH  29  31
ENDBRANCH   3  27
TORSDOF 7
