REMARK  1 active torsions:
REMARK  status: ('A' for Active; 'I' for Inactive)
REMARK    1  A    between atoms: N5_11  and  C4_13 
ROOT
HETATM    1  C1  UNL     1      -4.075   1.514   1.095  1.00  0.00     0.165 C 
HETATM    2  N1  UNL     1      -2.688   1.255   0.823  1.00  0.00    -0.229 N 
ATOM      3  H1  UNL     1      -1.989   1.922   1.149  1.00  0.00     0.177 HD
HETATM    4  C2  UNL     1      -2.290   0.189   0.169  1.00  0.00     0.705 C 
HETATM    5  N2  UNL     1      -3.220  -0.769  -0.304  1.00  0.00    -0.115 N 
ATOM      6  H2  UNL     1      -4.136  -0.882   0.130  1.00  0.00     0.203 HD
HETATM    7  N3  UNL     1      -2.828  -1.549  -1.388  1.00  0.00     0.007 NA
HETATM    8  N4  UNL     1      -1.561  -2.074  -1.210  1.00  0.00    -0.115 N 
ATOM      9  H4  UNL     1      -1.378  -3.064  -1.374  1.00  0.00     0.203 HD
HETATM   10  C3  UNL     1      -0.497  -1.181  -0.784  1.00  0.00     0.711 C 
HETATM   11  N5  UNL     1       0.712  -1.454  -1.062  1.00  0.00    -0.173 N 
ATOM     12  H5  UNL     1       0.876  -2.313  -1.587  1.00  0.00     0.186 HD
HETATM   13  N8  UNL     1      -0.907  -0.024  -0.076  1.00  0.00    -0.020 N 
ATOM     14  H8  UNL     1      -0.216   0.649   0.255  1.00  0.00     0.203 HD
ENDROOT
BRANCH  11  15
HETATM   15  C4  UNL     1       1.853  -0.695  -0.721  1.00  0.00     0.140 A 
HETATM   16  C5  UNL     1       2.198  -0.208   0.516  1.00  0.00     0.144 A 
HETATM   17  N6  UNL     1       3.353   0.454   0.376  1.00  0.00    -0.310 N 
HETATM   18  C6  UNL     1       4.041   1.113   1.475  1.00  0.00     0.160 C 
HETATM   19  C7  UNL     1       3.758   0.408  -0.901  1.00  0.00     0.327 A 
HETATM   20  O1  UNL     1       4.821   0.946  -1.345  1.00  0.00    -0.246 OA
HETATM   21  N7  UNL     1       2.840  -0.294  -1.567  1.00  0.00    -0.293 N 
ATOM     22  H7  UNL     1       2.873  -0.500  -2.565  1.00  0.00     0.172 HD
ENDBRANCH  11  15
TORSDOF 1
