REMARK  3 active torsions:
REMARK  status: ('A' for Active; 'I' for Inactive)
REMARK    1  A    between atoms: N1_1  and  C1_5 
REMARK    2  A    between atoms: C1_5  and  C2_6 
REMARK    3  A    between atoms: C2_6  and  N2_7 
ROOT
HETATM    1  N2  UNL     1      -0.423  -0.117   0.157  1.00  0.00    -0.337 N 
HETATM    2  C3  UNL     1       0.379  -1.026   1.008  1.00  0.00     0.253 C 
HETATM    3  N3  UNL     1       1.250  -1.860   0.245  1.00  0.00    -0.327 N 
ATOM      4  H3  UNL     1       0.928  -2.813   0.077  1.00  0.00     0.165 HD
HETATM    5  C4  UNL     1       2.501  -1.520  -0.302  1.00  0.00     0.325 C 
HETATM    6  O1  UNL     1       2.844  -2.184  -1.348  1.00  0.00    -0.247 OA
HETATM    7  N4  UNL     1       3.406  -0.540   0.170  1.00  0.00    -0.260 N 
ATOM      8  H4  UNL     1       4.389  -0.707  -0.045  1.00  0.00     0.175 HD
HETATM    9  C5  UNL     1       3.135   0.621   0.889  1.00  0.00     0.342 C 
HETATM   10  O2  UNL     1       3.921   0.872   1.869  1.00  0.00    -0.245 OA
HETATM   11  N5  UNL     1       2.073   1.546   0.637  1.00  0.00    -0.249 N 
ATOM     12  H5  UNL     1       1.911   2.304   1.300  1.00  0.00     0.192 HD
HETATM   13  N6  UNL     1       1.270   1.446  -0.463  1.00  0.00    -0.270 N 
ATOM     14  H6  UNL     1       1.582   2.036  -1.234  1.00  0.00     0.189 HD
HETATM   15  C6  UNL     1       0.226   0.786  -0.742  1.00  0.00     0.206 C 
HETATM   16  N7  UNL     1      -0.366   0.944  -2.037  1.00  0.00    -0.062 NA
ENDROOT
BRANCH   1  17
HETATM   17  C2  UNL     1      -1.844  -0.225   0.332  1.00  0.00     0.154 C 
BRANCH  17  18
HETATM   18  C1  UNL     1      -2.715   0.626  -0.495  1.00  0.00     0.249 C 
BRANCH  18  19
HETATM   19  N1  UNL     1      -4.120   0.350  -0.101  1.00  0.00    -0.078 N 
ATOM     20  H13 UNL     1      -4.361  -0.639  -0.159  1.00  0.00     0.274 HD
ATOM     21  H12 UNL     1      -4.282   0.469   0.899  1.00  0.00     0.274 HD
ATOM     22  H11 UNL     1      -4.724   0.940  -0.674  1.00  0.00     0.274 HD
ENDBRANCH  18  19
ENDBRANCH  17  18
ENDBRANCH   1  17
TORSDOF 3
