REMARK  5 active torsions:
REMARK  status: ('A' for Active; 'I' for Inactive)
REMARK    1  A    between atoms: O1_1  and  C1_3 
REMARK    2  A    between atoms: C6_9  and  C7_10 
REMARK    3  A    between atoms: C7_10  and  O2_11 
REMARK    4  A    between atoms: C7_10  and  C8_13 
REMARK    5  A    between atoms: C8_13  and  C9_14 
ROOT
HETATM    1  C1  UNL     1      -2.835   0.091  -1.335  1.00  0.00     0.151 C 
HETATM    2  C2  UNL     1      -3.551   0.976  -0.350  1.00  0.00     0.304 C 
HETATM    3  N1  UNL     1      -3.128   0.648   1.018  1.00  0.00     0.091 N 
HETATM    4  C3  UNL     1      -3.562  -0.688   1.304  1.00  0.00     0.273 C 
HETATM    5  C4  UNL     1      -3.093  -1.704   0.278  1.00  0.00     0.038 C 
HETATM    6  C5  UNL     1      -2.047  -0.977  -0.580  1.00  0.00     0.026 C 
HETATM    7  C6  UNL     1      -1.043  -0.401   0.363  1.00  0.00     0.049 C 
HETATM    8  C14 UNL     1      -1.669   0.732   1.114  1.00  0.00     0.280 C 
ENDROOT
BRANCH   7   9
HETATM    9  C7  UNL     1       0.232  -0.045  -0.338  1.00  0.00     0.124 C 
BRANCH   9  10
HETATM   10  O2  UNL     1       0.096   0.881  -1.340  1.00  0.00    -0.395 OA
ATOM     11  H2  UNL     1       0.905   1.107  -1.785  1.00  0.00     0.210 HD
ENDBRANCH   9  10
BRANCH   9  12
HETATM   12  C8  UNL     1       1.285   0.457   0.624  1.00  0.00     0.037 C 
BRANCH  12  13
HETATM   13  C9  UNL     1       2.536   0.795  -0.145  1.00  0.00    -0.012 C 
HETATM   14  C10 UNL     1       3.615   1.303   0.787  1.00  0.00     0.005 C 
HETATM   15  C11 UNL     1       4.433   0.049   1.022  1.00  0.00     0.000 C 
HETATM   16  C12 UNL     1       4.568  -0.453  -0.422  1.00  0.00     0.000 C 
HETATM   17  C13 UNL     1       3.113  -0.410  -0.856  1.00  0.00     0.005 C 
ENDBRANCH  12  13
ENDBRANCH   9  12
ENDBRANCH   7   9
BRANCH   1  18
HETATM   18  O1  UNL     1      -3.842  -0.619  -2.030  1.00  0.00    -0.393 OA
ATOM     19  H1  UNL     1      -3.390  -1.178  -2.652  1.00  0.00     0.210 HD
ENDBRANCH   1  18
TORSDOF 5
