REMARK  5 active torsions:
REMARK  status: ('A' for Active; 'I' for Inactive)
REMARK    1  A    between atoms: O1_2  and  C2_3 
REMARK    2  A    between atoms: C11_14  and  O2_15 
REMARK    3  A    between atoms: C11_14  and  C12_17 
REMARK    4  A    between atoms: C12_17  and  C14_19 
REMARK    5  A    between atoms: C14_19  and  O3_20 
ROOT
HETATM    1  C2  UNL     1      -0.572   1.233   0.695  1.00  0.00     0.200 C 
HETATM    2  C3  UNL     1       0.767   1.528  -0.032  1.00  0.00     0.295 C 
HETATM    3  N1  UNL     1       1.080   0.244  -0.534  1.00  0.00     0.006 N 
HETATM    4  C4  UNL     1       2.163   0.177  -1.470  1.00  0.00     0.264 C 
HETATM    5  C5  UNL     1       2.961  -1.087  -1.156  1.00  0.00     0.015 C 
HETATM    6  C6  UNL     1       3.945  -0.687  -0.089  1.00  0.00     0.008 C 
HETATM    7  C7  UNL     1       2.962  -0.158   0.967  1.00  0.00     0.036 C 
HETATM    8  C8  UNL     1       1.591  -0.579   0.551  1.00  0.00     0.210 C 
HETATM    9  C9  UNL     1       1.936  -1.830  -0.282  1.00  0.00     0.041 C 
HETATM   10  N2  UNL     1      -0.102  -0.199  -1.071  1.00  0.00    -0.110 NA
HETATM   11  C10 UNL     1      -0.282   0.232  -2.432  1.00  0.00     0.147 C 
HETATM   12  C11 UNL     1      -1.203   0.251  -0.242  1.00  0.00     0.171 C 
ENDROOT
BRANCH  12  13
HETATM   13  O2  UNL     1      -2.134   0.993  -0.983  1.00  0.00    -0.371 OA
ATOM     14  H2  UNL     1      -2.534   0.370  -1.578  1.00  0.00     0.212 HD
ENDBRANCH  12  13
BRANCH  12  15
HETATM   15  C12 UNL     1      -1.951  -0.876   0.382  1.00  0.00     0.059 C 
HETATM   16  C13 UNL     1      -2.545  -1.814  -0.685  1.00  0.00     0.017 C 
BRANCH  15  17
HETATM   17  C14 UNL     1      -3.149  -0.452   1.201  1.00  0.00     0.172 C 
BRANCH  17  18
HETATM   18  O3  UNL     1      -3.737  -1.639   1.707  1.00  0.00    -0.400 OA
ATOM     19  H3  UNL     1      -4.490  -1.373   2.222  1.00  0.00     0.209 HD
ENDBRANCH  17  18
ENDBRANCH  15  17
ENDBRANCH  12  15
BRANCH   1  20
HETATM   20  O1  UNL     1      -1.273   2.430   0.832  1.00  0.00    -0.384 OA
HETATM   21  C1  UNL     1      -1.409   2.873   2.123  1.00  0.00     0.202 C 
ENDBRANCH   1  20
TORSDOF 5
