REMARK  6 active torsions:
REMARK  status: ('A' for Active; 'I' for Inactive)
REMARK    1  A    between atoms: C3_3  and  C4_4 
REMARK    2  A    between atoms: C4_4  and  O1_5 
REMARK    3  A    between atoms: O1_5  and  C5_6 
REMARK    4  A    between atoms: C5_6  and  C6_7 
REMARK    5  A    between atoms: C17_22  and  C18_23 
REMARK    6  A    between atoms: C20_27  and  O4_28 
ROOT
HETATM    1  C1  UNL     1       7.455   1.963  -0.385  1.00  0.00     0.012 C 
HETATM    2  C2  UNL     1       6.957   0.887  -0.170  1.00  0.00    -0.115 C 
HETATM    3  C3  UNL     1       6.342  -0.417   0.068  1.00  0.00     0.119 C 
ENDROOT
BRANCH   3   4
HETATM    4  C4  UNL     1       4.835  -0.332  -0.375  1.00  0.00     0.179 C 
BRANCH   4   5
HETATM    5  O1  UNL     1       4.221  -1.468  -0.190  1.00  0.00    -0.388 OA
BRANCH   5   6
HETATM    6  C5  UNL     1       3.029  -1.872  -0.446  1.00  0.00     0.199 C 
BRANCH   6   7
HETATM    7  C6  UNL     1       1.793  -1.337   0.262  1.00  0.00     0.148 C 
HETATM    8  C7  UNL     1       1.834   0.151   0.178  1.00  0.00     0.039 C 
HETATM    9  C8  UNL     1       0.657   0.941   0.658  1.00  0.00    -0.007 C 
HETATM   10  C9  UNL     1      -0.212   1.751  -0.188  1.00  0.00     0.035 C 
HETATM   11  C19 UNL     1      -0.232  -0.119   1.166  1.00  0.00     0.052 C 
HETATM   12  C10 UNL     1      -1.723   1.539   0.029  1.00  0.00     0.032 C 
HETATM   13  C11 UNL     1      -2.146   2.289   1.307  1.00  0.00     0.039 C 
HETATM   14  C12 UNL     1      -2.515   2.205  -1.030  1.00  0.00     0.031 C 
HETATM   15  N2  UNL     1      -2.078   0.100   0.108  1.00  0.00    -0.338 N 
HETATM   16  C13 UNL     1      -3.950   1.971  -1.125  1.00  0.00     0.003 C 
HETATM   17  C14 UNL     1      -4.763   1.627   0.042  1.00  0.00     0.007 C 
HETATM   18  C15 UNL     1      -4.605   0.239   0.585  1.00  0.00     0.076 C 
HETATM   19  C16 UNL     1      -3.335  -0.430   0.263  1.00  0.00     0.074 C 
HETATM   20  N1  UNL     1      -3.379  -1.706   0.102  1.00  0.00    -0.389 N 
ATOM     21  H12 UNL     1      -4.313  -2.100   0.217  1.00  0.00     0.157 HD
ATOM     22  H11 UNL     1      -2.498  -2.170  -0.121  1.00  0.00     0.157 HD
HETATM   23  C17 UNL     1      -0.928  -0.694   0.016  1.00  0.00     0.173 C 
HETATM   24  C20 UNL     1      -0.524  -2.070   0.233  1.00  0.00     0.298 C 
HETATM   25  O5  UNL     1       0.799  -2.045  -0.300  1.00  0.00    -0.351 OA
BRANCH  23  26
HETATM   26  C18 UNL     1      -0.764  -0.679  -1.380  1.00  0.00     0.208 C 
HETATM   27  O2  UNL     1      -1.791  -0.638  -2.110  1.00  0.00    -0.646 OA
HETATM   28  O3  UNL     1       0.247  -0.697  -2.319  1.00  0.00    -0.646 OA
ENDBRANCH  23  26
BRANCH  24  29
HETATM   29  O4  UNL     1      -0.364  -2.540   1.518  1.00  0.00    -0.363 OA
HETATM   30  C21 UNL     1      -0.799  -3.829   1.706  1.00  0.00     0.204 C 
ENDBRANCH  24  29
ENDBRANCH   6   7
ENDBRANCH   5   6
ENDBRANCH   4   5
ENDBRANCH   3   4
TORSDOF 6
