REMARK  9 active torsions:
REMARK  status: ('A' for Active; 'I' for Inactive)
REMARK    1  A    between atoms: C2_2  and  C3_3 
REMARK    2  A    between atoms: C3_3  and  C4_4 
REMARK    3  A    between atoms: C4_4  and  C5_5 
REMARK    4  A    between atoms: C8_11  and  S1_12 
REMARK    5  A    between atoms: S1_12  and  C9_13 
REMARK    6  A    between atoms: C9_13  and  C10_14 
REMARK       I    between atoms: C10_14  and  N2_16 
REMARK    7  A    between atoms: N2_16  and  C11_18 
REMARK    8  A    between atoms: C13_20  and  C14_21 
REMARK    9  A    between atoms: N5_29  and  C18_30 
ROOT
HETATM    1  C9  UNL     1      -0.327  -2.044  -1.734  1.00  0.00     0.185 C 
ENDROOT
BRANCH   1   2
HETATM    2  S1  UNL     1       1.400  -1.611  -1.813  1.00  0.00    -0.084 SA
BRANCH   2   3
HETATM    3  C8  UNL     1       2.121  -1.285  -0.230  1.00  0.00     0.150 A 
HETATM    4  N1  UNL     1       1.481  -1.343   0.926  1.00  0.00    -0.304 N 
HETATM    5  C7  UNL     1       2.044  -1.093   2.109  1.00  0.00     0.249 A 
ATOM      6  H1  UNL     1       0.493  -1.595   0.912  1.00  0.00     0.171 HD
HETATM    7  C6  UNL     1       3.368  -0.754   2.158  1.00  0.00     0.099 A 
HETATM    8  O1  UNL     1       1.364  -1.168   3.184  1.00  0.00    -0.268 OA
HETATM    9  C5  UNL     1       4.083  -0.682   0.948  1.00  0.00     0.019 A 
HETATM   10  N5  UNL     1       3.450  -0.947  -0.197  1.00  0.00    -0.331 N 
BRANCH   9  11
HETATM   11  C4  UNL     1       5.505  -0.352   1.103  1.00  0.00     0.057 C 
BRANCH  11  12
HETATM   12  C3  UNL     1       5.664   1.142   1.208  1.00  0.00     0.006 C 
BRANCH  12  13
HETATM   13  C2  UNL     1       7.122   1.539   1.368  1.00  0.00    -0.004 C 
HETATM   14  C1  UNL     1       7.961   1.087   0.207  1.00  0.00     0.005 C 
ENDBRANCH  12  13
ENDBRANCH  11  12
ENDBRANCH   9  11
BRANCH  10  15
HETATM   15  C18 UNL     1       4.167  -0.897  -1.429  1.00  0.00     0.126 C 
HETATM   16  C19 UNL     1       4.110   0.411  -2.135  1.00  0.00     0.027 C 
ENDBRANCH  10  15
ENDBRANCH   2   3
ENDBRANCH   1   2
BRANCH   1  17
HETATM   17  C10 UNL     1      -1.195  -0.951  -1.274  1.00  0.00     0.233 C 
HETATM   18  O2  UNL     1      -0.740   0.178  -0.979  1.00  0.00    -0.272 OA
HETATM   19  N2  UNL     1      -2.574  -1.190  -1.166  1.00  0.00    -0.311 N 
ATOM     20  H2  UNL     1      -2.871  -2.137  -1.400  1.00  0.00     0.170 HD
BRANCH  19  21
HETATM   21  C11 UNL     1      -3.498  -0.408  -0.823  1.00  0.00     0.124 A 
HETATM   22  C12 UNL     1      -4.842  -0.792  -0.762  1.00  0.00     0.077 A 
HETATM   23  C13 UNL     1      -5.593   0.289  -0.355  1.00  0.00     0.037 A 
HETATM   24  N3  UNL     1      -4.727   1.294  -0.178  1.00  0.00    -0.302 N 
HETATM   25  N4  UNL     1      -3.494   0.882  -0.454  1.00  0.00    -0.285 N 
ATOM     26  H3  UNL     1      -4.976   2.236   0.124  1.00  0.00     0.186 HD
ATOM     27  H4  UNL     1      -2.660   1.466  -0.394  1.00  0.00     0.188 HD
BRANCH  23  28
HETATM   28  C14 UNL     1      -7.065   0.347  -0.149  1.00  0.00    -0.007 C 
HETATM   29  C15 UNL     1      -7.420   1.356   0.929  1.00  0.00     0.021 C 
HETATM   30  C16 UNL     1      -7.804   0.766  -1.400  1.00  0.00     0.021 C 
HETATM   31  C17 UNL     1      -7.556  -1.025   0.268  1.00  0.00     0.021 C 
ENDBRANCH  23  28
ENDBRANCH  19  21
ENDBRANCH   1  17
TORSDOF 9
