REMARK  9 active torsions:
REMARK  status: ('A' for Active; 'I' for Inactive)
REMARK    1  A    between atoms: C2_2  and  N1_3 
REMARK       I    between atoms: N1_3  and  C3_5 
REMARK    2  A    between atoms: C3_5  and  C4_7 
REMARK    3  A    between atoms: C4_7  and  C5_9 
REMARK    4  A    between atoms: C5_9  and  O4_11 
REMARK    5  A    between atoms: O4_11  and  C6_12 
REMARK    6  A    between atoms: C6_12  and  C7_13 
REMARK    7  A    between atoms: C7_13  and  N2_14 
REMARK    8  A    between atoms: C9_19  and  O5_20 
REMARK    9  A    between atoms: O5_20  and  C10_21 
REMARK       I    between atoms: C10_21  and  N3_23 
ROOT
HETATM    1  C7  UNL     1       0.730  -0.288  -1.077  1.00  0.00     0.152 C 
HETATM    2  C8  UNL     1       1.953  -1.140  -0.981  1.00  0.00     0.074 C 
HETATM    3  C9  UNL     1       2.669  -0.702   0.254  1.00  0.00     0.141 C 
HETATM    4  C12 UNL     1       1.984   0.526   0.743  1.00  0.00     0.031 A 
HETATM    5  C13 UNL     1       0.868   0.871  -0.162  1.00  0.00     0.039 A 
HETATM    6  C14 UNL     1       2.020   1.762  -0.074  1.00  0.00    -0.035 A 
HETATM    7  C15 UNL     1       1.832   3.037   0.728  1.00  0.00     0.016 C 
HETATM    8  C16 UNL     1       3.022   1.927  -1.186  1.00  0.00     0.016 C 
ENDROOT
BRANCH   1   9
HETATM    9  C6  UNL     1      -0.462  -1.110  -0.628  1.00  0.00     0.218 C 
BRANCH   9  10
HETATM   10  O4  UNL     1      -1.664  -0.335  -0.701  1.00  0.00    -0.312 OA
BRANCH  10  11
HETATM   11  C5  UNL     1      -2.889  -0.832  -0.354  1.00  0.00     0.339 C 
HETATM   12  O3  UNL     1      -2.940  -2.027   0.045  1.00  0.00    -0.255 OA
BRANCH  11  13
HETATM   13  C4  UNL     1      -4.055   0.019  -0.457  1.00  0.00     0.313 C 
HETATM   14  O2  UNL     1      -3.975   1.203  -0.857  1.00  0.00    -0.276 OA
BRANCH  13  15
HETATM   15  C3  UNL     1      -5.365  -0.496  -0.091  1.00  0.00     0.298 C 
HETATM   16  N1  UNL     1      -6.533   0.309  -0.178  1.00  0.00    -0.354 N 
ATOM     17  H1  UNL     1      -6.450   1.272  -0.505  1.00  0.00     0.162 HD
HETATM   18  O1  UNL     1      -5.498  -1.690   0.321  1.00  0.00    -0.264 OA
BRANCH  16  19
HETATM   19  C2  UNL     1      -7.830  -0.201   0.184  1.00  0.00     0.118 C 
HETATM   20  C1  UNL     1      -7.874  -0.643   1.626  1.00  0.00     0.026 C 
ENDBRANCH  16  19
ENDBRANCH  13  15
ENDBRANCH  11  13
ENDBRANCH  10  11
ENDBRANCH   9  10
ENDBRANCH   1   9
BRANCH   1  21
HETATM   21  N2  UNL     1       0.450   0.106  -2.463  1.00  0.00    -0.068 N 
ATOM     22  H23 UNL     1       0.245  -0.682  -3.077  1.00  0.00     0.275 HD
ATOM     23  H22 UNL     1      -0.442   0.587  -2.577  1.00  0.00     0.275 HD
ATOM     24  H21 UNL     1       1.252   0.659  -2.765  1.00  0.00     0.275 HD
ENDBRANCH   1  21
BRANCH   3  25
HETATM   25  O5  UNL     1       4.044  -0.420  -0.021  1.00  0.00    -0.298 OA
BRANCH  25  26
HETATM   26  C10 UNL     1       5.067  -1.053   0.675  1.00  0.00     0.360 C 
HETATM   27  O6  UNL     1       4.712  -1.880   1.552  1.00  0.00    -0.239 OA
HETATM   28  N3  UNL     1       6.439  -0.796   0.427  1.00  0.00    -0.341 N 
HETATM   29  C11 UNL     1       7.422  -1.510   1.208  1.00  0.00     0.151 C 
ATOM     30  H3  UNL     1       6.725  -0.124  -0.285  1.00  0.00     0.164 HD
ENDBRANCH  25  26
ENDBRANCH   3  25
TORSDOF 9
