REMARK  9 active torsions:
REMARK  status: ('A' for Active; 'I' for Inactive)
REMARK    1  A    between atoms: C2_2  and  N1_3 
REMARK    2  A    between atoms: N1_3  and  N2_4 
REMARK    3  A    between atoms: N1_3  and  C5_9 
REMARK       I    between atoms: N2_4  and  C3_6 
REMARK    4  A    between atoms: C8_13  and  C9_14 
REMARK    5  A    between atoms: C8_13  and  C10_17 
REMARK    6  A    between atoms: C9_14  and  O2_15 
REMARK    7  A    between atoms: C10_17  and  O3_18 
REMARK    8  A    between atoms: O3_18  and  S2_19 
REMARK    9  A    between atoms: S2_19  and  N3_20 
ROOT
HETATM    1  C5  UNL     1       0.817  -0.746   0.213  1.00  0.00     0.128 C 
HETATM    2  C6  UNL     1       1.574  -1.935   0.709  1.00  0.00     0.056 C 
HETATM    3  S1  UNL     1      -0.002  -0.106   1.769  1.00  0.00    -0.132 SA
HETATM    4  C7  UNL     1      -1.305  -1.417   1.635  1.00  0.00     0.093 C 
HETATM    5  C8  UNL     1      -1.597  -1.167   0.169  1.00  0.00     0.046 C 
HETATM    6  C11 UNL     1      -0.370  -0.992  -0.617  1.00  0.00     0.223 C 
HETATM    7  F1  UNL     1      -0.157  -2.042  -1.518  1.00  0.00    -0.245 F 
ENDROOT
BRANCH   5   8
HETATM    8  C9  UNL     1      -2.385  -2.320  -0.463  1.00  0.00     0.179 C 
BRANCH   8   9
HETATM    9  O2  UNL     1      -2.559  -1.906  -1.814  1.00  0.00    -0.400 OA
ATOM     10  H2  UNL     1      -3.047  -2.621  -2.206  1.00  0.00     0.209 HD
ENDBRANCH   8   9
ENDBRANCH   5   8
BRANCH   5  11
HETATM   11  C10 UNL     1      -2.511   0.020   0.139  1.00  0.00     0.207 C 
BRANCH  11  12
HETATM   12  O3  UNL     1      -2.902   0.427  -1.115  1.00  0.00    -0.259 OA
BRANCH  12  13
HETATM   13  S2  UNL     1      -3.944   1.770  -1.000  1.00  0.00     0.355 S 
HETATM   14  O4  UNL     1      -5.308   1.441  -1.566  1.00  0.00    -0.176 OA
HETATM   15  O5  UNL     1      -3.394   2.971  -1.710  1.00  0.00    -0.176 OA
BRANCH  13  16
HETATM   16  N3  UNL     1      -4.161   2.216   0.679  1.00  0.00    -0.306 N 
ATOM     17  H32 UNL     1      -3.721   1.733   1.462  1.00  0.00     0.171 HD
ATOM     18  H31 UNL     1      -4.785   3.020   0.748  1.00  0.00     0.171 HD
ENDBRANCH  13  16
ENDBRANCH  12  13
ENDBRANCH  11  12
ENDBRANCH   5  11
BRANCH   1  19
HETATM   19  N1  UNL     1       1.669   0.324  -0.326  1.00  0.00    -0.282 N 
BRANCH  19  20
HETATM   20  C2  UNL     1       2.466  -0.141  -1.381  1.00  0.00     0.081 C 
HETATM   21  C1  UNL     1       3.098   0.860  -2.303  1.00  0.00     0.057 C 
ENDBRANCH  19  20
BRANCH  19  22
HETATM   22  N2  UNL     1       2.159   1.094   0.669  1.00  0.00    -0.267 N 
HETATM   23  C3  UNL     1       3.470   1.404   1.044  1.00  0.00     0.232 C 
HETATM   24  C4  UNL     1       3.721   2.307   2.237  1.00  0.00     0.119 C 
HETATM   25  O1  UNL     1       4.457   0.981   0.446  1.00  0.00    -0.272 OA
ATOM     26  H2  UNL     1       1.444   1.528   1.253  1.00  0.00     0.190 HD
ENDBRANCH  19  22
ENDBRANCH   1  19
TORSDOF 9
