REMARK  5 active torsions:
REMARK  status: ('A' for Active; 'I' for Inactive)
REMARK    1  A    between atoms: C2_2  and  C3_3 
REMARK    2  A    between atoms: C9_11  and  O3_12 
REMARK    3  A    between atoms: C10_14  and  O4_15 
REMARK    4  A    between atoms: O4_15  and  C11_16 
REMARK    5  A    between atoms: C14_20  and  C16_22 
ROOT
HETATM    1  C16 UNL     1      -1.901   1.140  -0.247  1.00  0.00     0.001 C 
HETATM    2  C17 UNL     1      -2.389   2.061   0.482  1.00  0.00     0.015 C 
HETATM    3  C18 UNL     1      -3.888   2.385   0.355  1.00  0.00     0.060 C 
HETATM    4  C19 UNL     1      -1.756   2.889   1.441  1.00  0.00     0.094 C 
HETATM    5  N1  UNL     1      -1.257   3.600   2.247  1.00  0.00    -0.192 NA
ENDROOT
BRANCH   1   6
HETATM    6  C14 UNL     1      -0.575   0.516  -0.452  1.00  0.00    -0.011 C 
HETATM    7  C3  UNL     1      -0.574  -0.965  -0.096  1.00  0.00     0.016 C 
HETATM    8  C4  UNL     1      -0.923  -1.935  -1.142  1.00  0.00     0.094 C 
HETATM    9  C7  UNL     1       0.792  -1.458   0.232  1.00  0.00     0.104 C 
HETATM   10  C5  UNL     1      -1.930  -1.734  -2.162  1.00  0.00     0.021 C 
HETATM   11  C6  UNL     1       0.363  -2.384  -1.759  1.00  0.00     0.264 C 
HETATM   12  O1  UNL     1       0.590  -3.214  -2.662  1.00  0.00    -0.265 OA
HETATM   13  O2  UNL     1       1.333  -1.657  -1.097  1.00  0.00    -0.306 OA
HETATM   14  C8  UNL     1       0.922  -2.777   0.890  1.00  0.00     0.050 C 
HETATM   15  C9  UNL     1       1.747  -0.552   0.906  1.00  0.00     0.183 C 
HETATM   16  C10 UNL     1       1.787   0.716   0.077  1.00  0.00     0.164 C 
HETATM   17  C13 UNL     1       0.404   1.288   0.397  1.00  0.00     0.049 C 
HETATM   18  C15 UNL     1      -0.237   0.840  -1.877  1.00  0.00     0.020 C 
BRANCH   7  19
HETATM   19  C2  UNL     1      -1.582  -1.023   1.008  1.00  0.00     0.010 C 
HETATM   20  C1  UNL     1      -1.827  -2.238   1.776  1.00  0.00     0.006 C 
ENDBRANCH   7  19
BRANCH  15  21
HETATM   21  O3  UNL     1       2.980  -1.176   0.959  1.00  0.00    -0.390 OA
ATOM     22  H3  UNL     1       3.593  -0.594   1.392  1.00  0.00     0.210 HD
ENDBRANCH  15  21
BRANCH  16  23
HETATM   23  O4  UNL     1       2.817   1.543   0.547  1.00  0.00    -0.314 OA
BRANCH  23  24
HETATM   24  C11 UNL     1       3.794   2.071  -0.297  1.00  0.00     0.255 C 
HETATM   25  C12 UNL     1       4.889   2.939   0.151  1.00  0.00     0.126 C 
HETATM   26  O5  UNL     1       3.691   1.757  -1.516  1.00  0.00    -0.266 OA
ENDBRANCH  23  24
ENDBRANCH  16  23
ENDBRANCH   1   6
TORSDOF 5
