REMARK  3 active torsions:
REMARK  status: ('A' for Active; 'I' for Inactive)
REMARK    1  A    between atoms: C3_4  and  O2_5 
REMARK    2  A    between atoms: O2_5  and  C4_6 
REMARK    3  A    between atoms: C4_6  and  N1_7 
ROOT
HETATM    1  O2  UNL     1       0.335   0.657   0.474  1.00  0.00    -0.335 OA
ENDROOT
BRANCH   1   2
HETATM    2  C3  UNL     1      -1.029   0.404   0.381  1.00  0.00     0.167 C 
HETATM    3  O1  UNL     1      -1.451   1.591  -0.198  1.00  0.00    -0.350 OA
HETATM    4  C2  UNL     1      -2.675   1.793  -0.607  1.00  0.00     0.125 C 
HETATM    5  C1  UNL     1      -2.720   1.880  -2.130  1.00  0.00     0.040 C 
HETATM    6  C16 UNL     1      -3.769   0.865  -0.183  1.00  0.00     0.015 C 
HETATM    7  C15 UNL     1      -3.923   0.717   1.280  1.00  0.00     0.012 C 
HETATM    8  C17 UNL     1      -3.684  -0.383  -0.968  1.00  0.00     0.012 C 
HETATM    9  C14 UNL     1      -2.932  -0.102   1.991  1.00  0.00    -0.009 C 
HETATM   10  C13 UNL     1      -3.099  -1.584   1.870  1.00  0.00     0.005 C 
HETATM   11  C18 UNL     1      -1.489   0.251   1.789  1.00  0.00     0.073 C 
HETATM   12  C12 UNL     1      -3.078  -2.178   0.544  1.00  0.00     0.005 C 
HETATM   13  C11 UNL     1      -2.609  -1.328  -0.604  1.00  0.00    -0.009 C 
HETATM   14  C10 UNL     1      -1.238  -0.802  -0.467  1.00  0.00     0.073 C 
ENDBRANCH   1   2
BRANCH   1  15
HETATM   15  C4  UNL     1       1.173  -0.242   0.988  1.00  0.00     0.328 C 
BRANCH  15  16
HETATM   16  N1  UNL     1       2.515   0.364   0.902  1.00  0.00    -0.126 N 
HETATM   17  S1  UNL     1       3.055   1.867   1.652  1.00  0.00     0.044 SA
HETATM   18  C5  UNL     1       4.517   2.051   0.657  1.00  0.00     0.177 C 
HETATM   19  N2  UNL     1       5.211   3.096   0.512  1.00  0.00    -0.378 N 
HETATM   20  N3  UNL     1       4.716   0.771   0.073  1.00  0.00    -0.160 N 
ATOM     21  H22 UNL     1       5.068   4.015   0.931  1.00  0.00     0.158 HD
ATOM     22  H21 UNL     1       6.050   3.202  -0.059  1.00  0.00     0.158 HD
HETATM   23  C6  UNL     1       5.943   0.361  -0.644  1.00  0.00     0.151 C 
HETATM   24  C9  UNL     1       3.672  -0.125   0.196  1.00  0.00     0.692 C 
HETATM   25  C7  UNL     1       6.153  -1.115  -0.648  1.00  0.00     0.041 C 
HETATM   26  C8  UNL     1       4.873  -1.848  -1.005  1.00  0.00     0.139 C 
HETATM   27  N4  UNL     1       3.760  -1.315  -0.301  1.00  0.00    -0.225 N 
ATOM     28  H4  UNL     1       2.955  -1.929  -0.176  1.00  0.00     0.177 HD
ENDBRANCH  15  16
ENDBRANCH   1  15
TORSDOF 3
