REMARK  3 active torsions:
REMARK  status: ('A' for Active; 'I' for Inactive)
REMARK    1  A    between atoms: C2_2  and  C3_3 
REMARK    2  A    between atoms: C8_13  and  N4_14 
REMARK    3  A    between atoms: C13_21  and  C14_22 
ROOT
HETATM    1  C1  UNL     1       1.142   1.271   0.084  1.00  0.00     0.078 A 
HETATM    2  C2  UNL     1       1.508  -0.043  -0.129  1.00  0.00     0.036 A 
HETATM    3  N2  UNL     1       0.372  -0.748  -0.223  1.00  0.00    -0.282 N 
ATOM      4  H2  UNL     1       0.329  -1.755  -0.381  1.00  0.00     0.188 HD
HETATM    5  N3  UNL     1      -0.671   0.022  -0.086  1.00  0.00    -0.070 N 
HETATM    6  C8  UNL     1      -2.003  -0.270  -0.112  1.00  0.00     0.704 A 
HETATM    7  N5  UNL     1      -2.844   0.746   0.061  1.00  0.00    -0.178 N 
ATOM      8  H5  UNL     1      -3.846   0.556   0.047  1.00  0.00     0.185 HD
HETATM    9  C13 UNL     1      -2.435   2.005   0.253  1.00  0.00     0.103 A 
HETATM   10  N6  UNL     1      -1.109   2.293   0.279  1.00  0.00    -0.329 N 
ATOM     11  H6  UNL     1      -0.782   3.248   0.426  1.00  0.00     0.168 HD
HETATM   12  C17 UNL     1      -0.234   1.278   0.105  1.00  0.00     0.148 A 
ENDROOT
BRANCH   2  13
HETATM   13  C3  UNL     1       2.858  -0.628  -0.241  1.00  0.00     0.054 C 
HETATM   14  C4  UNL     1       3.547  -0.433   1.096  1.00  0.00     0.014 C 
HETATM   15  C5  UNL     1       5.026  -0.663   0.873  1.00  0.00     0.020 C 
HETATM   16  C6  UNL     1       5.542   0.478   0.036  1.00  0.00     0.113 C 
HETATM   17  N1  UNL     1       4.621   0.942  -0.941  1.00  0.00    -0.420 N 
HETATM   18  C7  UNL     1       3.652  -0.025  -1.369  1.00  0.00     0.124 C 
ATOM     19  H1  UNL     1       4.647   1.892  -1.311  1.00  0.00     0.153 HD
ENDBRANCH   2  13
BRANCH   6  20
HETATM   20  N4  UNL     1      -2.417  -1.611  -0.318  1.00  0.00    -0.216 N 
HETATM   21  C9  UNL     1      -1.616  -2.777  -0.518  1.00  0.00     0.141 C 
HETATM   22  C10 UNL     1      -2.575  -3.884  -0.901  1.00  0.00     0.022 C 
HETATM   23  C11 UNL     1      -3.829  -3.493  -0.150  1.00  0.00     0.022 C 
HETATM   24  C12 UNL     1      -3.838  -1.994  -0.351  1.00  0.00     0.141 C 
ENDBRANCH   6  20
BRANCH   9  25
HETATM   25  C14 UNL     1      -3.468   3.053   0.434  1.00  0.00     0.054 A 
HETATM   26  C15 UNL     1      -3.155   4.084   1.529  1.00  0.00     0.013 A 
HETATM   27  C16 UNL     1      -3.082   4.449   0.107  1.00  0.00     0.013 A 
ENDBRANCH   9  25
TORSDOF 3
