REMARK  3 active torsions:
REMARK  status: ('A' for Active; 'I' for Inactive)
REMARK    1  A    between atoms: N1_1  and  C1_5 
REMARK    2  A    between atoms: C1_5  and  C2_6 
REMARK    3  A    between atoms: C2_6  and  C3_7 
ROOT
HETATM    1  C3  UNL     1       0.562  -0.379   0.081  1.00  0.00    -0.038 C 
HETATM    2  C4  UNL     1      -0.095  -0.770  -1.220  1.00  0.00     0.014 C 
HETATM    3  C5  UNL     1      -1.547  -0.363  -1.192  1.00  0.00    -0.013 C 
HETATM    4  C6  UNL     1      -2.322  -1.042  -0.095  1.00  0.00     0.009 C 
HETATM    5  C7  UNL     1      -1.677  -0.686   1.210  1.00  0.00    -0.013 C 
HETATM    6  C8  UNL     1      -1.748   0.804   1.448  1.00  0.00     0.009 C 
HETATM    7  C9  UNL     1      -1.052   1.515   0.341  1.00  0.00    -0.013 C 
HETATM    8  C10 UNL     1      -1.710   1.129  -0.982  1.00  0.00     0.009 C 
HETATM    9  C11 UNL     1       0.408   1.118   0.199  1.00  0.00     0.014 C 
HETATM   10  C12 UNL     1      -0.243  -1.080   1.193  1.00  0.00     0.014 C 
ENDROOT
BRANCH   1  11
HETATM   11  C2  UNL     1       1.951  -0.852   0.240  1.00  0.00     0.036 C 
BRANCH  11  12
HETATM   12  C1  UNL     1       2.976  -0.425  -0.732  1.00  0.00     0.230 C 
BRANCH  12  13
HETATM   13  N1  UNL     1       3.151   1.011  -0.744  1.00  0.00    -0.079 N 
ATOM     14  H13 UNL     1       2.265   1.490  -0.907  1.00  0.00     0.274 HD
ATOM     15  H12 UNL     1       3.357   1.366   0.190  1.00  0.00     0.274 HD
ATOM     16  H11 UNL     1       3.859   1.306  -1.416  1.00  0.00     0.274 HD
ENDBRANCH  12  13
ENDBRANCH  11  12
ENDBRANCH   1  11
TORSDOF 3
