REMARK  4 active torsions:
REMARK  status: ('A' for Active; 'I' for Inactive)
REMARK    1  A    between atoms: N1_1  and  C1_5 
REMARK    2  A    between atoms: C1_5  and  C2_6 
REMARK    3  A    between atoms: C2_6  and  C3_7 
REMARK    4  A    between atoms: C3_7  and  C4_8 
ROOT
HETATM    1  C4  UNL     1       0.318  -0.664  -0.377  1.00  0.00    -0.001 C 
HETATM    2  C5  UNL     1      -0.353  -2.013  -0.274  1.00  0.00     0.079 C 
HETATM    3  S1  UNL     1      -2.150  -1.891  -0.211  1.00  0.00    -0.164 SA
HETATM    4  C6  UNL     1      -2.536  -0.630   1.034  1.00  0.00     0.047 C 
HETATM    5  C7  UNL     1      -3.502   0.388   0.546  1.00  0.00     0.015 C 
HETATM    6  C8  UNL     1      -3.394   0.742  -0.894  1.00  0.00     0.001 C 
HETATM    7  C9  UNL     1      -1.979   0.964  -1.375  1.00  0.00     0.000 C 
HETATM    8  C10 UNL     1      -1.043   1.451  -0.336  1.00  0.00     0.005 C 
HETATM    9  C11 UNL     1      -0.305   0.392   0.441  1.00  0.00    -0.009 C 
HETATM   10  C12 UNL     1      -1.239  -0.091   1.526  1.00  0.00     0.020 C 
ENDROOT
BRANCH   1  11
HETATM   11  C3  UNL     1       1.776  -0.931  -0.100  1.00  0.00     0.007 C 
BRANCH  11  12
HETATM   12  C2  UNL     1       2.677   0.246  -0.149  1.00  0.00     0.027 C 
BRANCH  12  13
HETATM   13  C1  UNL     1       4.091  -0.287   0.151  1.00  0.00     0.229 C 
BRANCH  13  14
HETATM   14  N1  UNL     1       5.041   0.803   0.123  1.00  0.00    -0.079 N 
ATOM     15  H13 UNL     1       5.005   1.321  -0.755  1.00  0.00     0.274 HD
ATOM     16  H12 UNL     1       4.775   1.560   0.753  1.00  0.00     0.274 HD
ATOM     17  H11 UNL     1       5.977   0.450   0.322  1.00  0.00     0.274 HD
ENDBRANCH  13  14
ENDBRANCH  12  13
ENDBRANCH  11  12
ENDBRANCH   1  11
TORSDOF 4
