REMARK  4 active torsions:
REMARK  status: ('A' for Active; 'I' for Inactive)
REMARK    1  A    between atoms: O1_1  and  C1_3 
REMARK    2  A    between atoms: N1_8  and  C4_9 
REMARK    3  A    between atoms: C4_9  and  O3_10 
REMARK    4  A    between atoms: C4_9  and  C5_12 
ROOT
HETATM    1  C4  UNL     1      -0.385   0.733  -1.006  1.00  0.00     0.264 C 
ENDROOT
BRANCH   1   2
HETATM    2  N1  UNL     1      -1.559   0.616  -0.160  1.00  0.00    -0.265 N 
HETATM    3  C1  UNL     1      -2.488  -0.354  -0.202  1.00  0.00     0.170 A 
HETATM    4  C2  UNL     1      -3.425  -0.079   0.772  1.00  0.00     0.201 A 
HETATM    5  O2  UNL     1      -3.067   1.025   1.381  1.00  0.00    -0.292 OA
HETATM    6  C3  UNL     1      -1.948   1.458   0.836  1.00  0.00     0.225 A 
HETATM    7  S1  UNL     1      -1.107   2.795   1.247  1.00  0.00    -0.032 SA
BRANCH   3   8
HETATM    8  O1  UNL     1      -2.541  -1.461  -1.059  1.00  0.00    -0.344 OA
ATOM      9  H1  UNL     1      -1.896  -1.650  -1.730  1.00  0.00     0.219 HD
ENDBRANCH   3   8
ENDBRANCH   1   2
BRANCH   1  10
HETATM   10  O3  UNL     1      -0.586  -0.131  -2.105  1.00  0.00    -0.372 OA
ATOM     11  H3  UNL     1       0.182  -0.054  -2.659  1.00  0.00     0.212 HD
ENDBRANCH   1  10
BRANCH   1  12
HETATM   12  C5  UNL     1       0.853   0.249  -0.340  1.00  0.00    -0.010 A 
HETATM   13  C6  UNL     1       1.050  -1.094  -0.101  1.00  0.00     0.011 A 
HETATM   14  C7  UNL     1       2.199  -1.584   0.519  1.00  0.00     0.001 A 
HETATM   15  C8  UNL     1       3.188  -0.709   0.917  1.00  0.00     0.000 A 
HETATM   16  C9  UNL     1       2.990   0.636   0.677  1.00  0.00     0.001 A 
HETATM   17  C10 UNL     1       1.841   1.122   0.057  1.00  0.00     0.011 A 
ENDBRANCH   1  12
TORSDOF 4
