REMARK  8 active torsions:
REMARK  status: ('A' for Active; 'I' for Inactive)
REMARK    1  A    between atoms: C3_3  and  C4_4 
REMARK       I    between atoms: C4_4  and  N1_6 
REMARK    2  A    between atoms: C8_10  and  C9_11 
REMARK    3  A    between atoms: C9_11  and  N2_12 
REMARK    4  A    between atoms: C12_15  and  C13_16 
REMARK       I    between atoms: C13_16  and  N3_18 
REMARK    5  A    between atoms: N3_18  and  C14_20 
REMARK    6  A    between atoms: C14_20  and  C15_21 
REMARK    7  A    between atoms: C15_21  and  C16_22 
REMARK    8  A    between atoms: N5_29  and  C20_30 
ROOT
HETATM    1  C4  UNL     1      -2.668  -0.944   0.870  1.00  0.00     0.257 C 
HETATM    2  O1  UNL     1      -2.580  -1.739   1.870  1.00  0.00    -0.267 OA
HETATM    3  N1  UNL     1      -1.618  -0.093   0.552  1.00  0.00    -0.339 N 
HETATM    4  C5  UNL     1      -1.522   0.853  -0.502  1.00  0.00     0.127 C 
HETATM    5  C6  UNL     1      -0.744   2.006   0.128  1.00  0.00     0.022 C 
HETATM    6  C7  UNL     1      -0.374   1.484   1.529  1.00  0.00     0.032 C 
HETATM    7  C8  UNL     1      -0.338  -0.010   1.295  1.00  0.00     0.126 C 
ENDROOT
BRANCH   7   8
HETATM    8  C9  UNL     1       0.788  -0.398   0.414  1.00  0.00     0.088 C 
BRANCH   8   9
HETATM    9  N2  UNL     1       2.070  -0.428   0.963  1.00  0.00    -0.368 N 
HETATM   10  C10 UNL     1       2.749   0.733   1.322  1.00  0.00     0.090 C 
HETATM   11  C11 UNL     1       4.214   0.673   1.168  1.00  0.00     0.030 C 
HETATM   12  C12 UNL     1       4.811  -0.148   0.353  1.00  0.00     0.012 C 
HETATM   13  C17 UNL     1       3.950  -1.082  -0.452  1.00  0.00     0.064 C 
HETATM   14  C18 UNL     1       2.876  -1.554   0.528  1.00  0.00     0.132 C 
BRANCH  12  15
HETATM   15  C13 UNL     1       6.284  -0.180   0.221  1.00  0.00     0.247 C 
HETATM   16  O2  UNL     1       6.913   0.631   0.950  1.00  0.00    -0.268 OA
HETATM   17  N3  UNL     1       6.981  -1.030  -0.636  1.00  0.00    -0.357 N 
ATOM     18  H3  UNL     1       6.418  -1.667  -1.200  1.00  0.00     0.162 HD
BRANCH  17  19
HETATM   19  C14 UNL     1       8.395  -1.107  -0.811  1.00  0.00     0.125 C 
BRANCH  19  20
HETATM   20  C15 UNL     1       8.943   0.206  -1.307  1.00  0.00     0.051 C 
BRANCH  20  21
HETATM   21  C16 UNL     1      10.447   0.139  -1.506  1.00  0.00     0.224 C 
HETATM   22  F1  UNL     1      10.829   1.406  -1.963  1.00  0.00    -0.255 F 
ENDBRANCH  20  21
ENDBRANCH  19  20
ENDBRANCH  17  19
ENDBRANCH  12  15
ENDBRANCH   8   9
ENDBRANCH   7   8
BRANCH   1  23
HETATM   23  C3  UNL     1      -3.927  -0.995   0.100  1.00  0.00     0.072 A 
HETATM   24  C2  UNL     1      -5.049  -0.233   0.338  1.00  0.00     0.042 A 
HETATM   25  C1  UNL     1      -5.161   0.773   1.420  1.00  0.00     0.071 C 
HETATM   26  N5  UNL     1      -6.014  -0.535  -0.551  1.00  0.00    -0.287 N 
HETATM   27  N4  UNL     1      -5.518  -1.487  -1.357  1.00  0.00    -0.308 N 
HETATM   28  C19 UNL     1      -4.247  -1.785  -0.981  1.00  0.00     0.126 A 
ATOM     29  H4  UNL     1      -6.019  -1.920  -2.133  1.00  0.00     0.186 HD
BRANCH  26  30
HETATM   30  C20 UNL     1      -7.347   0.002  -0.690  1.00  0.00     0.043 C 
HETATM   31  C21 UNL     1      -7.337   1.250  -1.559  1.00  0.00     0.039 C 
HETATM   32  C22 UNL     1      -8.035   0.290   0.606  1.00  0.00     0.039 C 
HETATM   33  C23 UNL     1      -8.223  -1.011  -1.439  1.00  0.00     0.039 C 
ENDBRANCH  26  30
ENDBRANCH   1  23
TORSDOF 8
