REMARK  5 active torsions:
REMARK  status: ('A' for Active; 'I' for Inactive)
REMARK       I    between atoms: C2_2  and  N1_4 
REMARK    1  A    between atoms: N1_4  and  N2_6 
REMARK       I    between atoms: N2_6  and  C3_8 
REMARK    2  A    between atoms: C3_8  and  C4_10 
REMARK    3  A    between atoms: C7_13  and  N3_14 
REMARK    4  A    between atoms: C8_15  and  N4_16 
REMARK    5  A    between atoms: C9_17  and  C10_18 
ROOT
HETATM    1  N3  UNL     1      -1.147  -1.570   0.446  1.00  0.00    -0.110 N 
HETATM    2  C8  UNL     1      -2.116  -0.907  -0.177  1.00  0.00     0.701 A 
HETATM    3  N6  UNL     1      -3.365  -1.493  -0.207  1.00  0.00    -0.190 N 
ATOM      4  H6  UNL     1      -4.124  -1.003  -0.680  1.00  0.00     0.184 HD
HETATM    5  C22 UNL     1      -3.620  -2.679   0.360  1.00  0.00     0.065 A 
HETATM    6  C23 UNL     1      -4.885  -3.254   0.321  1.00  0.00     0.031 A 
HETATM    7  C24 UNL     1      -5.123  -4.469   0.909  1.00  0.00     0.002 A 
HETATM    8  C25 UNL     1      -4.132  -5.181   1.565  1.00  0.00     0.001 A 
HETATM    9  C26 UNL     1      -2.881  -4.606   1.601  1.00  0.00     0.019 A 
HETATM   10  C27 UNL     1      -2.621  -3.374   1.009  1.00  0.00     0.060 A 
HETATM   11  C28 UNL     1      -1.384  -2.792   1.038  1.00  0.00     0.279 A 
HETATM   12  O3  UNL     1      -0.431  -3.392   1.623  1.00  0.00    -0.266 OA
ENDROOT
BRANCH   2  13
HETATM   13  N4  UNL     1      -1.917   0.330  -0.824  1.00  0.00    -0.129 N 
HETATM   14  C9  UNL     1      -1.953   1.558  -0.311  1.00  0.00     0.140 A 
HETATM   15  N5  UNL     1      -1.683   2.441  -1.339  1.00  0.00    -0.339 N 
HETATM   16  C16 UNL     1      -1.483   1.784  -2.482  1.00  0.00     0.061 A 
ATOM     17  H5  UNL     1      -1.642   3.455  -1.238  1.00  0.00     0.167 HD
HETATM   18  C17 UNL     1      -1.203   2.164  -3.785  1.00  0.00     0.032 A 
HETATM   19  C21 UNL     1      -1.632   0.454  -2.153  1.00  0.00     0.085 A 
HETATM   20  C18 UNL     1      -1.074   1.212  -4.753  1.00  0.00     0.002 A 
HETATM   21  C19 UNL     1      -1.220  -0.115  -4.446  1.00  0.00     0.002 A 
HETATM   22  C20 UNL     1      -1.497  -0.475  -3.149  1.00  0.00     0.033 A 
BRANCH  14  23
HETATM   23  C10 UNL     1      -2.219   2.068   1.019  1.00  0.00     0.009 A 
HETATM   24  C11 UNL     1      -2.655   1.324   2.084  1.00  0.00     0.015 A 
HETATM   25  C12 UNL     1      -2.872   1.875   3.347  1.00  0.00     0.001 A 
HETATM   26  C13 UNL     1      -2.655   3.210   3.580  1.00  0.00     0.000 A 
HETATM   27  C14 UNL     1      -2.219   3.970   2.528  1.00  0.00     0.001 A 
HETATM   28  C15 UNL     1      -2.002   3.421   1.270  1.00  0.00     0.015 A 
ENDBRANCH  14  23
ENDBRANCH   2  13
BRANCH   1  29
HETATM   29  C7  UNL     1       0.186  -1.073   0.527  1.00  0.00     0.060 A 
HETATM   30  C6  UNL     1       1.113  -1.198  -0.487  1.00  0.00     0.032 A 
HETATM   31  C5  UNL     1       2.415  -0.738  -0.399  1.00  0.00     0.019 A 
HETATM   32  C4  UNL     1       2.861  -0.114   0.744  1.00  0.00     0.033 A 
HETATM   33  C30 UNL     1       1.956   0.027   1.781  1.00  0.00     0.019 A 
HETATM   34  C29 UNL     1       0.666  -0.439   1.668  1.00  0.00     0.032 A 
BRANCH  32  35
HETATM   35  C3  UNL     1       4.226   0.386   0.879  1.00  0.00     0.270 C 
HETATM   36  N2  UNL     1       5.208   0.272  -0.122  1.00  0.00    -0.263 N 
ATOM     37  H2  UNL     1       4.972  -0.185  -1.003  1.00  0.00     0.190 HD
HETATM   38  O2  UNL     1       4.551   0.961   1.968  1.00  0.00    -0.266 OA
BRANCH  36  39
HETATM   39  N1  UNL     1       6.494   0.769   0.064  1.00  0.00    -0.268 N 
HETATM   40  C2  UNL     1       6.960   1.850  -0.733  1.00  0.00     0.232 C 
HETATM   41  C1  UNL     1       8.317   2.367  -0.530  1.00  0.00     0.119 C 
HETATM   42  O1  UNL     1       6.219   2.372  -1.613  1.00  0.00    -0.272 OA
ATOM     43  H1  UNL     1       7.102   0.358   0.772  1.00  0.00     0.190 HD
ENDBRANCH  36  39
ENDBRANCH  32  35
ENDBRANCH   1  29
TORSDOF 5
