REMARK  2 active torsions:
REMARK  status: ('A' for Active; 'I' for Inactive)
REMARK    1  A    between atoms: C8_10  and  O1_11 
REMARK    2  A    between atoms: C15_20  and  O2_21 
ROOT
HETATM    1  C1  UNL     1      -0.926  -2.377   0.964  1.00  0.00     0.018 C 
HETATM    2  C2  UNL     1      -0.802  -1.062   0.220  1.00  0.00    -0.010 C 
HETATM    3  C3  UNL     1      -0.324  -1.328  -1.207  1.00  0.00     0.021 C 
HETATM    4  C4  UNL     1       0.873  -0.427  -1.395  1.00  0.00     0.048 C 
HETATM    5  C5  UNL     1       0.499   0.998  -1.560  1.00  0.00     0.326 C 
HETATM    6  N1  UNL     1      -0.795   1.274  -2.065  1.00  0.00    -0.372 N 
ATOM      7  H1  UNL     1      -0.845   1.485  -3.062  1.00  0.00     0.160 HD
HETATM    8  C6  UNL     1      -1.902   1.294  -1.441  1.00  0.00     0.067 C 
HETATM    9  C7  UNL     1      -2.159   1.038  -0.025  1.00  0.00     0.084 C 
HETATM   10  C8  UNL     1      -1.283   1.704   0.960  1.00  0.00     0.163 C 
HETATM   11  C9  UNL     1       0.129   1.228   0.799  1.00  0.00     0.260 C 
HETATM   12  C10 UNL     1       0.277  -0.249   0.844  1.00  0.00     0.041 C 
HETATM   13  C11 UNL     1       1.513  -0.566  -0.011  1.00  0.00    -0.029 C 
HETATM   14  C12 UNL     1       2.081  -1.908   0.252  1.00  0.00     0.016 C 
HETATM   15  C13 UNL     1       2.619   0.441   0.203  1.00  0.00     0.040 C 
HETATM   16  C14 UNL     1       2.204   1.835  -0.201  1.00  0.00     0.276 C 
HETATM   17  N2  UNL     1       0.771   1.809  -0.365  1.00  0.00     0.119 N 
HETATM   18  C15 UNL     1      -2.152  -0.452   0.183  1.00  0.00     0.138 C 
ENDROOT
BRANCH  10  19
HETATM   19  O1  UNL     1      -1.359   3.083   0.938  1.00  0.00    -0.393 OA
ATOM     20  H1  UNL     1      -0.796   3.511   1.572  1.00  0.00     0.210 HD
ENDBRANCH  10  19
BRANCH  18  21
HETATM   21  O2  UNL     1      -2.937  -0.709   1.307  1.00  0.00    -0.394 OA
ATOM     22  H2  UNL     1      -3.802  -0.318   1.283  1.00  0.00     0.210 HD
ENDBRANCH  18  21
TORSDOF 2
