REMARK  15 active torsions:
REMARK  status: ('A' for Active; 'I' for Inactive)
REMARK    1  A    between atoms: C3_8  and  C4_9 
REMARK    2  A    between atoms: C4_9  and  O1_10 
REMARK    3  A    between atoms: C4_9  and  C5_12 
REMARK    4  A    between atoms: C5_12  and  O2_13 
REMARK    5  A    between atoms: C6_15  and  N3_16 
REMARK    6  A    between atoms: C9_24  and  O4_25 
REMARK    7  A    between atoms: C9_24  and  C10_27 
REMARK    8  A    between atoms: C10_27  and  O5_28 
REMARK    9  A    between atoms: C11_30  and  O6_31 
REMARK   10  A    between atoms: O6_31  and  C12_32 
REMARK   11  A    between atoms: C12_32  and  C13_33 
REMARK   12  A    between atoms: C13_33  and  N5_34 
REMARK   13  A    between atoms: C14_41  and  S1_42 
REMARK   14  A    between atoms: S1_42  and  N9_43 
REMARK   15  A    between atoms: S1_42  and  N10_46 
ROOT
HETATM    1  N1  UNL     1       0.309  -2.272  -0.070  1.00  0.00    -0.387 N 
ATOM      2  H11 UNL     1       1.163  -2.372  -0.619  1.00  0.00     0.157 HD
ATOM      3  H12 UNL     1      -0.206  -3.002   0.422  1.00  0.00     0.157 HD
HETATM    4  C1  UNL     1      -0.178  -1.069   0.011  1.00  0.00     0.105 C 
HETATM    5  N2  UNL     1      -1.355  -0.931   0.768  1.00  0.00    -0.356 N 
ATOM      6  H2  UNL     1      -1.485  -1.621   1.508  1.00  0.00     0.163 HD
HETATM    7  C2  UNL     1      -2.403   0.049   0.645  1.00  0.00     0.197 C 
HETATM    8  C3  UNL     1      -3.628  -0.618   0.061  1.00  0.00     0.099 C 
HETATM    9  C6  UNL     1      -4.325   0.541  -0.597  1.00  0.00     0.285 C 
HETATM   10  C7  UNL     1      -3.151   1.215  -1.223  1.00  0.00     0.252 C 
HETATM   11  O3  UNL     1      -3.154   1.759  -2.354  1.00  0.00    -0.271 OA
HETATM   12  N4  UNL     1      -2.067   1.115  -0.299  1.00  0.00    -0.325 N 
HETATM   13  C8  UNL     1      -0.938   1.978  -0.419  1.00  0.00     0.171 C 
HETATM   14  C9  UNL     1       0.382   1.350  -0.108  1.00  0.00     0.128 C 
HETATM   15  C11 UNL     1       0.567  -0.012  -0.701  1.00  0.00     0.226 C 
ENDROOT
BRANCH  15  16
HETATM   16  O6  UNL     1       1.923  -0.305  -0.720  1.00  0.00    -0.373 OA
BRANCH  16  17
HETATM   17  C12 UNL     1       2.384  -0.474  -1.990  1.00  0.00     0.191 C 
BRANCH  17  18
HETATM   18  C13 UNL     1       3.827  -0.793  -2.129  1.00  0.00     0.179 C 
BRANCH  18  19
HETATM   19  N5  UNL     1       4.723   0.209  -1.558  1.00  0.00    -0.248 N 
HETATM   20  N6  UNL     1       5.032   1.373  -2.113  1.00  0.00    -0.224 N 
HETATM   21  N7  UNL     1       5.798   2.036  -1.299  1.00  0.00    -0.226 N 
ATOM     22  H6  UNL     1       4.720   1.695  -3.029  1.00  0.00     0.210 HD
HETATM   23  N8  UNL     1       5.991   1.317  -0.223  1.00  0.00    -0.259 N 
ATOM     24  H7  UNL     1       6.185   2.964  -1.471  1.00  0.00     0.210 HD
HETATM   25  C14 UNL     1       5.305   0.135  -0.375  1.00  0.00     0.235 A 
ATOM     26  H8  UNL     1       6.551   1.586   0.586  1.00  0.00     0.191 HD
BRANCH  25  27
HETATM   27  S1  UNL     1       5.375  -1.152   0.825  1.00  0.00     0.166 S 
HETATM   28  O7  UNL     1       4.168  -1.993   0.869  1.00  0.00    -0.221 OA
BRANCH  27  29
HETATM   29  N9  UNL     1       5.551  -0.477   2.215  1.00  0.00    -0.339 N 
ATOM     30  H92 UNL     1       5.613   0.527   2.384  1.00  0.00     0.167 HD
ATOM     31  H91 UNL     1       5.592  -1.222   2.910  1.00  0.00     0.167 HD
ENDBRANCH  27  29
BRANCH  27  32
HETATM   32  N10 UNL     1       6.798  -2.121   0.567  1.00  0.00    -0.339 N 
ATOM     33 2H10 UNL     1       7.480  -1.955  -0.173  1.00  0.00     0.167 HD
ATOM     34 1H10 UNL     1       6.839  -2.866   1.262  1.00  0.00     0.167 HD
ENDBRANCH  27  32
ENDBRANCH  25  27
ENDBRANCH  18  19
ENDBRANCH  17  18
ENDBRANCH  16  17
ENDBRANCH  15  16
BRANCH  14  35
HETATM   35  O4  UNL     1       1.355   2.174  -0.731  1.00  0.00    -0.383 OA
ATOM     36  H4  UNL     1       2.194   1.775  -0.533  1.00  0.00     0.210 HD
ENDBRANCH  14  35
BRANCH  14  37
HETATM   37  C10 UNL     1       0.743   1.372   1.362  1.00  0.00     0.206 C 
BRANCH  37  38
HETATM   38  O5  UNL     1       2.040   0.854   1.459  1.00  0.00    -0.398 OA
ATOM     39  H5  UNL     1       2.267   0.868   2.381  1.00  0.00     0.209 HD
ENDBRANCH  37  38
ENDBRANCH  14  37
BRANCH   8  40
HETATM   40  C4  UNL     1      -4.438  -1.388   1.020  1.00  0.00     0.151 C 
BRANCH  40  41
HETATM   41  O1  UNL     1      -5.529  -1.940   0.325  1.00  0.00    -0.393 OA
ATOM     42  H1  UNL     1      -6.052  -2.437   0.944  1.00  0.00     0.210 HD
ENDBRANCH  40  41
BRANCH  40  43
HETATM   43  C5  UNL     1      -4.989  -0.639   2.180  1.00  0.00     0.196 C 
BRANCH  43  44
HETATM   44  O2  UNL     1      -5.715  -1.501   3.020  1.00  0.00    -0.398 OA
ATOM     45  H2  UNL     1      -6.067  -1.022   3.761  1.00  0.00     0.209 HD
ENDBRANCH  43  44
ENDBRANCH  40  43
ENDBRANCH   8  40
BRANCH   9  46
HETATM   46  N3  UNL     1      -5.282   0.113  -1.595  1.00  0.00    -0.066 N 
ATOM     47  H33 UNL     1      -4.845  -0.495  -2.288  1.00  0.00     0.275 HD
ATOM     48  H32 UNL     1      -5.954  -0.546  -1.202  1.00  0.00     0.275 HD
ATOM     49  H31 UNL     1      -5.755   0.899  -2.041  1.00  0.00     0.275 HD
ENDBRANCH   9  46
TORSDOF 15
