REMARK  2 active torsions:
REMARK  status: ('A' for Active; 'I' for Inactive)
REMARK    1  A    between atoms: C3_3  and  C4_6 
REMARK    2  A    between atoms: C8_10  and  N1_11 
ROOT
HETATM    1  C1  UNL     1      -3.410   0.119  -1.222  1.00  0.00     0.018 C 
HETATM    2  C2  UNL     1      -2.739  -0.400  -0.361  1.00  0.00    -0.040 C 
HETATM    3  C3  UNL     1      -1.941  -1.024   0.692  1.00  0.00     0.309 C 
HETATM    4  F1  UNL     1      -2.512  -0.803   1.941  1.00  0.00    -0.191 F 
HETATM    5  F2  UNL     1      -2.030  -2.402   0.476  1.00  0.00    -0.191 F 
ENDROOT
BRANCH   3   6
HETATM    6  C4  UNL     1      -0.497  -0.568   0.658  1.00  0.00     0.073 C 
HETATM    7  C5  UNL     1      -0.468   0.916   0.847  1.00  0.00     0.012 C 
HETATM    8  C6  UNL     1       0.954   1.366   0.841  1.00  0.00     0.003 C 
HETATM    9  C7  UNL     1       1.592   1.095  -0.493  1.00  0.00     0.033 C 
HETATM   10  C8  UNL     1       1.379  -0.290  -1.004  1.00  0.00     0.184 C 
HETATM   11  C9  UNL     1       0.049  -0.887  -0.702  1.00  0.00     0.044 C 
BRANCH  10  12
HETATM   12  N1  UNL     1       2.427  -1.156  -0.489  1.00  0.00    -0.075 N 
ATOM     13  H13 UNL     1       3.360  -0.804  -0.703  1.00  0.00     0.274 HD
ATOM     14  H12 UNL     1       2.490  -1.124   0.529  1.00  0.00     0.274 HD
ATOM     15  H11 UNL     1       2.281  -2.103  -0.838  1.00  0.00     0.274 HD
ENDBRANCH  10  12
ENDBRANCH   3   6
TORSDOF 2
