REMARK  5 active torsions:
REMARK  status: ('A' for Active; 'I' for Inactive)
REMARK    1  A    between atoms: C2_2  and  C3_3 
REMARK    2  A    between atoms: C3_3  and  N1_4 
REMARK    3  A    between atoms: N1_4  and  C4_6 
REMARK    4  A    between atoms: C4_6  and  C6_8 
REMARK    5  A    between atoms: N2_13  and  O3_15 
ROOT
HETATM    1  N1  UNL     1       0.480   0.925  -0.493  1.00  0.00    -0.390 N 
ATOM      2  H1  UNL     1       0.108   1.867  -0.371  1.00  0.00     0.159 HD
ENDROOT
BRANCH   1   3
HETATM    3  C3  UNL     1       1.817   0.765  -0.874  1.00  0.00     0.110 C 
BRANCH   3   4
HETATM    4  C2  UNL     1       2.715   0.195   0.140  1.00  0.00     0.043 C 
HETATM    5  C1  UNL     1       2.612  -1.190   0.651  1.00  0.00     0.071 C 
HETATM    6  N2  UNL     1       3.683   0.905   0.662  1.00  0.00    -0.273 N 
ATOM      7  H2  UNL     1       4.291   0.485   1.364  1.00  0.00     0.194 HD
BRANCH   6   8
HETATM    8  O3  UNL     1       3.892   2.206   0.279  1.00  0.00    -0.290 OA
ATOM      9  H3  UNL     1       4.594   2.721   0.658  1.00  0.00     0.244 HD
ENDBRANCH   6   8
ENDBRANCH   3   4
ENDBRANCH   1   3
BRANCH   1  10
HETATM   10  C4  UNL     1      -0.362  -0.175  -0.275  1.00  0.00     0.109 C 
HETATM   11  C5  UNL     1      -0.582  -1.047  -1.504  1.00  0.00     0.035 C 
BRANCH  10  12
HETATM   12  C6  UNL     1      -1.740   0.363   0.049  1.00  0.00     0.184 C 
HETATM   13  C7  UNL     1      -2.723  -0.701   0.408  1.00  0.00     0.066 C 
HETATM   14  C8  UNL     1      -3.649   0.113   1.324  1.00  0.00     0.212 C 
HETATM   15  O1  UNL     1      -3.048   1.373   1.346  1.00  0.00    -0.240 OA
HETATM   16  O2  UNL     1      -1.752   1.162   1.173  1.00  0.00    -0.234 OA
ENDBRANCH  10  12
ENDBRANCH   1  10
TORSDOF 5
