REMARK  7 active torsions:
REMARK  status: ('A' for Active; 'I' for Inactive)
REMARK    1  A    between atoms: N1_2  and  C2_4 
REMARK    2  A    between atoms: N7_19  and  C6_20 
REMARK    3  A    between atoms: C7_22  and  C8_23 
REMARK    4  A    between atoms: C8_23  and  O2_24 
REMARK    5  A    between atoms: O2_24  and  C9_25 
REMARK       I    between atoms: C9_25  and  N8_27 
REMARK    6  A    between atoms: N8_27  and  C10_28 
REMARK    7  A    between atoms: C10_28  and  C11_29 
REMARK       I    between atoms: N14_38  and  C12_39 
ROOT
HETATM    1  C6  UNL     1      -0.690  -1.417  -0.899  1.00  0.00     0.387 C 
HETATM    2  O1  UNL     1       0.243  -0.268  -0.837  1.00  0.00    -0.289 OA
HETATM    3  C7  UNL     1       0.216   0.053   0.535  1.00  0.00     0.161 C 
HETATM    4  N13 UNL     1      -0.034  -1.052   1.206  1.00  0.00    -0.273 N 
ATOM      5  H13 UNL     1      -0.115  -1.142   2.219  1.00  0.00     0.189 HD
HETATM    6  N14 UNL     1      -0.169  -2.097   0.250  1.00  0.00    -0.212 N 
HETATM    7  C12 UNL     1       0.178  -3.463   0.401  1.00  0.00     0.206 C 
HETATM    8  N15 UNL     1      -0.155  -4.330  -0.479  1.00  0.00    -0.372 N 
ATOM      9 1H15 UNL     1       0.095  -5.313  -0.370  1.00  0.00     0.158 HD
ATOM     10 2H15 UNL     1      -0.681  -4.021  -1.296  1.00  0.00     0.158 HD
HETATM   11  N16 UNL     1       0.911  -3.894   1.540  1.00  0.00    -0.062 NA
ENDROOT
BRANCH   1  12
HETATM   12  N7  UNL     1      -1.972  -0.774  -0.762  1.00  0.00    -0.209 N 
HETATM   13  C4  UNL     1      -3.066  -1.082  -0.072  1.00  0.00     0.175 A 
HETATM   14  N4  UNL     1      -3.387  -2.072   0.746  1.00  0.00    -0.173 N 
HETATM   15  C5  UNL     1      -4.060  -0.124  -0.285  1.00  0.00     0.140 A 
HETATM   16  C3  UNL     1      -4.589  -2.184   1.352  1.00  0.00     0.679 A 
ATOM     17  H4  UNL     1      -2.687  -2.791   0.929  1.00  0.00     0.186 HD
HETATM   18  N2  UNL     1      -5.561  -1.248   1.143  1.00  0.00    -0.175 N 
HETATM   19  N3  UNL     1      -4.897  -3.144   2.142  1.00  0.00    -0.234 N 
HETATM   20  C2  UNL     1      -5.306  -0.214   0.326  1.00  0.00     0.148 A 
ATOM     21  H2  UNL     1      -6.468  -1.333   1.601  1.00  0.00     0.186 HD
ATOM     22  H32 UNL     1      -5.805  -3.229   2.600  1.00  0.00     0.174 HD
ATOM     23  H31 UNL     1      -4.171  -3.843   2.298  1.00  0.00     0.174 HD
HETATM   24  N5  UNL     1      -3.508   0.754  -1.124  1.00  0.00    -0.279 N 
HETATM   25  N6  UNL     1      -2.309   0.382  -1.399  1.00  0.00    -0.234 N 
ATOM     26  H5  UNL     1      -3.966   1.589  -1.490  1.00  0.00     0.189 HD
ATOM     27  H6  UNL     1      -1.683   0.893  -2.022  1.00  0.00     0.208 HD
BRANCH  20  28
HETATM   28  N1  UNL     1      -6.208   0.667   0.115  1.00  0.00    -0.378 N 
HETATM   29  C1  UNL     1      -6.086   1.816  -0.726  1.00  0.00     0.147 C 
ATOM     30  H1  UNL     1      -7.100   0.537   0.593  1.00  0.00     0.160 HD
ENDBRANCH  20  28
ENDBRANCH   1  12
BRANCH   3  31
HETATM   31  C8  UNL     1       0.415   1.355   1.200  1.00  0.00     0.267 C 
BRANCH  31  32
HETATM   32  O2  UNL     1       1.524   2.054   0.753  1.00  0.00    -0.284 OA
BRANCH  32  33
HETATM   33  C9  UNL     1       2.859   1.578   0.784  1.00  0.00     0.440 C 
HETATM   34  O3  UNL     1       2.964   0.440   1.259  1.00  0.00    -0.221 OA
HETATM   35  N8  UNL     1       3.798   2.457   0.282  1.00  0.00    -0.355 NA
BRANCH  35  36
HETATM   36  C10 UNL     1       4.716   3.315  -0.208  1.00  0.00     0.239 C 
BRANCH  36  37
HETATM   37  C11 UNL     1       5.499   2.844  -1.392  1.00  0.00     0.160 C 
HETATM   38  N9  UNL     1       5.551   3.380  -2.545  1.00  0.00    -0.268 N 
HETATM   39  N10 UNL     1       6.406   2.605  -3.348  1.00  0.00    -0.007 NA
ATOM     40  H9  UNL     1       5.058   4.224  -2.836  1.00  0.00     0.185 HD
HETATM   41  N11 UNL     1       6.552   1.330  -2.751  1.00  0.00    -0.007 NA
HETATM   42  N12 UNL     1       6.315   1.696  -1.396  1.00  0.00    -0.268 N 
ATOM     43  H12 UNL     1       6.673   1.212  -0.573  1.00  0.00     0.185 HD
ENDBRANCH  36  37
ENDBRANCH  35  36
ENDBRANCH  32  33
ENDBRANCH  31  32
ENDBRANCH   3  31
TORSDOF 7
