REMARK  16 active torsions:
REMARK  status: ('A' for Active; 'I' for Inactive)
REMARK    1  A    between atoms: C2_2  and  O1_4 
REMARK    2  A    between atoms: C2_2  and  C4_6 
REMARK    3  A    between atoms: N2_9  and  C5_10 
REMARK    4  A    between atoms: C6_14  and  O2_15 
REMARK    5  A    between atoms: C9_23  and  N6_24 
REMARK    6  A    between atoms: C11_26  and  C12_27 
REMARK    7  A    between atoms: C12_27  and  O3_28 
REMARK    8  A    between atoms: C13_36  and  N10_37 
REMARK    9  A    between atoms: N10_37  and  C14_38 
REMARK   10  A    between atoms: N10_37  and  C16_42 
REMARK   11  A    between atoms: C14_38  and  C15_39 
REMARK   12  A    between atoms: C15_39  and  O4_40 
REMARK   13  A    between atoms: C16_42  and  C17_43 
REMARK   14  A    between atoms: C17_43  and  O5_44 
REMARK   15  A    between atoms: C18_46  and  N11_47 
REMARK   16  A    between atoms: N11_47  and  C19_49 
ROOT
HETATM    1  C5  UNL     1       1.068  -1.282  -0.489  1.00  0.00     0.382 C 
HETATM    2  N3  UNL     1       1.151  -2.184  -1.656  1.00  0.00    -0.002 N 
ATOM      3  H31 UNL     1       2.108  -2.384  -1.946  1.00  0.00     0.285 HD
ATOM      4  H32 UNL     1       0.844  -1.750  -2.527  1.00  0.00     0.285 HD
HETATM    5  C6  UNL     1       0.383  -3.388  -1.300  1.00  0.00     0.429 C 
HETATM    6  N4  UNL     1      -0.969  -3.003  -0.867  1.00  0.00    -0.337 N 
ATOM      7  H4  UNL     1      -1.667  -3.731  -0.716  1.00  0.00     0.164 HD
HETATM    8  C7  UNL     1      -1.327  -1.653  -0.654  1.00  0.00     0.104 A 
HETATM    9  C8  UNL     1      -0.289  -0.720  -0.480  1.00  0.00     0.109 A 
HETATM   10  N5  UNL     1      -0.585   0.566  -0.300  1.00  0.00    -0.187 N 
ATOM     11  H5  UNL     1       0.176   1.234  -0.176  1.00  0.00     0.184 HD
HETATM   12  C9  UNL     1      -1.866   1.019  -0.276  1.00  0.00     0.706 A 
HETATM   13  N9  UNL     1      -2.863   0.089  -0.448  1.00  0.00    -0.172 N 
ATOM     14  H9  UNL     1      -3.834   0.400  -0.437  1.00  0.00     0.186 HD
HETATM   15  C13 UNL     1      -2.605  -1.201  -0.628  1.00  0.00     0.155 A 
ENDROOT
BRANCH   1  16
HETATM   16  N2  UNL     1       2.142  -0.368  -0.404  1.00  0.00    -0.084 N 
HETATM   17  N1  UNL     1       2.520   0.544  -1.259  1.00  0.00    -0.267 N 
HETATM   18  C4  UNL     1       3.575   1.222  -0.854  1.00  0.00     0.146 A 
ATOM     19  H1  UNL     1       2.048   0.714  -2.147  1.00  0.00     0.189 HD
HETATM   20  N14 UNL     1       3.926   0.720   0.374  1.00  0.00    -0.174 N 
HETATM   21  C18 UNL     1       3.021  -0.260   0.623  1.00  0.00     0.705 A 
ATOM     22  H14 UNL     1       4.698   1.018   0.970  1.00  0.00     0.185 HD
BRANCH  18  23
HETATM   23  C2  UNL     1       4.282   2.363  -1.479  1.00  0.00     0.110 C 
HETATM   24  C1  UNL     1       4.646   2.054  -2.899  1.00  0.00     0.054 C 
HETATM   25  C3  UNL     1       5.545   2.708  -0.722  1.00  0.00     0.054 C 
BRANCH  23  26
HETATM   26  O1  UNL     1       3.482   3.531  -1.381  1.00  0.00    -0.383 OA
ATOM     27  H1  UNL     1       3.251   3.727  -0.481  1.00  0.00     0.211 HD
ENDBRANCH  23  26
ENDBRANCH  18  23
BRANCH  21  28
HETATM   28  N11 UNL     1       2.979  -0.981   1.663  1.00  0.00    -0.160 N 
ATOM     29  H11 UNL     1       2.229  -1.671   1.698  1.00  0.00     0.187 HD
BRANCH  28  30
HETATM   30  C19 UNL     1       3.838  -0.949   2.776  1.00  0.00     0.190 C 
HETATM   31  N12 UNL     1       4.179  -2.073   3.399  1.00  0.00    -0.360 N 
HETATM   32  C20 UNL     1       5.054  -1.831   4.491  1.00  0.00     0.142 C 
ATOM     33  H12 UNL     1       3.851  -2.999   3.125  1.00  0.00     0.162 HD
HETATM   34  C21 UNL     1       5.335  -0.365   4.473  1.00  0.00     0.142 C 
HETATM   35  N13 UNL     1       4.440   0.154   3.427  1.00  0.00    -0.360 N 
ATOM     36  H13 UNL     1       4.281   1.138   3.209  1.00  0.00     0.162 HD
ENDBRANCH  28  30
ENDBRANCH  21  28
ENDBRANCH   1  16
BRANCH   5  37
HETATM   37  O2  UNL     1       1.026  -3.938  -0.198  1.00  0.00    -0.354 OA
ATOM     38  H2  UNL     1       0.530  -4.715   0.032  1.00  0.00     0.214 HD
ENDBRANCH   5  37
BRANCH  15  39
HETATM   39  N10 UNL     1      -3.737  -2.200  -0.706  1.00  0.00    -0.317 N 
BRANCH  39  40
HETATM   40  C14 UNL     1      -3.965  -2.895   0.502  1.00  0.00     0.121 C 
BRANCH  40  41
HETATM   41  C15 UNL     1      -4.974  -2.506   1.478  1.00  0.00     0.148 C 
BRANCH  41  42
HETATM   42  O4  UNL     1      -6.294  -2.437   1.173  1.00  0.00    -0.371 OA
ATOM     43  H4  UNL     1      -6.952  -2.183   1.810  1.00  0.00     0.216 HD
ENDBRANCH  41  42
ENDBRANCH  40  41
ENDBRANCH  39  40
BRANCH  39  44
HETATM   44  C16 UNL     1      -4.326  -2.197  -1.980  1.00  0.00     0.097 C 
BRANCH  44  45
HETATM   45  C17 UNL     1      -5.720  -1.809  -2.263  1.00  0.00     0.209 C 
BRANCH  45  46
HETATM   46  O5  UNL     1      -6.738  -2.600  -1.794  1.00  0.00    -0.396 OA
ATOM     47  H5  UNL     1      -7.636  -2.350  -1.976  1.00  0.00     0.209 HD
ENDBRANCH  45  46
ENDBRANCH  44  45
ENDBRANCH  39  44
ENDBRANCH  15  39
BRANCH  12  48
HETATM   48  N6  UNL     1      -2.150   2.372  -0.019  1.00  0.00    -0.081 N 
HETATM   49  C10 UNL     1      -2.710   3.363  -0.708  1.00  0.00     0.165 A 
HETATM   50  C11 UNL     1      -2.703   4.535   0.117  1.00  0.00     0.068 A 
HETATM   51  N7  UNL     1      -2.148   4.142   1.207  1.00  0.00    -0.286 N 
HETATM   52  N8  UNL     1      -1.807   2.910   1.192  1.00  0.00    -0.222 N 
ATOM     53  H7  UNL     1      -1.994   4.755   2.008  1.00  0.00     0.188 HD
ATOM     54  H8  UNL     1      -1.354   2.410   1.957  1.00  0.00     0.209 HD
BRANCH  50  55
HETATM   55  C12 UNL     1      -3.239   5.869  -0.226  1.00  0.00     0.224 C 
BRANCH  55  56
HETATM   56  O3  UNL     1      -4.318   6.124   0.629  1.00  0.00    -0.395 OA
ATOM     57  H3  UNL     1      -4.663   6.981   0.409  1.00  0.00     0.209 HD
ENDBRANCH  55  56
ENDBRANCH  50  55
ENDBRANCH  12  48
TORSDOF 16
