REMARK  17 active torsions:
REMARK  status: ('A' for Active; 'I' for Inactive)
REMARK    1  A    between atoms: C4_7  and  O2_8 
REMARK    2  A    between atoms: C5_11  and  O4_12 
REMARK    3  A    between atoms: O4_12  and  C6_13 
REMARK    4  A    between atoms: C7_14  and  N3_15 
REMARK    5  A    between atoms: C9_20  and  N4_21 
REMARK    6  A    between atoms: N4_21  and  C10_23 
REMARK    7  A    between atoms: C12_27  and  N6_28 
REMARK    8  A    between atoms: C13_34  and  N8_35 
REMARK    9  A    between atoms: N8_35  and  C14_38 
REMARK   10  A    between atoms: C14_38  and  O5_39 
REMARK   11  A    between atoms: C14_38  and  C15_41 
REMARK   12  A    between atoms: C15_41  and  O6_42 
REMARK   13  A    between atoms: C15_41  and  C16_44 
REMARK   14  A    between atoms: C16_44  and  O7_45 
REMARK   15  A    between atoms: C16_44  and  C17_47 
REMARK   16  A    between atoms: C17_47  and  O8_48 
REMARK   17  A    between atoms: C18_50  and  O9_51 
ROOT
HETATM    1  N1  UNL     1       5.305   0.383  -3.709  1.00  0.00    -0.171 NA
HETATM    2  C1  UNL     1       5.326   0.405  -2.543  1.00  0.00     0.191 C 
HETATM    3  N2  UNL     1       5.320   0.438  -1.142  1.00  0.00    -0.202 N 
HETATM    4  C2  UNL     1       6.630   0.558  -0.550  1.00  0.00     0.241 C 
HETATM    5  O1  UNL     1       7.644   0.504  -1.284  1.00  0.00    -0.272 OA
HETATM    6  C3  UNL     1       6.844   0.744   0.907  1.00  0.00     0.164 C 
HETATM    7  C4  UNL     1       5.520   0.522   1.598  1.00  0.00     0.270 C 
HETATM    8  O3  UNL     1       4.692  -0.346   0.882  1.00  0.00    -0.312 OA
HETATM    9  C5  UNL     1       4.177   0.356  -0.291  1.00  0.00     0.392 C 
ENDROOT
BRANCH   9  10
HETATM   10  O4  UNL     1       3.251  -0.513  -0.778  1.00  0.00    -0.333 OA
BRANCH  10  11
HETATM   11  C6  UNL     1       1.905  -0.220  -0.566  1.00  0.00     0.187 C 
HETATM   12  C7  UNL     1       1.144   0.049  -1.823  1.00  0.00     0.217 C 
HETATM   13  C8  UNL     1      -0.303   0.417  -1.550  1.00  0.00     0.063 C 
HETATM   14  C9  UNL     1      -0.761   0.032  -0.194  1.00  0.00     0.120 C 
HETATM   15  C13 UNL     1      -0.173  -1.152   0.432  1.00  0.00     0.242 C 
HETATM   16  C18 UNL     1       1.240  -1.388   0.113  1.00  0.00     0.182 C 
BRANCH  12  17
HETATM   17  N3  UNL     1       1.748   1.036  -2.662  1.00  0.00    -0.072 N 
ATOM     18  H33 UNL     1       1.904   1.901  -2.144  1.00  0.00     0.274 HD
ATOM     19  H32 UNL     1       2.714   0.786  -2.873  1.00  0.00     0.274 HD
ATOM     20  H31 UNL     1       1.228   1.220  -3.520  1.00  0.00     0.274 HD
ENDBRANCH  12  17
BRANCH  14  21
HETATM   21  N4  UNL     1      -0.799   1.193   0.714  1.00  0.00    -0.356 N 
ATOM     22  H4  UNL     1      -0.156   1.212   1.506  1.00  0.00     0.163 HD
BRANCH  21  23
HETATM   23  C10 UNL     1      -1.690   2.289   0.538  1.00  0.00     0.173 C 
HETATM   24  N5  UNL     1      -2.979   2.228   0.696  1.00  0.00    -0.359 N 
HETATM   25  C11 UNL     1      -3.606   3.500   0.451  1.00  0.00     0.177 C 
ATOM     26  H5  UNL     1      -3.484   1.382   0.961  1.00  0.00     0.162 HD
HETATM   27  C12 UNL     1      -2.487   4.352  -0.105  1.00  0.00     0.302 C 
HETATM   28  N7  UNL     1      -1.310   3.598   0.174  1.00  0.00    -0.334 N 
ATOM     29  H7  UNL     1      -0.353   3.947   0.120  1.00  0.00     0.164 HD
BRANCH  27  30
HETATM   30  N6  UNL     1      -2.460   5.664   0.537  1.00  0.00    -0.057 N 
ATOM     31  H63 UNL     1      -3.362   6.135   0.468  1.00  0.00     0.276 HD
ATOM     32  H62 UNL     1      -2.404   5.585   1.552  1.00  0.00     0.276 HD
ATOM     33  H61 UNL     1      -1.705   6.239   0.162  1.00  0.00     0.276 HD
ENDBRANCH  27  30
ENDBRANCH  21  23
ENDBRANCH  14  21
BRANCH  15  34
HETATM   34  N8  UNL     1      -0.965  -2.378   0.278  1.00  0.00    -0.038 N 
ATOM     35  H82 UNL     1      -1.056  -2.629  -0.706  1.00  0.00     0.281 HD
ATOM     36  H81 UNL     1      -0.445  -3.190   0.611  1.00  0.00     0.281 HD
BRANCH  34  37
HETATM   37  C14 UNL     1      -2.247  -2.305   0.904  1.00  0.00     0.350 C 
BRANCH  37  38
HETATM   38  O5  UNL     1      -2.317  -3.133   2.040  1.00  0.00    -0.368 OA
ATOM     39  H5  UNL     1      -3.170  -3.084   2.456  1.00  0.00     0.212 HD
ENDBRANCH  37  38
BRANCH  37  40
HETATM   40  C15 UNL     1      -3.266  -2.900  -0.066  1.00  0.00     0.205 C 
BRANCH  40  41
HETATM   41  O6  UNL     1      -2.957  -4.220  -0.313  1.00  0.00    -0.389 OA
ATOM     42  H6  UNL     1      -3.591  -4.590  -0.916  1.00  0.00     0.210 HD
ENDBRANCH  40  41
BRANCH  40  43
HETATM   43  C16 UNL     1      -4.675  -2.592   0.253  1.00  0.00     0.174 C 
BRANCH  43  44
HETATM   44  O7  UNL     1      -5.510  -2.992  -0.818  1.00  0.00    -0.391 OA
ATOM     45  H7  UNL     1      -6.416  -2.794  -0.613  1.00  0.00     0.210 HD
ENDBRANCH  43  44
BRANCH  43  46
HETATM   46  C17 UNL     1      -5.180  -3.163   1.535  1.00  0.00     0.198 C 
BRANCH  46  47
HETATM   47  O8  UNL     1      -5.192  -4.554   1.551  1.00  0.00    -0.398 OA
ATOM     48  H8  UNL     1      -5.514  -4.918   2.368  1.00  0.00     0.209 HD
ENDBRANCH  46  47
ENDBRANCH  43  46
ENDBRANCH  40  43
ENDBRANCH  37  40
ENDBRANCH  34  37
ENDBRANCH  15  34
BRANCH  16  49
HETATM   49  O9  UNL     1       1.985  -1.855   1.207  1.00  0.00    -0.391 OA
ATOM     50  H9  UNL     1       1.565  -2.592   1.635  1.00  0.00     0.210 HD
ENDBRANCH  16  49
ENDBRANCH  10  11
ENDBRANCH   9  10
BRANCH   7  51
HETATM   51  O2  UNL     1       4.904   1.713   1.931  1.00  0.00    -0.371 OA
ATOM     52  H2  UNL     1       4.071   1.573   2.366  1.00  0.00     0.212 HD
ENDBRANCH   7  51
TORSDOF 17
