REMARK  11 active torsions:
REMARK  status: ('A' for Active; 'I' for Inactive)
REMARK    1  A    between atoms: C2_2  and  C3_3 
REMARK    2  A    between atoms: C3_3  and  C4_4 
REMARK    3  A    between atoms: C8_8  and  C9_9 
REMARK       I    between atoms: C9_9  and  N1_11 
REMARK    4  A    between atoms: N1_11  and  C10_12 
REMARK    5  A    between atoms: N1_11  and  C27_33 
REMARK    6  A    between atoms: C10_12  and  C11_13 
REMARK    7  A    between atoms: C15_17  and  O2_18 
REMARK    8  A    between atoms: C18_21  and  C19_22 
REMARK    9  A    between atoms: C19_22  and  C20_23 
REMARK   10  A    between atoms: C20_23  and  N2_25 
REMARK   11  A    between atoms: C24_30  and  C25_31 
ROOT
HETATM    1  C11 UNL     1      -0.469  -0.827   1.659  1.00  0.00    -0.008 A 
HETATM    2  C12 UNL     1      -0.095  -1.693   2.749  1.00  0.00    -0.047 A 
HETATM    3  C13 UNL     1       0.676  -1.171   3.903  1.00  0.00     0.049 C 
HETATM    4  C14 UNL     1      -0.431  -3.007   2.760  1.00  0.00     0.044 A 
HETATM    5  C15 UNL     1      -1.146  -3.579   1.731  1.00  0.00     0.069 A 
HETATM    6  C17 UNL     1      -1.513  -2.800   0.700  1.00  0.00     0.044 A 
HETATM    7  C18 UNL     1      -1.173  -1.419   0.667  1.00  0.00    -0.041 A 
ENDROOT
BRANCH   1   8
HETATM    8  C10 UNL     1       0.060   0.499   1.833  1.00  0.00     0.107 C 
BRANCH   8   9
HETATM    9  N1  UNL     1      -0.027   1.605   1.015  1.00  0.00    -0.322 N 
HETATM   10  C9  UNL     1       0.957   1.874   0.016  1.00  0.00     0.228 C 
HETATM   11  O1  UNL     1       0.763   2.891  -0.737  1.00  0.00    -0.273 OA
BRANCH  10  12
HETATM   12  C8  UNL     1       2.178   1.122  -0.251  1.00  0.00     0.078 C 
HETATM   13  C7  UNL     1       2.029  -0.145  -0.995  1.00  0.00     0.015 C 
HETATM   14  C6  UNL     1       3.096  -0.428  -2.025  1.00  0.00     0.010 C 
HETATM   15  C4  UNL     1       4.473  -0.013  -1.651  1.00  0.00    -0.041 C 
HETATM   16  C5  UNL     1       5.169   0.356  -2.976  1.00  0.00     0.015 C 
HETATM   17  C31 UNL     1       4.532   1.244  -0.818  1.00  0.00     0.010 C 
HETATM   18  C30 UNL     1       3.214   1.973  -0.984  1.00  0.00     0.015 C 
BRANCH  15  19
HETATM   19  C3  UNL     1       5.327  -1.084  -1.042  1.00  0.00     0.035 C 
BRANCH  19  20
HETATM   20  C2  UNL     1       4.867  -1.604   0.246  1.00  0.00    -0.036 C 
HETATM   21  C1  UNL     1       5.619  -1.509   1.341  1.00  0.00     0.007 C 
ENDBRANCH  19  20
ENDBRANCH  15  19
ENDBRANCH  10  12
BRANCH   9  22
HETATM   22  C27 UNL     1      -1.050   2.655   1.139  1.00  0.00     0.092 A 
HETATM   23  C28 UNL     1      -0.854   3.332   2.552  1.00  0.00     0.028 A 
HETATM   24  C29 UNL     1      -2.096   2.690   2.131  1.00  0.00     0.028 A 
ENDBRANCH   9  22
ENDBRANCH   8   9
ENDBRANCH   1   8
BRANCH   7  25
HETATM   25  C19 UNL     1      -1.757  -0.697  -0.466  1.00  0.00     0.064 C 
BRANCH  25  26
HETATM   26  C20 UNL     1      -3.177  -0.242  -0.206  1.00  0.00     0.090 C 
HETATM   27  C21 UNL     1      -4.082  -1.445   0.080  1.00  0.00     0.033 C 
BRANCH  26  28
HETATM   28  N2  UNL     1      -3.762   0.440  -1.305  1.00  0.00    -0.313 N 
HETATM   29  C22 UNL     1      -3.891  -0.013  -2.649  1.00  0.00     0.363 C 
HETATM   30  O3  UNL     1      -3.239  -0.885  -3.256  1.00  0.00    -0.238 OA
HETATM   31  O4  UNL     1      -4.938   0.718  -3.236  1.00  0.00    -0.302 OA
HETATM   32  C23 UNL     1      -5.551   1.542  -2.255  1.00  0.00     0.210 C 
HETATM   33  C24 UNL     1      -4.372   1.747  -1.296  1.00  0.00     0.136 C 
BRANCH  33  34
HETATM   34  C25 UNL     1      -3.453   2.786  -1.860  1.00  0.00    -0.010 C 
HETATM   35  C26 UNL     1      -3.757   4.071  -1.821  1.00  0.00     0.009 C 
ENDBRANCH  33  34
ENDBRANCH  26  28
ENDBRANCH  25  26
ENDBRANCH   7  25
BRANCH   5  36
HETATM   36  O2  UNL     1      -1.490  -4.932   1.743  1.00  0.00    -0.356 OA
HETATM   37  C16 UNL     1      -2.226  -5.478   0.666  1.00  0.00     0.210 C 
ENDBRANCH   5  36
TORSDOF 11
