REMARK  11 active torsions:
REMARK  status: ('A' for Active; 'I' for Inactive)
REMARK    1  A    between atoms: O1_2  and  C2_3 
REMARK    2  A    between atoms: C2_3  and  C3_4 
REMARK    3  A    between atoms: C3_4  and  N1_5 
REMARK    4  A    between atoms: N1_5  and  C4_6 
REMARK    5  A    between atoms: N1_5  and  C29_34 
REMARK    6  A    between atoms: C4_6  and  C5_7 
REMARK    7  A    between atoms: C6_8  and  C7_9 
REMARK    8  A    between atoms: C12_14  and  N2_15 
REMARK    9  A    between atoms: C22_25  and  C23_26 
REMARK   10  A    between atoms: C29_34  and  C30_35 
REMARK   11  A    between atoms: C30_35  and  N4_36 
ROOT
HETATM    1  C7  UNL     1      -0.663  -1.002  -0.064  1.00  0.00     0.026 C 
HETATM    2  C8  UNL     1      -0.684  -1.960  -1.220  1.00  0.00     0.008 C 
HETATM    3  C9  UNL     1      -0.087  -3.319  -0.911  1.00  0.00     0.007 C 
HETATM    4  C10 UNL     1      -1.019  -3.994   0.019  1.00  0.00     0.006 C 
HETATM    5  C11 UNL     1      -1.597  -3.146   1.062  1.00  0.00     0.054 C 
HETATM    6  C12 UNL     1      -1.287  -1.672   1.119  1.00  0.00     0.000 C 
HETATM    7  C15 UNL     1      -1.892  -1.982  -2.054  1.00  0.00    -0.009 C 
HETATM    8  C16 UNL     1      -1.764  -0.804  -3.044  1.00  0.00     0.005 C 
HETATM    9  C17 UNL     1      -1.168   0.285  -2.186  1.00  0.00     0.009 C 
HETATM   10  C18 UNL     1      -1.422   0.140  -0.690  1.00  0.00     0.032 C 
HETATM   11  C19 UNL     1      -2.874   0.328  -0.477  1.00  0.00     0.035 C 
HETATM   12  C20 UNL     1      -3.237   1.580  -1.331  1.00  0.00     0.037 C 
HETATM   13  C21 UNL     1      -4.487   2.077  -0.639  1.00  0.00     0.055 C 
HETATM   14  C22 UNL     1      -4.032   1.869   0.760  1.00  0.00    -0.010 C 
HETATM   15  N3  UNL     1      -3.214   0.966   0.780  1.00  0.00    -0.386 N 
ATOM     16  H3  UNL     1      -2.782   0.668   1.654  1.00  0.00     0.160 HD
HETATM   17  C27 UNL     1      -3.784  -0.768  -0.857  1.00  0.00     0.032 C 
HETATM   18  C28 UNL     1      -3.264  -1.912  -1.620  1.00  0.00     0.007 C 
ENDROOT
BRANCH   1  19
HETATM   19  C6  UNL     1       0.629  -0.475   0.407  1.00  0.00    -0.013 C 
HETATM   20  C5  UNL     1       1.687   0.298  -0.161  1.00  0.00    -0.010 C 
BRANCH  20  21
HETATM   21  C4  UNL     1       2.570  -0.194  -1.278  1.00  0.00     0.149 C 
BRANCH  21  22
HETATM   22  N1  UNL     1       3.546   0.772  -1.622  1.00  0.00    -0.386 N 
BRANCH  22  23
HETATM   23  C3  UNL     1       4.410   0.326  -2.671  1.00  0.00     0.148 C 
BRANCH  23  24
HETATM   24  C2  UNL     1       3.779   0.193  -4.011  1.00  0.00     0.186 C 
BRANCH  24  25
HETATM   25  O1  UNL     1       4.697  -0.233  -4.942  1.00  0.00    -0.394 OA
HETATM   26  C1  UNL     1       5.252  -1.462  -4.686  1.00  0.00     0.201 C 
ENDBRANCH  24  25
ENDBRANCH  23  24
ENDBRANCH  22  23
BRANCH  22  27
HETATM   27  C29 UNL     1       4.208   1.526  -0.661  1.00  0.00     0.088 C 
BRANCH  27  28
HETATM   28  C30 UNL     1       5.229   0.829   0.203  1.00  0.00     0.315 C 
BRANCH  28  29
HETATM   29  N4  UNL     1       5.827   1.773   1.156  1.00  0.00     0.084 N 
HETATM   30  C31 UNL     1       6.792   1.050   1.932  1.00  0.00     0.309 C 
HETATM   31  C32 UNL     1       4.847   2.376   2.002  1.00  0.00     0.309 C 
ENDBRANCH  28  29
ENDBRANCH  27  28
ENDBRANCH  22  27
ENDBRANCH  21  22
ENDBRANCH  20  21
ENDBRANCH   1  19
BRANCH   6  32
HETATM   32  N2  UNL     1      -0.798  -1.470   2.441  1.00  0.00    -0.377 N 
HETATM   33  C13 UNL     1       0.366  -1.865   3.004  1.00  0.00     0.120 C 
HETATM   34  C14 UNL     1      -1.814  -1.269   3.452  1.00  0.00     0.154 C 
ENDBRANCH   6  32
BRANCH  14  35
HETATM   35  C23 UNL     1      -4.483   2.634   1.978  1.00  0.00    -0.013 C 
HETATM   36  C24 UNL     1      -5.952   2.435   2.112  1.00  0.00     0.021 C 
HETATM   37  C25 UNL     1      -3.798   2.068   3.198  1.00  0.00     0.021 C 
HETATM   38  C26 UNL     1      -4.070   4.086   1.882  1.00  0.00     0.021 C 
ENDBRANCH  14  35
TORSDOF 11
