REMARK  6 active torsions:
REMARK  status: ('A' for Active; 'I' for Inactive)
REMARK    1  A    between atoms: C3_5  and  C4_6 
REMARK    2  A    between atoms: C11_18  and  O1_19 
REMARK    3  A    between atoms: O1_19  and  C12_20 
REMARK    4  A    between atoms: C12_20  and  C13_21 
REMARK    5  A    between atoms: C13_21  and  C14_22 
REMARK    6  A    between atoms: C14_22  and  C15_23 
ROOT
HETATM    1  C1  UNL     1       0.365  -2.634   0.500  1.00  0.00     0.124 A 
HETATM    2  N1  UNL     1      -0.804  -3.274   0.319  1.00  0.00    -0.372 N 
ATOM      3  H1  UNL     1      -0.798  -4.294   0.296  1.00  0.00     0.164 HD
HETATM    4  C2  UNL     1      -1.988  -2.637   0.166  1.00  0.00     0.095 A 
HETATM    5  C3  UNL     1      -1.988  -1.270   0.199  1.00  0.00    -0.034 A 
HETATM    6  C10 UNL     1      -0.790  -0.592   0.386  1.00  0.00     0.047 A 
HETATM    7  C11 UNL     1       0.408  -1.250   0.540  1.00  0.00     0.084 A 
ENDROOT
BRANCH   5   8
HETATM    8  C4  UNL     1      -3.219  -0.463   0.044  1.00  0.00     0.054 C 
HETATM    9  C5  UNL     1      -4.166  -0.863   1.183  1.00  0.00     0.046 C 
HETATM   10  C6  UNL     1      -5.513  -0.623   0.484  1.00  0.00     0.204 C 
HETATM   11  C7  UNL     1      -5.603   0.859   0.226  1.00  0.00     0.147 C 
HETATM   12  N3  UNL     1      -5.284  -1.370  -0.744  1.00  0.00    -0.063 N 
HETATM   13  N2  UNL     1      -5.435   1.232  -1.138  1.00  0.00    -0.417 N 
HETATM   14  C8  UNL     1      -4.393   0.530  -1.840  1.00  0.00     0.147 C 
ATOM     15  H2  UNL     1      -6.011   1.945  -1.585  1.00  0.00     0.153 HD
HETATM   16  C9  UNL     1      -4.014  -0.773  -1.181  1.00  0.00     0.212 C 
ATOM     17  H32 UNL     1      -5.287  -2.386  -0.652  1.00  0.00     0.278 HD
ATOM     18  H31 UNL     1      -6.043  -1.346  -1.425  1.00  0.00     0.278 HD
ENDBRANCH   5   8
BRANCH   7  19
HETATM   19  O1  UNL     1       1.625  -0.611   0.729  1.00  0.00    -0.350 OA
BRANCH  19  20
HETATM   20  C12 UNL     1       1.600   0.812   0.760  1.00  0.00     0.175 C 
BRANCH  20  21
HETATM   21  C13 UNL     1       3.002   1.353   0.972  1.00  0.00     0.027 C 
BRANCH  21  22
HETATM   22  C14 UNL     1       3.854   0.857  -0.203  1.00  0.00     0.007 C 
BRANCH  22  23
HETATM   23  C15 UNL     1       5.248   1.403   0.021  1.00  0.00    -0.014 C 
HETATM   24  C16 UNL     1       6.243   1.014  -1.052  1.00  0.00     0.005 C 
HETATM   25  C17 UNL     1       7.234   0.717   0.055  1.00  0.00     0.001 C 
HETATM   26  C18 UNL     1       6.045   0.508   0.978  1.00  0.00     0.005 C 
ENDBRANCH  22  23
ENDBRANCH  21  22
ENDBRANCH  20  21
ENDBRANCH  19  20
ENDBRANCH   7  19
TORSDOF 6
