REMARK  8 active torsions:
REMARK  status: ('A' for Active; 'I' for Inactive)
REMARK    1  A    between atoms: S1_3  and  C2_4 
REMARK    2  A    between atoms: C2_4  and  C3_5 
REMARK    3  A    between atoms: C3_5  and  N2_6 
REMARK    4  A    between atoms: N2_6  and  C4_8 
REMARK    5  A    between atoms: C4_8  and  N3_10 
REMARK       I    between atoms: N3_10  and  C5_12 
REMARK    6  A    between atoms: C5_12  and  C6_14 
REMARK    7  A    between atoms: C6_14  and  C7_15 
REMARK    8  A    between atoms: C7_15  and  C8_16 
ROOT
HETATM    1  N1  UNL     1       8.735   1.552  -0.557  1.00  0.00    -0.184 NA
HETATM    2  C1  UNL     1       7.827   1.403   0.145  1.00  0.00     0.133 C 
HETATM    3  S1  UNL     1       6.429   1.171   1.239  1.00  0.00    -0.049 SA
ENDROOT
BRANCH   3   4
HETATM    4  C2  UNL     1       5.932  -0.510   1.387  1.00  0.00     0.110 C 
BRANCH   4   5
HETATM    5  C3  UNL     1       5.212  -1.197   0.304  1.00  0.00     0.133 C 
BRANCH   5   6
HETATM    6  N2  UNL     1       3.898  -0.783  -0.049  1.00  0.00    -0.366 N 
ATOM      7  H2  UNL     1       3.177  -1.433   0.265  1.00  0.00     0.161 HD
BRANCH   6   8
HETATM    8  C4  UNL     1       3.385   0.308  -0.725  1.00  0.00     0.174 C 
HETATM    9  S2  UNL     1       4.445   1.377  -1.435  1.00  0.00    -0.041 SA
BRANCH   8  10
HETATM   10  N3  UNL     1       2.039   0.576  -0.946  1.00  0.00    -0.304 N 
HETATM   11  C5  UNL     1       0.934  -0.156  -0.459  1.00  0.00     0.223 C 
HETATM   12  O1  UNL     1       0.962  -1.168   0.257  1.00  0.00    -0.273 OA
ATOM     13  H3  UNL     1       1.826   1.390  -1.523  1.00  0.00     0.171 HD
BRANCH  11  14
HETATM   14  C6  UNL     1      -0.473   0.313  -0.831  1.00  0.00     0.103 C 
BRANCH  14  15
HETATM   15  C7  UNL     1      -1.441  -0.561  -0.118  1.00  0.00     0.014 C 
BRANCH  15  16
HETATM   16  C8  UNL     1      -2.879  -0.257  -0.352  1.00  0.00    -0.014 C 
HETATM   17  C9  UNL     1      -3.701  -1.234   0.459  1.00  0.00     0.004 C 
HETATM   18  C10 UNL     1      -4.590  -0.500   1.450  1.00  0.00     0.000 C 
HETATM   19  C11 UNL     1      -5.502   0.484   0.763  1.00  0.00     0.000 C 
HETATM   20  C12 UNL     1      -4.761   1.362  -0.241  1.00  0.00     0.000 C 
HETATM   21  C13 UNL     1      -3.256   1.166  -0.044  1.00  0.00     0.004 C 
ENDBRANCH  15  16
ENDBRANCH  14  15
ENDBRANCH  11  14
ENDBRANCH   8  10
ENDBRANCH   6   8
ENDBRANCH   5   6
ENDBRANCH   4   5
ENDBRANCH   3   4
TORSDOF 8
