REMARK  6 active torsions:
REMARK  status: ('A' for Active; 'I' for Inactive)
REMARK    1  A    between atoms: C4_4  and  C5_5 
REMARK    2  A    between atoms: C5_5  and  O1_6 
REMARK    3  A    between atoms: O1_6  and  C6_7 
REMARK    4  A    between atoms: C6_7  and  C7_8 
REMARK    5  A    between atoms: C6_7  and  N3_19 
REMARK    6  A    between atoms: C8_13  and  C9_14 
ROOT
HETATM    1  C6  UNL     1       0.506  -1.124  -0.819  1.00  0.00     0.306 C 
ENDROOT
BRANCH   1   2
HETATM    2  O1  UNL     1       1.527  -0.319  -0.324  1.00  0.00    -0.354 OA
BRANCH   2   3
HETATM    3  C5  UNL     1       2.320   0.216  -1.320  1.00  0.00     0.209 C 
BRANCH   3   4
HETATM    4  C4  UNL     1       3.363   1.050  -0.641  1.00  0.00    -0.035 A 
HETATM    5  C3  UNL     1       4.581   0.517  -0.249  1.00  0.00     0.009 A 
HETATM    6  C2  UNL     1       5.556   1.267   0.378  1.00  0.00     0.001 A 
HETATM    7  C1  UNL     1       5.303   2.605   0.624  1.00  0.00     0.000 A 
HETATM    8  C17 UNL     1       4.094   3.169   0.245  1.00  0.00     0.001 A 
HETATM    9  C16 UNL     1       3.152   2.394  -0.374  1.00  0.00     0.009 A 
ENDBRANCH   3   4
ENDBRANCH   2   3
ENDBRANCH   1   2
BRANCH   1  10
HETATM   10  C7  UNL     1      -0.787  -0.567  -0.345  1.00  0.00     0.190 A 
HETATM   11  N1  UNL     1      -1.007  -0.159   0.932  1.00  0.00    -0.278 N 
HETATM   12  N2  UNL     1      -2.259   0.279   1.007  1.00  0.00    -0.281 N 
ATOM     13  H1  UNL     1      -0.332  -0.184   1.696  1.00  0.00     0.189 HD
HETATM   14  C8  UNL     1      -2.811   0.146  -0.207  1.00  0.00     0.144 A 
ATOM     15  H2  UNL     1      -2.718   0.650   1.839  1.00  0.00     0.189 HD
HETATM   16  O2  UNL     1      -1.905  -0.359  -0.978  1.00  0.00    -0.277 OA
BRANCH  14  17
HETATM   17  C9  UNL     1      -4.195   0.523  -0.537  1.00  0.00     0.062 C 
HETATM   18  C10 UNL     1      -5.205  -0.101   0.433  1.00  0.00     0.013 C 
HETATM   19  C11 UNL     1      -5.983   1.194   0.313  1.00  0.00     0.002 C 
HETATM   20  C12 UNL     1      -4.637   1.867   0.009  1.00  0.00     0.013 C 
ENDBRANCH  14  17
ENDBRANCH   1  10
BRANCH   1  21
HETATM   21  N3  UNL     1       0.719  -2.456  -0.233  1.00  0.00    -0.318 N 
HETATM   22  C13 UNL     1       0.474  -3.651  -0.802  1.00  0.00     0.112 A 
HETATM   23  C14 UNL     1       0.814  -4.648   0.091  1.00  0.00     0.106 A 
HETATM   24  N4  UNL     1       1.262  -4.049   1.196  1.00  0.00    -0.361 N 
HETATM   25  C15 UNL     1       1.202  -2.728   0.994  1.00  0.00     0.185 A 
ATOM     26  H4  UNL     1       1.591  -4.514   2.042  1.00  0.00     0.166 HD
ENDBRANCH   1  21
TORSDOF 6
