REMARK  0 active torsions:
REMARK  status: ('A' for Active; 'I' for Inactive)
ROOT
HETATM    1  C1  UNL     1       3.217   1.790  -0.639  1.00  0.00     0.156 C 
HETATM    2  N1  UNL     1       2.742   0.552  -0.094  1.00  0.00    -0.349 N 
HETATM    3  C2  UNL     1       3.077  -0.718  -0.587  1.00  0.00     0.080 C 
HETATM    4  S1  UNL     1       4.477  -1.205  -1.314  1.00  0.00    -0.065 SA
HETATM    5  C3  UNL     1       1.927  -1.610  -0.352  1.00  0.00     0.080 C 
HETATM    6  C4  UNL     1       1.457  -1.109   1.018  1.00  0.00     0.042 C 
HETATM    7  C5  UNL     1       0.069  -1.474   1.353  1.00  0.00     0.011 C 
HETATM    8  C6  UNL     1      -0.494  -2.650   0.583  1.00  0.00     0.001 C 
HETATM    9  C7  UNL     1      -1.536  -2.301  -0.426  1.00  0.00     0.000 C 
HETATM   10  C8  UNL     1      -2.677  -1.466   0.049  1.00  0.00     0.000 C 
HETATM   11  C9  UNL     1      -2.968  -0.294  -0.896  1.00  0.00     0.000 C 
HETATM   12  C10 UNL     1      -2.802   1.041  -0.273  1.00  0.00     0.000 C 
HETATM   13  C11 UNL     1      -1.882   1.975  -0.950  1.00  0.00     0.000 C 
HETATM   14  C12 UNL     1      -0.413   1.599  -0.858  1.00  0.00     0.004 C 
HETATM   15  C13 UNL     1       0.292   2.215   0.293  1.00  0.00     0.029 C 
HETATM   16  C14 UNL     1       0.893   1.357   1.333  1.00  0.00    -0.001 C 
HETATM   17  C15 UNL     1       1.874   0.324   1.026  1.00  0.00     0.013 C 
ENDROOT
TORSDOF 0
