REMARK  1 active torsions:
REMARK  status: ('A' for Active; 'I' for Inactive)
REMARK    1  A    between atoms: O1_1  and  C1_3 
ROOT
HETATM    1  C1  UNL     1      -1.828  -0.207   0.365  1.00  0.00     0.318 C 
HETATM    2  C2  UNL     1      -1.361  -1.315  -0.551  1.00  0.00     0.061 C 
HETATM    3  C3  UNL     1      -0.423  -2.237   0.161  1.00  0.00     0.004 C 
HETATM    4  C4  UNL     1       0.890  -1.606   0.555  1.00  0.00     0.000 C 
HETATM    5  C5  UNL     1       1.719  -1.115  -0.541  1.00  0.00     0.000 C 
HETATM    6  C6  UNL     1       1.723   0.318  -0.896  1.00  0.00     0.000 C 
HETATM    7  C7  UNL     1       1.668   1.320   0.178  1.00  0.00     0.002 C 
HETATM    8  C8  UNL     1       0.513   2.320   0.004  1.00  0.00     0.027 C 
HETATM    9  C9  UNL     1      -0.711   1.858   0.732  1.00  0.00     0.235 C 
HETATM   10  N1  UNL     1      -1.556   1.103  -0.132  1.00  0.00    -0.049 N 
ATOM     11  H11 UNL     1      -2.421   1.606  -0.327  1.00  0.00     0.280 HD
ATOM     12  H12 UNL     1      -1.171   1.063  -1.076  1.00  0.00     0.280 HD
ENDROOT
BRANCH   1  13
HETATM   13  O1  UNL     1      -3.201  -0.286   0.628  1.00  0.00    -0.370 OA
ATOM     14  H1  UNL     1      -3.495   0.410   1.204  1.00  0.00     0.212 HD
ENDBRANCH   1  13
TORSDOF 1
