REMARK  3 active torsions:
REMARK  status: ('A' for Active; 'I' for Inactive)
REMARK       I    between atoms: C1_2  and  N1_3 
REMARK    1  A    between atoms: C1_2  and  C12_18 
REMARK    2  A    between atoms: N1_3  and  C2_5 
REMARK    3  A    between atoms: C5_8  and  C6_9 
ROOT
HETATM    1  C2  UNL     1       0.172  -0.541   0.829  1.00  0.00     0.094 C 
HETATM    2  C3  UNL     1      -0.697  -1.470  -0.018  1.00  0.00     0.012 C 
HETATM    3  C4  UNL     1      -1.234  -0.803  -1.233  1.00  0.00     0.020 C 
HETATM    4  C5  UNL     1      -1.953   0.476  -0.933  1.00  0.00     0.006 C 
HETATM    5  C7  UNL     1      -0.968   1.379  -0.193  1.00  0.00     0.022 C 
HETATM    6  C8  UNL     1      -0.783   0.580   1.077  1.00  0.00     0.036 C 
HETATM    7  C9  UNL     1      -2.109  -0.167   1.296  1.00  0.00     0.074 C 
HETATM    8 CL2  UNL     1      -2.804   0.131   2.866  1.00  0.00    -0.116 Cl
HETATM    9  C10 UNL     1      -1.841  -1.624   1.001  1.00  0.00     0.036 C 
HETATM   10  C11 UNL     1      -3.001   0.320   0.144  1.00  0.00     0.203 C 
HETATM   11  F1  UNL     1      -3.510   1.546   0.454  1.00  0.00    -0.246 F 
ENDROOT
BRANCH   1  12
HETATM   12  N1  UNL     1       1.421  -0.237   0.263  1.00  0.00    -0.355 N 
HETATM   13  C1  UNL     1       2.601  -0.620   0.954  1.00  0.00     0.222 C 
HETATM   14  O1  UNL     1       2.556  -1.222   2.056  1.00  0.00    -0.273 OA
ATOM     15  H1  UNL     1       1.480   0.251  -0.631  1.00  0.00     0.162 HD
BRANCH  13  16
HETATM   16  C12 UNL     1       3.968  -0.323   0.400  1.00  0.00     0.078 A 
HETATM   17  C13 UNL     1       4.124   0.982  -0.331  1.00  0.00     0.015 A 
HETATM   18  C14 UNL     1       4.095  -0.283  -1.090  1.00  0.00     0.015 A 
ENDBRANCH  13  16
ENDBRANCH   1  12
BRANCH   4  19
HETATM   19  C6  UNL     1      -2.524   1.111  -2.148  1.00  0.00     0.127 C 
HETATM   20 CL1  UNL     1      -3.380   2.616  -1.881  1.00  0.00    -0.130 Cl
ENDBRANCH   4  19
TORSDOF 3
