REMARK  12 active torsions:
REMARK  status: ('A' for Active; 'I' for Inactive)
REMARK    1  A    between atoms: C2_2  and  O1_3 
REMARK    2  A    between atoms: C2_2  and  C3_5 
REMARK    3  A    between atoms: C3_5  and  N1_6 
REMARK    4  A    between atoms: C5_8  and  N2_9 
REMARK    5  A    between atoms: N2_9  and  C6_12 
REMARK    6  A    between atoms: C6_12  and  C7_13 
REMARK    7  A    between atoms: C7_13  and  C8_14 
REMARK    8  A    between atoms: C8_14  and  N3_15 
REMARK    9  A    between atoms: N3_15  and  C9_17 
REMARK   10  A    between atoms: C9_17  and  C10_18 
REMARK   11  A    between atoms: C10_18  and  O2_19 
REMARK   12  A    between atoms: C13_23  and  O3_24 
ROOT
HETATM    1  N1  UNL     1      -2.711   0.044   0.287  1.00  0.00    -0.019 N 
HETATM    2  C4  UNL     1      -1.420   0.526   0.720  1.00  0.00     0.279 C 
HETATM    3  C5  UNL     1      -0.403  -0.507   0.212  1.00  0.00     0.221 C 
HETATM    4  C11 UNL     1      -1.326  -1.553  -0.382  1.00  0.00     0.081 C 
HETATM    5  C12 UNL     1      -2.386  -0.593  -0.966  1.00  0.00     0.255 C 
HETATM    6  C13 UNL     1      -2.101  -2.179   0.719  1.00  0.00     0.201 C 
HETATM    7  C14 UNL     1      -3.059  -1.102   1.087  1.00  0.00     0.207 C 
HETATM    8  N4  UNL     1      -3.981  -1.223   1.943  1.00  0.00    -0.380 N 
ATOM      9  H41 UNL     1      -4.227  -2.035   2.510  1.00  0.00     0.157 HD
ATOM     10  H42 UNL     1      -4.638  -0.485   2.195  1.00  0.00     0.157 HD
ENDROOT
BRANCH   3  11
HETATM   11  N2  UNL     1       0.469   0.052  -0.761  1.00  0.00    -0.069 N 
ATOM     12  H22 UNL     1       0.031   0.059  -1.682  1.00  0.00     0.277 HD
ATOM     13  H21 UNL     1       0.576   1.057  -0.621  1.00  0.00     0.277 HD
BRANCH  11  14
HETATM   14  C6  UNL     1       1.737  -0.595  -0.804  1.00  0.00     0.234 C 
BRANCH  14  15
HETATM   15  C7  UNL     1       2.566  -0.304   0.419  1.00  0.00     0.046 C 
BRANCH  15  16
HETATM   16  C8  UNL     1       3.921  -1.000   0.325  1.00  0.00     0.115 C 
BRANCH  16  17
HETATM   17  N3  UNL     1       4.663  -0.588  -0.820  1.00  0.00    -0.419 N 
ATOM     18  H3  UNL     1       4.848  -1.225  -1.595  1.00  0.00     0.153 HD
BRANCH  17  19
HETATM   19  C9  UNL     1       5.133   0.754  -0.829  1.00  0.00     0.139 C 
BRANCH  19  20
HETATM   20  C10 UNL     1       6.203   1.046   0.180  1.00  0.00     0.183 C 
BRANCH  20  21
HETATM   21  O2  UNL     1       7.311   0.228  -0.060  1.00  0.00    -0.399 OA
ATOM     22  H2  UNL     1       7.989   0.413   0.579  1.00  0.00     0.209 HD
ENDBRANCH  20  21
ENDBRANCH  19  20
ENDBRANCH  17  19
ENDBRANCH  16  17
ENDBRANCH  15  16
ENDBRANCH  14  15
ENDBRANCH  11  14
ENDBRANCH   3  11
BRANCH   1  23
HETATM   23  C3  UNL     1      -3.749   0.969   0.314  1.00  0.00     0.276 C 
BRANCH  23  24
HETATM   24  C2  UNL     1      -3.906   1.963  -0.768  1.00  0.00     0.140 C 
HETATM   25  C1  UNL     1      -4.330   1.380  -2.109  1.00  0.00     0.041 C 
BRANCH  24  26
HETATM   26  O1  UNL     1      -5.031   2.759  -0.387  1.00  0.00    -0.394 OA
ATOM     27  H1  UNL     1      -4.766   3.123   0.450  1.00  0.00     0.210 HD
ENDBRANCH  24  26
ENDBRANCH  23  24
ENDBRANCH   1  23
BRANCH   6  28
HETATM   28  O3  UNL     1      -2.736  -3.323   0.262  1.00  0.00    -0.387 OA
ATOM     29  H3  UNL     1      -3.232  -3.724   0.966  1.00  0.00     0.210 HD
ENDBRANCH   6  28
TORSDOF 12
