REMARK  6 active torsions:
REMARK  status: ('A' for Active; 'I' for Inactive)
REMARK    1  A    between atoms: C2_2  and  C3_3 
REMARK    2  A    between atoms: C3_3  and  N1_4 
REMARK    3  A    between atoms: C7_12  and  S1_13 
REMARK    4  A    between atoms: S1_13  and  C8_14 
REMARK    5  A    between atoms: N4_22  and  C15_23 
REMARK    6  A    between atoms: C15_23  and  C16_24 
ROOT
HETATM    1  N1  UNL     1       2.620   0.209  -0.123  1.00  0.00    -0.334 N 
HETATM    2  C4  UNL     1       2.364   1.562  -0.291  1.00  0.00     0.100 A 
HETATM    3  N2  UNL     1       3.305   2.413  -0.599  1.00  0.00    -0.387 N 
ATOM      4  H21 UNL     1       3.117   3.408  -0.723  1.00  0.00     0.157 HD
ATOM      5  H22 UNL     1       4.238   2.024  -0.738  1.00  0.00     0.157 HD
HETATM    6  C5  UNL     1       1.006   2.128  -0.089  1.00  0.00     0.201 A 
HETATM    7  C6  UNL     1       0.593   2.475  -1.488  1.00  0.00     0.077 C 
HETATM    8  N3  UNL     1       0.290   2.731  -2.595  1.00  0.00    -0.196 NA
HETATM    9  C7  UNL     1      -0.007   1.211   0.434  1.00  0.00     0.032 A 
HETATM   10  C10 UNL     1       0.213  -0.113   0.643  1.00  0.00     0.078 A 
HETATM   11  C11 UNL     1       1.546  -0.608   0.350  1.00  0.00     0.064 A 
HETATM   12  C12 UNL     1       1.586  -1.902   0.625  1.00  0.00     0.052 A 
HETATM   13  C13 UNL     1       0.271  -2.340   1.095  1.00  0.00     0.131 A 
HETATM   14  C14 UNL     1      -0.224  -3.605   0.504  1.00  0.00     0.061 C 
HETATM   15 CL1  UNL     1       0.499  -2.696   2.867  1.00  0.00    -0.091 Cl
HETATM   16  N4  UNL     1      -0.625  -1.202   1.032  1.00  0.00    -0.327 N 
ENDROOT
BRANCH   9  17
HETATM   17  S1  UNL     1      -1.571   1.834   0.986  1.00  0.00    -0.130 SA
BRANCH  17  18
HETATM   18  C8  UNL     1      -1.763   3.570   1.179  1.00  0.00     0.075 C 
HETATM   19  C9  UNL     1      -1.828   4.423  -0.044  1.00  0.00     0.016 C 
ENDBRANCH  17  18
ENDBRANCH   9  17
BRANCH   1  20
HETATM   20  C3  UNL     1       3.914  -0.359  -0.458  1.00  0.00     0.130 C 
BRANCH  20  21
HETATM   21  C2  UNL     1       4.163  -0.395  -1.956  1.00  0.00     0.016 C 
HETATM   22  C1  UNL     1       5.538  -0.995  -2.155  1.00  0.00     0.006 C 
ENDBRANCH  20  21
ENDBRANCH   1  20
BRANCH  16  23
HETATM   23  C15 UNL     1      -2.000  -1.213   1.287  1.00  0.00     0.111 C 
BRANCH  23  24
HETATM   24  C16 UNL     1      -2.996  -1.152   0.237  1.00  0.00     0.060 A 
HETATM   25  C17 UNL     1      -4.331  -1.139   0.699  1.00  0.00     0.131 A 
HETATM   26  F1  UNL     1      -4.563  -1.159   2.056  1.00  0.00    -0.205 F 
HETATM   27  C18 UNL     1      -5.413  -1.108  -0.137  1.00  0.00     0.046 A 
HETATM   28  C19 UNL     1      -5.212  -1.088  -1.495  1.00  0.00     0.048 A 
HETATM   29  C20 UNL     1      -3.935  -1.099  -2.004  1.00  0.00     0.155 A 
HETATM   30  F2  UNL     1      -3.683  -1.080  -3.333  1.00  0.00    -0.203 F 
HETATM   31  C21 UNL     1      -2.865  -1.131  -1.120  1.00  0.00     0.169 A 
HETATM   32  F3  UNL     1      -1.634  -1.147  -1.641  1.00  0.00    -0.202 F 
ENDBRANCH  23  24
ENDBRANCH  16  23
TORSDOF 6
