REMARK  19 active torsions:
REMARK  status: ('A' for Active; 'I' for Inactive)
REMARK    1  A    between atoms: C2_2  and  O1_3 
REMARK    2  A    between atoms: C2_2  and  C3_5 
REMARK    3  A    between atoms: C2_2  and  C13_28 
REMARK    4  A    between atoms: C3_5  and  O2_6 
REMARK    5  A    between atoms: C3_5  and  C4_8 
REMARK    6  A    between atoms: C4_8  and  C5_10 
REMARK    7  A    between atoms: C6_12  and  N1_13 
REMARK    8  A    between atoms: C11_22  and  O7_23 
REMARK    9  A    between atoms: C12_25  and  O8_26 
REMARK   10  A    between atoms: C13_28  and  O9_29 
REMARK   11  A    between atoms: C13_28  and  C14_31 
REMARK   12  A    between atoms: C14_31  and  N3_32 
REMARK   13  A    between atoms: C14_31  and  C17_45 
REMARK       I    between atoms: N3_32  and  C15_34 
REMARK   14  A    between atoms: C15_34  and  C16_36 
REMARK   15  A    between atoms: C16_36  and  N4_37 
REMARK   16  A    between atoms: C16_36  and  O11_41 
REMARK   17  A    between atoms: O11_41  and  N5_42 
REMARK   18  A    between atoms: C17_45  and  N6_46 
REMARK   19  A    between atoms: C17_45  and  O12_50 
ROOT
HETATM    1  C1  UNL     1       0.847   1.534  -2.506  1.00  0.00     0.052 C 
HETATM    2  C2  UNL     1       0.877   0.264  -1.749  1.00  0.00     0.118 C 
ENDROOT
BRANCH   2   3
HETATM    3  O1  UNL     1       0.972   0.563  -0.395  1.00  0.00    -0.384 OA
ATOM      4  H1  UNL     1       0.991  -0.253   0.091  1.00  0.00     0.210 HD
ENDBRANCH   2   3
BRANCH   2   5
HETATM    5  C3  UNL     1      -0.372  -0.585  -1.873  1.00  0.00     0.227 C 
BRANCH   5   6
HETATM    6  O2  UNL     1      -0.240  -1.823  -1.169  1.00  0.00    -0.385 OA
ATOM      7  H2  UNL     1      -1.023  -2.355  -1.247  1.00  0.00     0.210 HD
ENDBRANCH   5   6
BRANCH   5   8
HETATM    8  C4  UNL     1      -1.624   0.035  -1.391  1.00  0.00     0.189 C 
HETATM    9  O3  UNL     1      -1.969   1.140  -1.737  1.00  0.00    -0.292 OA
BRANCH   8  10
HETATM   10  C5  UNL     1      -2.528  -0.682  -0.458  1.00  0.00     0.227 C 
HETATM   11  O4  UNL     1      -3.739  -0.009  -0.238  1.00  0.00    -0.348 OA
HETATM   12  C6  UNL     1      -4.341  -0.832   0.715  1.00  0.00     0.264 C 
HETATM   13  C11 UNL     1      -3.266  -1.340   1.642  1.00  0.00     0.199 C 
HETATM   14  C12 UNL     1      -2.012  -0.742   0.970  1.00  0.00     0.187 C 
BRANCH  12  15
HETATM   15  N1  UNL     1      -5.358  -0.173   1.498  1.00  0.00    -0.280 N 
HETATM   16  C7  UNL     1      -5.718  -0.723   2.681  1.00  0.00     0.104 A 
HETATM   17  C8  UNL     1      -6.687  -0.160   3.491  1.00  0.00     0.092 A 
HETATM   18  C9  UNL     1      -7.301   0.992   3.087  1.00  0.00     0.250 A 
HETATM   19  O5  UNL     1      -8.181   1.531   3.791  1.00  0.00    -0.268 OA
HETATM   20  N2  UNL     1      -6.937   1.538   1.905  1.00  0.00    -0.275 N 
HETATM   21  C10 UNL     1      -5.978   0.956   1.130  1.00  0.00     0.331 A 
ATOM     22  H2  UNL     1      -7.386   2.397   1.589  1.00  0.00     0.173 HD
HETATM   23  O6  UNL     1      -5.647   1.482   0.019  1.00  0.00    -0.246 OA
ENDBRANCH  12  15
BRANCH  13  24
HETATM   24  O7  UNL     1      -3.153  -2.711   1.631  1.00  0.00    -0.388 OA
ATOM     25  H7  UNL     1      -2.476  -3.031   2.215  1.00  0.00     0.210 HD
ENDBRANCH  13  24
BRANCH  14  26
HETATM   26  O8  UNL     1      -1.744   0.501   1.510  1.00  0.00    -0.390 OA
ATOM     27  H8  UNL     1      -1.421   0.463   2.403  1.00  0.00     0.210 HD
ENDBRANCH  14  26
ENDBRANCH   8  10
ENDBRANCH   5   8
ENDBRANCH   2   5
BRANCH   2  28
HETATM   28  C13 UNL     1       2.079  -0.596  -2.039  1.00  0.00     0.205 C 
BRANCH  28  29
HETATM   29  O9  UNL     1       1.962  -1.794  -1.266  1.00  0.00    -0.387 OA
ATOM     30  H9  UNL     1       2.720  -2.336  -1.449  1.00  0.00     0.210 HD
ENDBRANCH  28  29
BRANCH  28  31
HETATM   31  C14 UNL     1       3.424  -0.096  -1.744  1.00  0.00     0.077 C 
BRANCH  31  32
HETATM   32  N3  UNL     1       3.737   0.221  -0.373  1.00  0.00    -0.324 N 
HETATM   33  C15 UNL     1       4.635  -0.550   0.403  1.00  0.00     0.281 C 
HETATM   34  O10 UNL     1       5.205  -1.552  -0.078  1.00  0.00    -0.268 OA
ATOM     35  H3  UNL     1       3.293   1.034   0.055  1.00  0.00     0.168 HD
BRANCH  33  36
HETATM   36  C16 UNL     1       4.924  -0.189   1.808  1.00  0.00     0.438 C 
BRANCH  36  37
HETATM   37  N4  UNL     1       4.631  -1.272   2.727  1.00  0.00    -0.042 N 
ATOM     38  H43 UNL     1       3.669  -1.595   2.620  1.00  0.00     0.278 HD
ATOM     39  H42 UNL     1       5.121  -2.125   2.458  1.00  0.00     0.278 HD
ATOM     40  H41 UNL     1       4.830  -1.023   3.696  1.00  0.00     0.278 HD
ENDBRANCH  36  37
BRANCH  36  41
HETATM   41  O11 UNL     1       4.166   0.948   2.164  1.00  0.00    -0.244 OA
BRANCH  41  42
HETATM   42  N5  UNL     1       5.019   1.926   2.525  1.00  0.00    -0.308 N 
ATOM     43  H52 UNL     1       6.036   1.844   2.534  1.00  0.00     0.184 HD
ATOM     44  H51 UNL     1       4.471   2.747   2.782  1.00  0.00     0.184 HD
ENDBRANCH  41  42
ENDBRANCH  36  41
ENDBRANCH  33  36
ENDBRANCH  31  32
BRANCH  31  45
HETATM   45  C17 UNL     1       4.117   0.800  -2.720  1.00  0.00     0.365 C 
BRANCH  45  46
HETATM   46  N6  UNL     1       4.010   2.183  -2.172  1.00  0.00    -0.048 N 
ATOM     47  H63 UNL     1       3.050   2.466  -1.974  1.00  0.00     0.277 HD
ATOM     48  H62 UNL     1       4.366   2.269  -1.220  1.00  0.00     0.277 HD
ATOM     49  H61 UNL     1       4.483   2.794  -2.838  1.00  0.00     0.277 HD
ENDBRANCH  45  46
BRANCH  45  50
HETATM   50  O12 UNL     1       5.533   0.603  -2.651  1.00  0.00    -0.365 OA
ATOM     51  H12 UNL     1       5.973   1.172  -3.271  1.00  0.00     0.212 HD
ENDBRANCH  45  50
ENDBRANCH  31  45
ENDBRANCH  28  31
ENDBRANCH   2  28
TORSDOF 19
