REMARK  2 active torsions:
REMARK  status: ('A' for Active; 'I' for Inactive)
REMARK    1  A    between atoms: C2_2  and  N2_5 
REMARK    2  A    between atoms: N2_5  and  C4_7 
ROOT
HETATM    1  C1  UNL     1      -1.871  -0.770  -0.115  1.00  0.00     0.048 C 
HETATM    2  C2  UNL     1      -1.276   0.612  -0.161  1.00  0.00     0.183 C 
HETATM    3  C3  UNL     1      -2.189   1.458   0.662  1.00  0.00     0.084 C 
HETATM    4  N1  UNL     1      -2.884   2.132   1.305  1.00  0.00    -0.195 NA
ENDROOT
BRANCH   2   5
HETATM    5  N2  UNL     1       0.008   0.773   0.372  1.00  0.00    -0.374 N 
ATOM      6  H2  UNL     1       0.140   1.371   1.188  1.00  0.00     0.157 HD
BRANCH   5   7
HETATM    7  C4  UNL     1       1.118   0.126  -0.196  1.00  0.00     0.149 A 
HETATM    8  C5  UNL     1       1.181  -1.373  -0.167  1.00  0.00     0.073 C 
HETATM    9  C6  UNL     1       2.422   0.926  -0.106  1.00  0.00     0.231 A 
HETATM   10  O1  UNL     1       1.773   0.676  -1.301  1.00  0.00    -0.355 OA
ENDBRANCH   5   7
ENDBRANCH   2   5
TORSDOF 2
