REMARK  3 active torsions:
REMARK  status: ('A' for Active; 'I' for Inactive)
REMARK    1  A    between atoms: C4_5  and  C5_6 
REMARK    2  A    between atoms: C5_6  and  N1_7 
REMARK       I    between atoms: N1_7  and  C6_9 
REMARK       I    between atoms: C6_9  and  N3_17 
REMARK    3  A    between atoms: N2_10  and  C7_12 
ROOT
HETATM    1  N1  UNL     1       0.868   0.668  -0.189  1.00  0.00    -0.221 N 
ATOM      2  H1  UNL     1       0.948   0.216  -1.100  1.00  0.00     0.177 HD
HETATM    3  C6  UNL     1       1.910   1.501   0.302  1.00  0.00     0.687 C 
HETATM    4  N2  UNL     1       3.100   1.133   0.559  1.00  0.00    -0.189 N 
ATOM      5  H2  UNL     1       3.720   1.866   0.905  1.00  0.00     0.184 HD
HETATM    6  N3  UNL     1       1.654   2.898   0.552  1.00  0.00    -0.126 N 
ATOM      7  H3  UNL     1       1.192   3.208   1.407  1.00  0.00     0.197 HD
HETATM    8  C11 UNL     1       2.061   3.803  -0.417  1.00  0.00     0.196 C 
HETATM    9  N4  UNL     1       2.407   4.551  -1.230  1.00  0.00    -0.171 NA
ENDROOT
BRANCH   1  10
HETATM   10  C5  UNL     1      -0.310   0.474   0.632  1.00  0.00     0.199 C 
BRANCH  10  11
HETATM   11  C4  UNL     1      -1.313  -0.438  -0.038  1.00  0.00     0.339 C 
HETATM   12  O1  UNL     1      -1.744   0.068  -1.258  1.00  0.00    -0.356 OA
HETATM   13  C3  UNL     1      -2.979  -0.513  -1.489  1.00  0.00     0.203 C 
HETATM   14  C2  UNL     1      -3.497  -0.968  -0.141  1.00  0.00     0.208 C 
HETATM   15  C1  UNL     1      -4.911  -0.540   0.116  1.00  0.00     0.042 C 
HETATM   16  N5  UNL     1      -2.547  -0.323   0.758  1.00  0.00    -0.041 N 
ATOM     17  H52 UNL     1      -2.793   0.620   1.060  1.00  0.00     0.280 HD
ATOM     18  H51 UNL     1      -2.502  -0.705   1.703  1.00  0.00     0.280 HD
ENDBRANCH  10  11
ENDBRANCH   1  10
BRANCH   4  19
HETATM   19  C7  UNL     1       3.678  -0.132   0.435  1.00  0.00     0.073 A 
HETATM   20  C8  UNL     1       3.622  -0.969  -0.661  1.00  0.00     0.056 A 
HETATM   21  C9  UNL     1       4.326  -2.123  -0.359  1.00  0.00     0.143 A 
HETATM   22  O2  UNL     1       4.786  -1.992   0.858  1.00  0.00    -0.332 OA
HETATM   23  C10 UNL     1       4.434  -0.841   1.371  1.00  0.00     0.171 A 
ENDBRANCH   4  19
TORSDOF 3
