REMARK  7 active torsions:
REMARK  status: ('A' for Active; 'I' for Inactive)
REMARK    1  A    between atoms: C2_2  and  C3_3 
REMARK    2  A    between atoms: N1_8  and  C8_9 
REMARK    3  A    between atoms: C8_9  and  C9_10 
REMARK    4  A    between atoms: C8_9  and  C10_15 
REMARK    5  A    between atoms: N2_11  and  O1_13 
REMARK    6  A    between atoms: C10_15  and  S1_16 
REMARK    7  A    between atoms: S1_16  and  C11_17 
ROOT
HETATM    1  C8  UNL     1       0.299  -0.878   0.119  1.00  0.00     0.134 C 
ENDROOT
BRANCH   1   2
HETATM    2  N1  UNL     1      -0.665   0.049  -0.211  1.00  0.00    -0.378 N 
HETATM    3  C7  UNL     1      -0.501   0.892  -1.324  1.00  0.00     0.059 C 
HETATM    4  C6  UNL     1      -1.877   1.191  -1.890  1.00  0.00     0.045 C 
HETATM    5  C5  UNL     1      -2.926   0.224  -1.394  1.00  0.00     0.016 C 
HETATM    6  C3  UNL     1      -2.985   0.136   0.110  1.00  0.00    -0.024 C 
HETATM    7  C4  UNL     1      -3.260  -1.322   0.453  1.00  0.00     0.017 C 
HETATM    8  C14 UNL     1      -1.618   0.532   0.694  1.00  0.00     0.088 C 
HETATM    9  C15 UNL     1      -1.502   0.158   2.127  1.00  0.00     0.033 C 
BRANCH   6  10
HETATM   10  C2  UNL     1      -4.106   0.931   0.694  1.00  0.00     0.006 C 
HETATM   11  C1  UNL     1      -4.024   2.414   0.463  1.00  0.00     0.006 C 
ENDBRANCH   6  10
ENDBRANCH   1   2
BRANCH   1  12
HETATM   12  C9  UNL     1       0.431  -1.870  -1.010  1.00  0.00     0.112 C 
HETATM   13  N2  UNL     1       0.659  -3.109  -0.764  1.00  0.00    -0.282 N 
ATOM     14  H2  UNL     1       0.748  -3.401   0.209  1.00  0.00     0.192 HD
BRANCH  13  15
HETATM   15  O1  UNL     1       0.788  -4.050  -1.735  1.00  0.00    -0.290 OA
ATOM     16  H1  UNL     1       0.957  -4.967  -1.553  1.00  0.00     0.244 HD
ENDBRANCH  13  15
ENDBRANCH   1  12
BRANCH   1  17
HETATM   17  C10 UNL     1       1.692  -0.237   0.214  1.00  0.00     0.113 C 
BRANCH  17  18
HETATM   18  S1  UNL     1       2.922  -1.517   0.654  1.00  0.00    -0.092 SA
BRANCH  18  19
HETATM   19  C11 UNL     1       4.514  -0.709   0.746  1.00  0.00     0.136 C 
HETATM   20  N3  UNL     1       5.606  -1.321   1.029  1.00  0.00    -0.369 N 
HETATM   21  C12 UNL     1       6.750  -0.461   1.043  1.00  0.00     0.141 C 
ATOM     22  H3  UNL     1       5.654  -2.321   1.225  1.00  0.00     0.161 HD
HETATM   23  C13 UNL     1       6.268   0.815   0.386  1.00  0.00     0.141 C 
HETATM   24  N4  UNL     1       4.823   0.659   0.537  1.00  0.00    -0.369 N 
ATOM     25  H4  UNL     1       4.142   1.417   0.498  1.00  0.00     0.161 HD
ENDBRANCH  18  19
ENDBRANCH  17  18
ENDBRANCH   1  17
TORSDOF 7
