REMARK  4 active torsions:
REMARK  status: ('A' for Active; 'I' for Inactive)
REMARK    1  A    between atoms: N2_5  and  C3_6 
REMARK    2  A    between atoms: C3_6  and  C4_7 
REMARK       I    between atoms: C4_7  and  N3_9 
REMARK    3  A    between atoms: C8_13  and  N4_14 
REMARK    4  A    between atoms: C9_18  and  C10_19 
ROOT
HETATM    1  C4  UNL     1       0.552   0.059   0.140  1.00  0.00     0.240 C 
HETATM    2  O1  UNL     1       0.759   0.066   1.376  1.00  0.00    -0.271 OA
HETATM    3  N3  UNL     1      -0.779  -0.034  -0.343  1.00  0.00    -0.344 N 
HETATM    4  C5  UNL     1      -1.133  -0.051  -1.743  1.00  0.00     0.126 C 
HETATM    5  C6  UNL     1      -1.755  -1.404  -2.012  1.00  0.00     0.022 C 
HETATM    6  C7  UNL     1      -3.070  -1.416  -1.230  1.00  0.00     0.036 C 
HETATM    7  C8  UNL     1      -2.755  -1.319   0.246  1.00  0.00     0.206 C 
HETATM    8  C9  UNL     1      -1.939  -0.124   0.590  1.00  0.00     0.121 C 
ENDROOT
BRANCH   1   9
HETATM    9  C3  UNL     1       1.634   0.144  -0.856  1.00  0.00     0.251 C 
BRANCH   9  10
HETATM   10  N2  UNL     1       2.937   0.235  -0.288  1.00  0.00    -0.286 N 
HETATM   11  N1  UNL     1       3.565   1.351   0.026  1.00  0.00    -0.301 N 
HETATM   12  C2  UNL     1       4.779   1.080   0.541  1.00  0.00     0.041 A 
ATOM     13  H1  UNL     1       3.184   2.288  -0.103  1.00  0.00     0.187 HD
HETATM   14  C1  UNL     1       5.775   2.095   1.010  1.00  0.00     0.071 C 
HETATM   15  C15 UNL     1       4.889  -0.293   0.536  1.00  0.00     0.058 A 
HETATM   16  C13 UNL     1       3.729  -0.809   0.015  1.00  0.00     0.044 A 
HETATM   17 BR1  UNL     1       6.410  -1.253   1.158  1.00  0.00    -0.047 Br
HETATM   18  C14 UNL     1       3.427  -2.270  -0.172  1.00  0.00     0.071 C 
ENDBRANCH   9  10
ENDBRANCH   1   9
BRANCH   8  19
HETATM   19  C10 UNL     1      -2.742   1.148   0.477  1.00  0.00     0.002 C 
HETATM   20  C11 UNL     1      -1.847   2.354   0.817  1.00  0.00     0.011 C 
HETATM   21  C12 UNL     1      -3.908   1.229   1.432  1.00  0.00     0.011 C 
ENDBRANCH   8  19
BRANCH   7  22
HETATM   22  N4  UNL     1      -3.971  -1.361   0.986  1.00  0.00    -0.073 N 
ATOM     23  H43 UNL     1      -4.634  -0.647   0.683  1.00  0.00     0.274 HD
ATOM     24  H42 UNL     1      -4.533  -2.183   0.763  1.00  0.00     0.274 HD
ATOM     25  H41 UNL     1      -3.759  -1.296   1.981  1.00  0.00     0.274 HD
ENDBRANCH   7  22
TORSDOF 4
