REMARK  9 active torsions:
REMARK  status: ('A' for Active; 'I' for Inactive)
REMARK    1  A    between atoms: N1_1  and  C1_4 
REMARK    2  A    between atoms: C7_21  and  C8_22 
REMARK    3  A    between atoms: C8_22  and  C9_23 
REMARK    4  A    between atoms: C9_23  and  N7_24 
REMARK    5  A    between atoms: N7_24  and  C10_25 
REMARK    6  A    between atoms: N7_24  and  C11_27 
REMARK    7  A    between atoms: C11_27  and  O4_28 
REMARK    8  A    between atoms: C12_31  and  O6_32 
REMARK    9  A    between atoms: N8_34  and  O7_35 
ROOT
HETATM    1  C1  UNL     1      -6.272  -0.060  -0.635  1.00  0.00     0.706 A 
HETATM    2  N2  UNL     1      -5.453  -1.106  -0.549  1.00  0.00    -0.019 N 
ATOM      3  H2  UNL     1      -5.743  -2.083  -0.600  1.00  0.00     0.203 HD
HETATM    4  C2  UNL     1      -4.182  -0.682  -0.385  1.00  0.00     0.723 A 
HETATM    5  N3  UNL     1      -3.005  -1.350  -0.248  1.00  0.00    -0.170 N 
ATOM      6  H3  UNL     1      -2.963  -2.369  -0.257  1.00  0.00     0.186 HD
HETATM    7  C3  UNL     1      -1.916  -0.609  -0.102  1.00  0.00     0.180 A 
HETATM    8  C4  UNL     1      -1.937   0.771  -0.084  1.00  0.00     0.153 A 
HETATM    9  C5  UNL     1      -3.140   1.428  -0.223  1.00  0.00     0.313 A 
HETATM   10  O1  UNL     1      -3.183   2.684  -0.209  1.00  0.00    -0.263 OA
HETATM   11  N4  UNL     1      -4.252   0.661  -0.373  1.00  0.00    -0.030 N 
HETATM   12  N5  UNL     1      -5.507   1.051  -0.523  1.00  0.00    -0.108 N 
ATOM     13  H5  UNL     1      -5.839   2.015  -0.549  1.00  0.00     0.207 HD
HETATM   14  N6  UNL     1      -0.958   1.824   0.054  1.00  0.00    -0.317 N 
ATOM     15  H6  UNL     1      -1.316   2.771  -0.070  1.00  0.00     0.169 HD
HETATM   16  C6  UNL     1       0.422   1.734   0.335  1.00  0.00     0.251 C 
HETATM   17  O2  UNL     1       1.049   2.781  -0.025  1.00  0.00    -0.270 OA
HETATM   18  C7  UNL     1       1.395   0.757   0.945  1.00  0.00     0.220 C 
HETATM   19  O5  UNL     1       0.839  -0.393   1.331  1.00  0.00    -0.328 OA
HETATM   20  C12 UNL     1       0.589  -1.400   0.499  1.00  0.00     0.399 C 
HETATM   21  N8  UNL     1      -0.798  -1.498   0.024  1.00  0.00    -0.188 N 
ENDROOT
BRANCH  18  22
HETATM   22  C8  UNL     1       2.601   0.716   0.085  1.00  0.00     0.062 C 
BRANCH  22  23
HETATM   23  C9  UNL     1       3.666  -0.235   0.592  1.00  0.00     0.130 C 
BRANCH  23  24
HETATM   24  N7  UNL     1       4.823  -0.262  -0.249  1.00  0.00    -0.338 N 
BRANCH  24  25
HETATM   25  C10 UNL     1       5.926   0.617  -0.048  1.00  0.00     0.352 C 
HETATM   26  O3  UNL     1       5.874   1.435   0.894  1.00  0.00    -0.283 OA
ENDBRANCH  24  25
BRANCH  24  27
HETATM   27  C11 UNL     1       4.913  -1.200  -1.351  1.00  0.00     0.292 C 
BRANCH  27  28
HETATM   28  O4  UNL     1       5.502  -2.413  -0.947  1.00  0.00    -0.382 OA
ATOM     29  H4  UNL     1       5.561  -3.028  -1.669  1.00  0.00     0.211 HD
ENDBRANCH  27  28
ENDBRANCH  24  27
ENDBRANCH  23  24
ENDBRANCH  22  23
ENDBRANCH  18  22
BRANCH  20  30
HETATM   30  O6  UNL     1       0.776  -2.607   1.225  1.00  0.00    -0.353 OA
ATOM     31  H6  UNL     1       0.597  -3.326   0.631  1.00  0.00     0.214 HD
ENDBRANCH  20  30
BRANCH  21  32
HETATM   32  O7  UNL     1      -1.118  -2.739  -0.410  1.00  0.00    -0.281 OA
ATOM     33  H7  UNL     1      -0.377  -3.328  -0.327  1.00  0.00     0.245 HD
ENDBRANCH  21  32
BRANCH   1  34
HETATM   34  N1  UNL     1      -7.562  -0.053  -0.795  1.00  0.00    -0.233 N 
ATOM     35  H12 UNL     1      -8.138  -0.890  -0.879  1.00  0.00     0.174 HD
ATOM     36  H11 UNL     1      -8.190   0.748  -0.861  1.00  0.00     0.174 HD
ENDBRANCH   1  34
TORSDOF 9
