REMARK  10 active torsions:
REMARK  status: ('A' for Active; 'I' for Inactive)
REMARK    1  A    between atoms: C3_4  and  N2_5 
REMARK    2  A    between atoms: N3_8  and  C6_9 
REMARK    3  A    between atoms: C6_9  and  C7_10 
REMARK    4  A    between atoms: C7_10  and  C8_11 
REMARK    5  A    between atoms: C8_11  and  C9_12 
REMARK    6  A    between atoms: C9_12  and  C10_13 
REMARK    7  A    between atoms: C10_13  and  C11_14 
REMARK    8  A    between atoms: C11_14  and  N4_15 
REMARK    9  A    between atoms: C13_22  and  N6_23 
REMARK   10  A    between atoms: C14_28  and  N8_29 
ROOT
HETATM    1  N1  UNL     1      -3.168   3.296   0.755  1.00  0.00    -0.191 NA
HETATM    2  C1  UNL     1      -3.659   2.253   0.849  1.00  0.00     0.107 C 
HETATM    3  C2  UNL     1      -4.260   0.958   0.942  1.00  0.00     0.133 A 
HETATM    4  C3  UNL     1      -3.537  -0.108   0.449  1.00  0.00     0.145 A 
HETATM    5  N5  UNL     1      -4.088  -1.328   0.528  1.00  0.00    -0.175 N 
ATOM      6  H5  UNL     1      -3.573  -2.132   0.169  1.00  0.00     0.186 HD
HETATM    7  C13 UNL     1      -5.321  -1.519   1.077  1.00  0.00     0.679 A 
HETATM    8  N7  UNL     1      -6.034  -0.491   1.561  1.00  0.00    -0.176 N 
ATOM      9  H7  UNL     1      -6.955  -0.647   1.970  1.00  0.00     0.186 HD
HETATM   10  C14 UNL     1      -5.516   0.746   1.499  1.00  0.00     0.139 A 
ENDROOT
BRANCH   4  11
HETATM   11  N2  UNL     1      -2.235   0.026  -0.133  1.00  0.00    -0.338 N 
HETATM   12  C4  UNL     1      -1.975   0.313  -1.542  1.00  0.00     0.156 C 
HETATM   13  C5  UNL     1      -0.618   1.012  -1.482  1.00  0.00     0.294 C 
HETATM   14  N3  UNL     1       0.030   0.438  -0.321  1.00  0.00     0.107 N 
HETATM   15  C12 UNL     1      -0.966  -0.099   0.543  1.00  0.00     0.399 C 
BRANCH  14  16
HETATM   16  C6  UNL     1       1.087  -0.473  -0.641  1.00  0.00     0.274 C 
BRANCH  16  17
HETATM   17  C7  UNL     1       2.232   0.310  -1.249  1.00  0.00     0.030 C 
BRANCH  17  18
HETATM   18  C8  UNL     1       3.388  -0.576  -1.623  1.00  0.00     0.002 C 
BRANCH  18  19
HETATM   19  C9  UNL     1       3.968  -1.322  -0.455  1.00  0.00     0.002 C 
BRANCH  19  20
HETATM   20  C10 UNL     1       4.497  -0.448   0.637  1.00  0.00     0.027 C 
BRANCH  20  21
HETATM   21  C11 UNL     1       5.608   0.468   0.152  1.00  0.00     0.229 C 
BRANCH  21  22
HETATM   22  N4  UNL     1       6.009   1.248   1.336  1.00  0.00    -0.079 N 
ATOM     23  H43 UNL     1       5.237   1.739   1.787  1.00  0.00     0.274 HD
ATOM     24  H42 UNL     1       6.269   0.675   2.139  1.00  0.00     0.274 HD
ATOM     25  H41 UNL     1       6.755   1.863   1.010  1.00  0.00     0.274 HD
ENDBRANCH  21  22
ENDBRANCH  20  21
ENDBRANCH  19  20
ENDBRANCH  18  19
ENDBRANCH  17  18
ENDBRANCH  16  17
ENDBRANCH  14  16
ENDBRANCH   4  11
BRANCH  10  26
HETATM   26  N8  UNL     1      -6.171   1.759   1.952  1.00  0.00    -0.384 N 
ATOM     27  H82 UNL     1      -5.777   2.699   1.905  1.00  0.00     0.157 HD
ATOM     28  H81 UNL     1      -7.093   1.603   2.361  1.00  0.00     0.157 HD
ENDBRANCH  10  26
BRANCH   7  29
HETATM   29  N6  UNL     1      -5.816  -2.691   1.139  1.00  0.00    -0.234 N 
ATOM     30  H62 UNL     1      -5.274  -3.473   0.771  1.00  0.00     0.174 HD
ATOM     31  H61 UNL     1      -6.739  -2.834   1.550  1.00  0.00     0.174 HD
ENDBRANCH   7  29
TORSDOF 10
