REMARK  4 active torsions:
REMARK  status: ('A' for Active; 'I' for Inactive)
REMARK    1  A    between atoms: C1_2  and  N2_4 
REMARK    2  A    between atoms: N2_4  and  N3_6 
REMARK    3  A    between atoms: N3_6  and  C2_8 
REMARK    4  A    between atoms: C3_9  and  C4_10 
ROOT
HETATM    1  N3  UNL     1       2.357  -0.729  -0.029  1.00  0.00    -0.310 N 
ATOM      2  H3  UNL     1       2.931  -1.472  -0.426  1.00  0.00     0.186 HD
ENDROOT
BRANCH   1   3
HETATM    3  N2  UNL     1       2.966   0.502   0.232  1.00  0.00    -0.279 N 
ATOM      4  H2  UNL     1       2.411   1.348   0.364  1.00  0.00     0.189 HD
BRANCH   3   5
HETATM    5  C1  UNL     1       4.375   0.534   0.307  1.00  0.00     0.199 C 
HETATM    6  N1  UNL     1       5.175  -0.642   0.125  1.00  0.00    -0.068 NA
HETATM    7  S1  UNL     1       5.110   1.957   0.609  1.00  0.00    -0.043 SA
ENDBRANCH   3   5
ENDBRANCH   1   3
BRANCH   1   8
HETATM    8  C2  UNL     1       1.127  -0.980   0.199  1.00  0.00     0.103 C 
HETATM    9  C3  UNL     1      -0.105  -0.812   0.654  1.00  0.00    -0.003 C 
BRANCH   9  10
HETATM   10  C4  UNL     1      -1.072  -0.161  -0.232  1.00  0.00     0.009 C 
HETATM   11  C5  UNL     1      -2.234  -1.154  -0.368  1.00  0.00     0.008 C 
HETATM   12  C6  UNL     1      -3.297  -0.279  -0.976  1.00  0.00     0.001 C 
HETATM   13  C7  UNL     1      -3.053   1.111  -0.400  1.00  0.00     0.001 C 
HETATM   14  C8  UNL     1      -1.782   1.007   0.414  1.00  0.00     0.008 C 
ENDBRANCH   9  10
ENDBRANCH   1   8
TORSDOF 4
