REMARK  3 active torsions:
REMARK  status: ('A' for Active; 'I' for Inactive)
REMARK    1  A    between atoms: C2_2  and  C4_4 
REMARK    2  A    between atoms: N1_8  and  C8_9 
REMARK    3  A    between atoms: C8_9  and  C9_10 
ROOT
HETATM    1  C9  UNL     1      -0.298   2.867  -1.427  1.00  0.00     0.154 C 
HETATM    2  C10 UNL     1      -1.254   3.939  -1.816  1.00  0.00     0.060 C 
HETATM    3  N2  UNL     1      -2.000   4.776  -2.103  1.00  0.00    -0.197 NA
ENDROOT
BRANCH   1   4
HETATM    4  C8  UNL     1      -0.623   2.451  -0.036  1.00  0.00     0.289 C 
BRANCH   4   5
HETATM    5  N1  UNL     1       0.137   1.449   0.580  1.00  0.00     0.118 N 
HETATM    6  C7  UNL     1      -0.448   1.291   1.931  1.00  0.00     0.276 C 
HETATM    7  C6  UNL     1      -1.783   0.634   1.900  1.00  0.00     0.031 C 
HETATM    8  C5  UNL     1      -1.904  -0.605   1.088  1.00  0.00     0.011 C 
HETATM    9  C4  UNL     1      -1.218  -0.375  -0.256  1.00  0.00     0.049 C 
HETATM   10  C11 UNL     1       0.160   0.123   0.049  1.00  0.00     0.238 C 
HETATM   11  C12 UNL     1       1.119  -0.118  -1.053  1.00  0.00     0.072 C 
HETATM   12  N6  UNL     1       0.611  -0.728   1.169  1.00  0.00    -0.329 N 
HETATM   13  C13 UNL     1       2.427   0.611  -0.894  1.00  0.00     0.077 C 
HETATM   14  C14 UNL     1       3.357  -0.225  -0.091  1.00  0.00     0.095 C 
HETATM   15  N3  UNL     1       4.722  -0.214  -0.473  1.00  0.00    -0.087 NA
HETATM   16  N4  UNL     1       2.990  -0.939   0.909  1.00  0.00    -0.323 N 
HETATM   17  C15 UNL     1       1.761  -1.159   1.518  1.00  0.00     0.191 C 
ATOM     18  H4  UNL     1       3.757  -1.450   1.347  1.00  0.00     0.169 HD
HETATM   19  N5  UNL     1       1.797  -1.977   2.688  1.00  0.00    -0.063 NA
ATOM     20  H6  UNL     1      -0.144  -1.031   1.784  1.00  0.00     0.164 HD
BRANCH   9  21
HETATM   21  C2  UNL     1      -1.348  -1.526  -1.175  1.00  0.00    -0.014 C 
HETATM   22  C1  UNL     1      -0.804  -2.831  -0.740  1.00  0.00     0.010 C 
HETATM   23  C3  UNL     1      -2.860  -1.723  -1.401  1.00  0.00     0.010 C 
ENDBRANCH   9  21
ENDBRANCH   4   5
ENDBRANCH   1   4
TORSDOF 3
