REMARK  12 active torsions:
REMARK  status: ('A' for Active; 'I' for Inactive)
REMARK    1  A    between atoms: O1_1  and  N1_3 
REMARK    2  A    between atoms: C1_5  and  O2_6 
REMARK    3  A    between atoms: C1_5  and  C2_8 
REMARK    4  A    between atoms: C2_8  and  S1_9 
REMARK    5  A    between atoms: S1_9  and  C3_10 
REMARK    6  A    between atoms: C5_12  and  N2_13 
REMARK    7  A    between atoms: N2_13  and  C6_15 
REMARK    8  A    between atoms: C12_23  and  N4_24 
REMARK    9  A    between atoms: N4_24  and  C13_26 
REMARK   10  A    between atoms: C13_26  and  C14_27 
REMARK   11  A    between atoms: C14_27  and  C15_28 
REMARK   12  A    between atoms: C15_28  and  N5_29 
ROOT
HETATM    1  C3  UNL     1      -0.940   0.953  -1.107  1.00  0.00     0.090 A 
HETATM    2  C4  UNL     1      -2.063   0.371  -0.568  1.00  0.00     0.086 A 
HETATM    3  C5  UNL     1      -1.955  -0.728   0.275  1.00  0.00     0.119 A 
HETATM    4  N3  UNL     1      -0.736  -1.213   0.554  1.00  0.00    -0.177 N 
ATOM      5  H3  UNL     1      -0.651  -2.020   1.173  1.00  0.00     0.185 HD
HETATM    6  C12 UNL     1       0.394  -0.653   0.030  1.00  0.00     0.680 A 
HETATM    7  N6  UNL     1       0.254   0.405  -0.778  1.00  0.00    -0.186 N 
ATOM      8  H6  UNL     1       1.098   0.824  -1.170  1.00  0.00     0.185 HD
ENDROOT
BRANCH   6   9
HETATM    9  N4  UNL     1       1.539  -1.164   0.338  1.00  0.00    -0.226 N 
ATOM     10  H4  UNL     1       1.570  -1.970   0.963  1.00  0.00     0.177 HD
BRANCH   9  11
HETATM   11  C13 UNL     1       2.770  -0.631  -0.173  1.00  0.00     0.140 C 
BRANCH  11  12
HETATM   12  C14 UNL     1       3.177   0.565   0.688  1.00  0.00     0.050 C 
BRANCH  12  13
HETATM   13  C15 UNL     1       4.461   1.089   0.105  1.00  0.00     0.274 C 
BRANCH  13  14
HETATM   14  N5  UNL     1       5.489   0.067   0.146  1.00  0.00     0.092 N 
HETATM   15  C16 UNL     1       5.859  -0.181   1.483  1.00  0.00     0.298 C 
HETATM   16  C17 UNL     1       7.296  -0.248   1.835  1.00  0.00     0.198 C 
HETATM   17  O3  UNL     1       8.198   0.122   0.873  1.00  0.00    -0.388 OA
HETATM   18  C18 UNL     1       7.806  -0.223  -0.411  1.00  0.00     0.198 C 
HETATM   19  C19 UNL     1       6.498   0.397  -0.791  1.00  0.00     0.298 C 
ENDBRANCH  13  14
ENDBRANCH  12  13
ENDBRANCH  11  12
ENDBRANCH   9  11
ENDBRANCH   6   9
BRANCH   3  20
HETATM   20  N2  UNL     1      -2.976  -1.292   0.795  1.00  0.00    -0.371 N 
ATOM     21  H2  UNL     1      -2.836  -2.097   1.406  1.00  0.00     0.161 HD
BRANCH  20  22
HETATM   22  C6  UNL     1      -4.310  -0.834   0.551  1.00  0.00     0.083 C 
HETATM   23  C7  UNL     1      -4.907  -1.350  -0.738  1.00  0.00     0.025 C 
HETATM   24  C8  UNL     1      -5.189  -2.833  -0.695  1.00  0.00     0.002 C 
HETATM   25  C9  UNL     1      -5.868  -3.285   0.552  1.00  0.00     0.000 C 
HETATM   26  C10 UNL     1      -5.078  -2.804   1.760  1.00  0.00     0.002 C 
HETATM   27  C11 UNL     1      -5.151  -1.292   1.751  1.00  0.00     0.025 C 
ENDBRANCH  20  22
ENDBRANCH   3  20
BRANCH   1  28
HETATM   28  S1  UNL     1      -0.954   2.362  -2.174  1.00  0.00    -0.103 SA
BRANCH  28  29
HETATM   29  C2  UNL     1      -2.556   3.093  -2.439  1.00  0.00     0.166 C 
BRANCH  29  30
HETATM   30  C1  UNL     1      -3.036   3.736  -1.202  1.00  0.00     0.145 C 
HETATM   31  N1  UNL     1      -4.202   3.481  -0.751  1.00  0.00    -0.250 N 
ATOM     32  H1  UNL     1      -4.771   2.820  -1.280  1.00  0.00     0.196 HD
BRANCH  31  33
HETATM   33  O1  UNL     1      -4.749   4.010   0.367  1.00  0.00    -0.288 OA
ATOM     34  H1  UNL     1      -5.617   3.820   0.703  1.00  0.00     0.244 HD
ENDBRANCH  31  33
BRANCH  30  35
HETATM   35  O2  UNL     1      -2.212   4.619  -0.537  1.00  0.00    -0.348 OA
ATOM     36  H2  UNL     1      -1.344   4.809  -0.873  1.00  0.00     0.219 HD
ENDBRANCH  30  35
ENDBRANCH  29  30
ENDBRANCH  28  29
ENDBRANCH   1  28
TORSDOF 12
