REMARK  13 active torsions:
REMARK  status: ('A' for Active; 'I' for Inactive)
REMARK    1  A    between atoms: C2_2  and  O1_3 
REMARK    2  A    between atoms: C2_2  and  C15_32 
REMARK    3  A    between atoms: O1_3  and  C3_4 
REMARK       I    between atoms: C3_4  and  N1_6 
REMARK    4  A    between atoms: N5_19  and  C9_20 
REMARK    5  A    between atoms: C9_20  and  C12_24 
REMARK    6  A    between atoms: C12_24  and  N7_25 
REMARK    7  A    between atoms: C15_32  and  N10_33 
REMARK    8  A    between atoms: C15_32  and  O5_50 
REMARK    9  A    between atoms: N10_33  and  S1_35 
REMARK   10  A    between atoms: S1_35  and  C16_38 
REMARK   11  A    between atoms: C19_46  and  N13_47 
REMARK   12  A    between atoms: O5_50  and  C20_51 
REMARK   13  A    between atoms: C20_51  and  N15_55 
ROOT
HETATM    1  C9  UNL     1      -6.342   0.666  -0.626  1.00  0.00     0.142 C 
HETATM    2  C10 UNL     1      -7.572   0.403   0.220  1.00  0.00     0.058 C 
HETATM    3  C11 UNL     1      -6.480  -0.184  -1.836  1.00  0.00     0.093 C 
HETATM    4  N6  UNL     1      -6.569  -0.853  -2.785  1.00  0.00    -0.194 NA
ENDROOT
BRANCH   1   5
HETATM    5  N5  UNL     1      -5.159   0.236   0.078  1.00  0.00    -0.303 N 
HETATM    6  C6  UNL     1      -4.025  -0.271  -0.483  1.00  0.00     0.142 A 
HETATM    7  N3  UNL     1      -3.629  -0.533  -1.712  1.00  0.00    -0.336 N 
HETATM    8  C7  UNL     1      -3.178  -0.538   0.556  1.00  0.00     0.122 A 
HETATM    9  C5  UNL     1      -2.431  -1.049  -1.983  1.00  0.00     0.183 A 
ATOM     10  H3  UNL     1      -4.264  -0.333  -2.485  1.00  0.00     0.168 HD
HETATM   11  N2  UNL     1      -1.585  -1.318  -0.979  1.00  0.00    -0.336 N 
HETATM   12  C4  UNL     1      -1.914  -1.078   0.320  1.00  0.00     0.141 A 
ATOM     13  H2  UNL     1      -0.670  -1.713  -1.194  1.00  0.00     0.168 HD
HETATM   14  N1  UNL     1      -1.144  -1.327   1.285  1.00  0.00    -0.286 N 
HETATM   15  C3  UNL     1       0.144  -1.871   1.271  1.00  0.00     0.366 C 
ATOM     16  H1  UNL     1      -1.513  -1.099   2.208  1.00  0.00     0.172 HD
HETATM   17  O2  UNL     1       0.243  -3.120   1.058  1.00  0.00    -0.238 OA
HETATM   18  N4  UNL     1      -3.759  -0.210   1.728  1.00  0.00    -0.346 N 
HETATM   19  C8  UNL     1      -4.976   0.264   1.405  1.00  0.00     0.187 A 
ATOM     20  H4  UNL     1      -3.360  -0.302   2.662  1.00  0.00     0.167 HD
BRANCH  15  21
HETATM   21  O1  UNL     1       1.319  -1.123   1.479  1.00  0.00    -0.294 OA
BRANCH  21  22
HETATM   22  C2  UNL     1       2.564  -1.776   1.459  1.00  0.00     0.179 C 
HETATM   23  C1  UNL     1       3.035  -1.765   2.927  1.00  0.00     0.045 C 
BRANCH  22  24
HETATM   24  C15 UNL     1       3.579  -1.142   0.567  1.00  0.00     0.270 C 
BRANCH  24  25
HETATM   25  N10 UNL     1       4.841  -1.823   0.582  1.00  0.00    -0.284 N 
ATOM     26  H10 UNL     1       4.937  -2.797   0.295  1.00  0.00     0.175 HD
BRANCH  25  27
HETATM   27  S1  UNL     1       6.168  -0.897   1.110  1.00  0.00     0.280 S 
HETATM   28  O3  UNL     1       5.981  -0.414   2.525  1.00  0.00    -0.199 OA
HETATM   29  O4  UNL     1       7.436  -1.739   1.012  1.00  0.00    -0.199 OA
BRANCH  27  30
HETATM   30  C16 UNL     1       6.410   0.451   0.044  1.00  0.00     0.194 A 
HETATM   31  N11 UNL     1       5.819   1.619   0.321  1.00  0.00    -0.332 N 
HETATM   32  C17 UNL     1       5.995   2.694  -0.472  1.00  0.00     0.120 A 
ATOM     33  H11 UNL     1       5.225   1.697   1.147  1.00  0.00     0.168 HD
HETATM   34 CL1  UNL     1       5.170   4.181  -0.014  1.00  0.00    -0.063 Cl
HETATM   35  C18 UNL     1       6.785   2.617  -1.586  1.00  0.00     0.132 A 
HETATM   36  N12 UNL     1       7.379   1.446  -1.866  1.00  0.00    -0.347 N 
HETATM   37  C19 UNL     1       7.205   0.375  -1.076  1.00  0.00     0.139 A 
ATOM     38  H12 UNL     1       7.972   1.369  -2.692  1.00  0.00     0.167 HD
BRANCH  37  39
HETATM   39  N13 UNL     1       7.760  -0.767  -1.333  1.00  0.00    -0.383 N 
ATOM     40 2H13 UNL     1       7.628  -1.581  -0.733  1.00  0.00     0.157 HD
ATOM     41 1H13 UNL     1       8.349  -0.823  -2.163  1.00  0.00     0.157 HD
ENDBRANCH  37  39
ENDBRANCH  27  30
ENDBRANCH  25  27
ENDBRANCH  24  25
BRANCH  24  42
HETATM   42  O5  UNL     1       3.102  -1.066  -0.743  1.00  0.00    -0.292 OA
BRANCH  42  43
HETATM   43  C20 UNL     1       2.722  -2.125  -1.541  1.00  0.00     0.229 C 
HETATM   44  N14 UNL     1       2.971  -3.323  -1.152  1.00  0.00    -0.364 N 
ATOM     45 2H14 UNL     1       3.443  -3.457  -0.258  1.00  0.00     0.159 HD
ATOM     46 1H14 UNL     1       2.690  -4.106  -1.742  1.00  0.00     0.159 HD
BRANCH  43  47
HETATM   47  N15 UNL     1       2.062  -1.938  -2.792  1.00  0.00    -0.264 N 
HETATM   48 CL2  UNL     1       2.879  -2.424  -4.237  1.00  0.00     0.014 Cl
ATOM     49  H15 UNL     1       1.129  -1.527  -2.833  1.00  0.00     0.184 HD
ENDBRANCH  43  47
ENDBRANCH  42  43
ENDBRANCH  24  42
ENDBRANCH  22  24
ENDBRANCH  21  22
ENDBRANCH  15  21
ENDBRANCH   1   5
BRANCH   1  50
HETATM   50  C12 UNL     1      -6.258   2.104  -1.095  1.00  0.00     0.196 C 
BRANCH  50  51
HETATM   51  N7  UNL     1      -6.068   3.024  -0.009  1.00  0.00    -0.283 N 
HETATM   52  C13 UNL     1      -4.826   3.385   0.416  1.00  0.00     0.201 A 
HETATM   53  N8  UNL     1      -4.957   4.238   1.445  1.00  0.00    -0.346 N 
HETATM   54  C14 UNL     1      -6.264   4.421   1.675  1.00  0.00     0.198 A 
ATOM     55  H8  UNL     1      -4.193   4.672   1.963  1.00  0.00     0.167 HD
HETATM   56  N9  UNL     1      -6.904   3.668   0.772  1.00  0.00    -0.293 N 
ATOM     57  H9  UNL     1      -7.919   3.602   0.699  1.00  0.00     0.188 HD
ENDBRANCH  50  51
ENDBRANCH   1  50
TORSDOF 13
