REMARK  6 active torsions:
REMARK  status: ('A' for Active; 'I' for Inactive)
REMARK    1  A    between atoms: O1_1  and  C1_3 
REMARK    2  A    between atoms: C4_6  and  C5_7 
REMARK    3  A    between atoms: C5_7  and  C6_8 
REMARK    4  A    between atoms: C6_8  and  C7_9 
REMARK    5  A    between atoms: C7_9  and  N1_10 
REMARK    6  A    between atoms: C11_14  and  C12_15 
ROOT
HETATM    1  N1  UNL     1       0.880  -0.256   1.665  1.00  0.00    -0.366 N 
HETATM    2  C8  UNL     1       1.138   0.690   2.590  1.00  0.00     0.090 A 
HETATM    3  C9  UNL     1       2.311   1.423   2.570  1.00  0.00     0.018 A 
HETATM    4  C10 UNL     1       3.224   1.151   1.558  1.00  0.00     0.015 A 
HETATM    5  C11 UNL     1       2.980   0.188   0.601  1.00  0.00    -0.010 A 
HETATM    6  C18 UNL     1       1.773  -0.500   0.700  1.00  0.00     0.102 A 
ENDROOT
BRANCH   1   7
HETATM    7  C7  UNL     1      -0.368  -0.990   1.741  1.00  0.00     0.128 C 
BRANCH   7   8
HETATM    8  C6  UNL     1      -1.455  -0.284   0.945  1.00  0.00     0.025 C 
BRANCH   8   9
HETATM    9  C5  UNL     1      -2.752  -1.074   1.043  1.00  0.00     0.040 C 
BRANCH   9  10
HETATM   10  C4  UNL     1      -3.830  -0.404   0.273  1.00  0.00    -0.058 A 
HETATM   11  C3  UNL     1      -4.641   0.535   0.878  1.00  0.00     0.010 A 
HETATM   12  C2  UNL     1      -5.660   1.181   0.182  1.00  0.00     0.037 A 
HETATM   13  C1  UNL     1      -5.891   0.899  -1.143  1.00  0.00     0.065 A 
HETATM   14  C20 UNL     1      -5.068  -0.044  -1.730  1.00  0.00     0.037 A 
HETATM   15  C19 UNL     1      -4.062  -0.686  -1.057  1.00  0.00     0.010 A 
BRANCH  13  16
HETATM   16  O1  UNL     1      -6.906   1.531  -1.865  1.00  0.00    -0.361 OA
ATOM     17  H1  UNL     1      -7.066   1.336  -2.781  1.00  0.00     0.217 HD
ENDBRANCH  13  16
ENDBRANCH   9  10
ENDBRANCH   8   9
ENDBRANCH   7   8
ENDBRANCH   1   7
BRANCH   5  18
HETATM   18  C12 UNL     1       3.934  -0.103  -0.465  1.00  0.00    -0.025 A 
HETATM   19  C13 UNL     1       4.083  -1.354  -1.030  1.00  0.00     0.012 A 
HETATM   20  C14 UNL     1       4.994  -1.599  -2.038  1.00  0.00     0.001 A 
HETATM   21  C15 UNL     1       5.799  -0.586  -2.521  1.00  0.00     0.000 A 
HETATM   22  C16 UNL     1       5.658   0.660  -1.966  1.00  0.00     0.001 A 
HETATM   23  C17 UNL     1       4.748   0.905  -0.959  1.00  0.00     0.012 A 
ENDBRANCH   5  18
TORSDOF 6
