REMARK  5 active torsions:
REMARK  status: ('A' for Active; 'I' for Inactive)
REMARK    1  A    between atoms: C3_3  and  C4_4 
REMARK    2  A    between atoms: C5_5  and  C6_6 
REMARK    3  A    between atoms: C13_15  and  C14_16 
REMARK    4  A    between atoms: C14_16  and  C15_17 
REMARK    5  A    between atoms: C15_17  and  C16_18 
ROOT
HETATM    1  C1  UNL     1       0.784  -0.135   3.193  1.00  0.00     0.012 C 
HETATM    2  C2  UNL     1       0.852  -0.644   2.105  1.00  0.00    -0.113 C 
HETATM    3  C3  UNL     1       0.911  -1.237   0.800  1.00  0.00     0.134 C 
ENDROOT
BRANCH   3   4
HETATM    4  C4  UNL     1       1.004  -0.306  -0.328  1.00  0.00    -0.012 A 
HETATM    5  C5  UNL     1       2.133   0.339  -0.770  1.00  0.00    -0.001 A 
HETATM    6  C12 UNL     1       1.715   1.070  -1.890  1.00  0.00     0.101 A 
HETATM    7  N1  UNL     1       0.422   0.858  -2.084  1.00  0.00    -0.368 N 
HETATM    8  C13 UNL     1      -0.073   0.018  -1.152  1.00  0.00     0.017 A 
ATOM      9  H1  UNL     1      -0.126   1.274  -2.837  1.00  0.00     0.165 HD
BRANCH   5  10
HETATM   10  C6  UNL     1       3.508   0.378  -0.331  1.00  0.00    -0.024 A 
HETATM   11  C7  UNL     1       3.946   0.732   0.908  1.00  0.00     0.012 A 
HETATM   12  C8  UNL     1       5.312   0.722   1.248  1.00  0.00     0.001 A 
HETATM   13  C9  UNL     1       6.250   0.349   0.321  1.00  0.00     0.000 A 
HETATM   14  C10 UNL     1       5.838  -0.011  -0.932  1.00  0.00     0.001 A 
HETATM   15  C11 UNL     1       4.502   0.002  -1.254  1.00  0.00     0.012 A 
ENDBRANCH   5  10
BRANCH   8  16
HETATM   16  C14 UNL     1      -1.499  -0.415  -1.064  1.00  0.00     0.062 C 
BRANCH  16  17
HETATM   17  C15 UNL     1      -2.234   0.418  -0.075  1.00  0.00     0.044 C 
BRANCH  17  18
HETATM   18  C16 UNL     1      -3.650   0.057   0.093  1.00  0.00    -0.058 A 
HETATM   19  C17 UNL     1      -4.054  -0.854   1.041  1.00  0.00     0.007 A 
HETATM   20  C18 UNL     1      -5.411  -1.170   1.173  1.00  0.00     0.001 A 
HETATM   21  C19 UNL     1      -6.353  -0.575   0.362  1.00  0.00     0.000 A 
HETATM   22  C20 UNL     1      -5.966   0.334  -0.586  1.00  0.00     0.001 A 
HETATM   23  C21 UNL     1      -4.611   0.636  -0.704  1.00  0.00     0.007 A 
ENDBRANCH  17  18
ENDBRANCH  16  17
ENDBRANCH   8  16
ENDBRANCH   3   4
TORSDOF 5
