REMARK  5 active torsions:
REMARK  status: ('A' for Active; 'I' for Inactive)
REMARK    1  A    between atoms: C2_2  and  C3_3 
REMARK    2  A    between atoms: C6_6  and  N1_7 
REMARK    3  A    between atoms: N1_7  and  C7_9 
REMARK    4  A    between atoms: C7_9  and  C8_10 
REMARK    5  A    between atoms: C7_9  and  C14_16 
ROOT
HETATM    1  C7  UNL     1      -0.843   0.610  -0.720  1.00  0.00     0.148 C 
ENDROOT
BRANCH   1   2
HETATM    2  N1  UNL     1       0.231   1.022   0.136  1.00  0.00    -0.377 N 
ATOM      3  H1  UNL     1       0.096   1.849   0.718  1.00  0.00     0.160 HD
BRANCH   2   4
HETATM    4  C6  UNL     1       1.469   0.339   0.214  1.00  0.00     0.028 A 
HETATM    5  C5  UNL     1       2.366   0.655   1.241  1.00  0.00     0.030 A 
HETATM    6  C4  UNL     1       3.578   0.021   1.332  1.00  0.00     0.013 A 
HETATM    7  C3  UNL     1       4.003  -0.945   0.455  1.00  0.00    -0.037 A 
HETATM    8  C21 UNL     1       3.103  -1.263  -0.577  1.00  0.00     0.013 A 
HETATM    9  C20 UNL     1       1.889  -0.626  -0.667  1.00  0.00     0.030 A 
BRANCH   7  10
HETATM   10  C2  UNL     1       5.280  -1.637   0.522  1.00  0.00     0.001 C 
HETATM   11  C1  UNL     1       6.148  -1.381   1.455  1.00  0.00     0.012 C 
ENDBRANCH   7  10
ENDBRANCH   2   4
ENDBRANCH   1   2
BRANCH   1  12
HETATM   12  C8  UNL     1      -1.395  -0.685  -0.275  1.00  0.00    -0.031 A 
HETATM   13  C9  UNL     1      -1.750  -1.657  -1.167  1.00  0.00     0.009 A 
HETATM   14  C10 UNL     1      -2.268  -2.877  -0.793  1.00  0.00     0.001 A 
HETATM   15  C11 UNL     1      -2.448  -3.158   0.538  1.00  0.00     0.000 A 
HETATM   16  C12 UNL     1      -2.095  -2.187   1.462  1.00  0.00     0.001 A 
HETATM   17  C13 UNL     1      -1.572  -0.956   1.068  1.00  0.00     0.009 A 
ENDBRANCH   1  12
BRANCH   1  18
HETATM   18  C14 UNL     1      -1.908   1.649  -0.786  1.00  0.00    -0.031 A 
HETATM   19  C15 UNL     1      -3.223   1.268  -0.672  1.00  0.00     0.009 A 
HETATM   20  C16 UNL     1      -4.250   2.216  -0.731  1.00  0.00     0.001 A 
HETATM   21  C17 UNL     1      -3.953   3.533  -0.902  1.00  0.00     0.000 A 
HETATM   22  C18 UNL     1      -2.643   3.930  -1.017  1.00  0.00     0.001 A 
HETATM   23  C19 UNL     1      -1.631   2.987  -0.959  1.00  0.00     0.009 A 
ENDBRANCH   1  18
TORSDOF 5
