REMARK  5 active torsions:
REMARK  status: ('A' for Active; 'I' for Inactive)
REMARK    1  A    between atoms: C2_2  and  N1_3 
REMARK       I    between atoms: C3_5  and  N2_6 
REMARK       I    between atoms: C3_5  and  N4_18 
REMARK    2  A    between atoms: N2_6  and  C4_8 
REMARK    3  A    between atoms: C4_8  and  C5_9 
REMARK    4  A    between atoms: C5_9  and  C6_10 
REMARK    5  A    between atoms: C6_10  and  C7_11 
REMARK       I    between atoms: N4_18  and  C13_20 
REMARK       I    between atoms: C13_20  and  N6_24 
ROOT
HETATM    1  N1  UNL     1       0.887  -2.475  -0.999  1.00  0.00    -0.226 N 
ATOM      2  H1  UNL     1       0.093  -2.900  -0.520  1.00  0.00     0.177 HD
HETATM    3  C3  UNL     1       1.207  -1.273  -0.640  1.00  0.00     0.688 C 
HETATM    4  N2  UNL     1       0.359  -0.739   0.401  1.00  0.00    -0.226 N 
ATOM      5  H2  UNL     1       0.168  -1.263   1.255  1.00  0.00     0.177 HD
HETATM    6  N4  UNL     1       2.270  -0.525  -1.191  1.00  0.00    -0.023 N 
ATOM      7  H4  UNL     1       2.166  -0.074  -2.100  1.00  0.00     0.203 HD
HETATM    8  C13 UNL     1       3.479  -0.407  -0.471  1.00  0.00     0.688 C 
HETATM    9  N5  UNL     1       3.983  -1.490   0.043  1.00  0.00    -0.234 N 
ATOM     10  H51 UNL     1       4.856  -1.405   0.563  1.00  0.00     0.174 HD
ATOM     11  H52 UNL     1       3.498  -2.378  -0.085  1.00  0.00     0.174 HD
HETATM   12  N6  UNL     1       4.152   0.824  -0.294  1.00  0.00    -0.218 N 
HETATM   13  C14 UNL     1       4.276   1.888  -1.290  1.00  0.00     0.141 C 
HETATM   14  C15 UNL     1       5.715   2.325  -1.061  1.00  0.00     0.022 C 
HETATM   15  C16 UNL     1       5.787   2.377   0.448  1.00  0.00     0.022 C 
HETATM   16  C17 UNL     1       4.845   1.294   0.880  1.00  0.00     0.141 C 
ENDROOT
BRANCH   1  17
HETATM   17  C2  UNL     1       1.531  -3.265  -1.996  1.00  0.00     0.133 C 
HETATM   18  C1  UNL     1       1.681  -4.690  -1.444  1.00  0.00     0.027 C 
ENDBRANCH   1  17
BRANCH   4  19
HETATM   19  C4  UNL     1      -0.212   0.586   0.174  1.00  0.00     0.138 C 
BRANCH  19  20
HETATM   20  C5  UNL     1      -1.153   0.932   1.311  1.00  0.00     0.022 C 
BRANCH  20  21
HETATM   21  C6  UNL     1      -2.281  -0.054   1.418  1.00  0.00     0.035 C 
BRANCH  21  22
HETATM   22  C7  UNL     1      -3.158  -0.197   0.232  1.00  0.00     0.189 C 
HETATM   23  C8  UNL     1      -4.185  -1.303   0.624  1.00  0.00     0.035 C 
HETATM   24  C9  UNL     1      -5.156  -0.540   1.459  1.00  0.00     0.030 C 
HETATM   25  C10 UNL     1      -5.010   0.911   1.021  1.00  0.00     0.237 C 
HETATM   26  N3  UNL     1      -4.050   0.850  -0.085  1.00  0.00    -0.070 N 
HETATM   27  C11 UNL     1      -3.569   2.153  -0.331  1.00  0.00     0.272 C 
HETATM   28  C12 UNL     1      -4.784   0.455  -1.312  1.00  0.00     0.272 C 
ENDBRANCH  21  22
ENDBRANCH  20  21
ENDBRANCH  19  20
ENDBRANCH   4  19
TORSDOF 5
