REMARK  5 active torsions:
REMARK  status: ('A' for Active; 'I' for Inactive)
REMARK    1  A    between atoms: C2_2  and  C3_4 
REMARK    2  A    between atoms: C5_6  and  O2_7 
REMARK    3  A    between atoms: C19_23  and  O4_24 
REMARK    4  A    between atoms: C32_40  and  C33_41 
REMARK    5  A    between atoms: C33_41  and  N1_42 
REMARK       I    between atoms: N1_42  and  C34_43 
ROOT
HETATM    1  C3  UNL     1      -1.433  -1.718  -0.699  1.00  0.00     0.062 C 
HETATM    2  C4  UNL     1      -2.761  -1.234  -0.391  1.00  0.00     0.059 C 
HETATM    3  C5  UNL     1      -3.000  -0.211   0.716  1.00  0.00     0.074 C 
HETATM    4  C6  UNL     1      -4.392   0.310   0.653  1.00  0.00    -0.016 C 
HETATM    5  C7  UNL     1      -5.409  -0.623   1.382  1.00  0.00     0.018 C 
HETATM    6  C8  UNL     1      -5.081   0.417  -0.674  1.00  0.00     0.018 C 
HETATM    7  C9  UNL     1      -4.611   1.637   1.326  1.00  0.00     0.012 C 
HETATM    8  C10 UNL     1      -3.580   2.651   1.034  1.00  0.00     0.002 C 
HETATM    9  C11 UNL     1      -2.260   2.143   0.498  1.00  0.00     0.013 C 
HETATM   10  C12 UNL     1      -1.903   0.785   1.008  1.00  0.00    -0.000 C 
HETATM   11  C13 UNL     1      -1.823   1.115   2.520  1.00  0.00     0.019 C 
HETATM   12  C14 UNL     1      -0.562   0.236   0.747  1.00  0.00     0.006 C 
HETATM   13  C15 UNL     1      -0.106  -0.559   1.961  1.00  0.00     0.022 C 
HETATM   14  C16 UNL     1       0.568   1.197   0.420  1.00  0.00     0.010 C 
HETATM   15  C17 UNL     1       0.476   1.768  -0.921  1.00  0.00     0.178 C 
HETATM   16  O3  UNL     1       0.724   2.945  -1.169  1.00  0.00    -0.288 OA
HETATM   17  C18 UNL     1       0.061   0.974  -2.152  1.00  0.00     0.069 C 
HETATM   18  C19 UNL     1      -0.762  -0.122  -1.792  1.00  0.00     0.115 C 
HETATM   19  C20 UNL     1      -0.546  -0.609  -0.414  1.00  0.00     0.058 C 
HETATM   20  C21 UNL     1      -0.707  -1.568  -2.026  1.00  0.00     0.147 C 
HETATM   21 CL1  UNL     1      -1.712  -2.228  -3.397  1.00  0.00    -0.106 Cl
HETATM   22  C22 UNL     1       0.580  -2.201  -2.202  1.00  0.00     0.155 C 
HETATM   23  O5  UNL     1       0.659  -3.397  -1.852  1.00  0.00    -0.296 OA
HETATM   24  C23 UNL     1       1.881  -1.737  -2.729  1.00  0.00     0.086 C 
HETATM   25  C24 UNL     1       3.038  -1.583  -1.838  1.00  0.00     0.001 C 
HETATM   26  C25 UNL     1       4.323  -2.019  -2.496  1.00  0.00    -0.014 C 
HETATM   27  C26 UNL     1       5.175  -2.870  -1.603  1.00  0.00     0.010 C 
HETATM   28  C27 UNL     1       4.992  -0.687  -2.760  1.00  0.00     0.005 C 
HETATM   29  C28 UNL     1       4.854  -0.135  -1.340  1.00  0.00     0.006 C 
HETATM   30  C29 UNL     1       3.302  -0.212  -1.206  1.00  0.00    -0.002 C 
HETATM   31  C30 UNL     1       2.863  -0.088   0.194  1.00  0.00     0.022 C 
HETATM   32  C31 UNL     1       4.138  -0.034   1.074  1.00  0.00     0.015 C 
HETATM   33  C32 UNL     1       1.944   0.871   0.774  1.00  0.00    -0.014 C 
ENDROOT
BRANCH  33  34
HETATM   34  C33 UNL     1       2.642   2.231   1.117  1.00  0.00     0.196 C 
BRANCH  34  35
HETATM   35  N1  UNL     1       2.085   2.968   2.128  1.00  0.00    -0.367 NA
HETATM   36  C34 UNL     1       1.527   3.706   3.142  1.00  0.00     0.405 C 
HETATM   37  N2  UNL     1       1.030   5.059   2.861  1.00  0.00    -0.025 NA
HETATM   38  O6  UNL     1       1.345   3.420   4.375  1.00  0.00    -0.234 OA
ENDBRANCH  34  35
ENDBRANCH  33  34
BRANCH   3  39
HETATM   39  O2  UNL     1      -3.112  -0.896   1.985  1.00  0.00    -0.388 OA
ATOM     40  H2  UNL     1      -3.261  -0.259   2.674  1.00  0.00     0.210 HD
ENDBRANCH   3  39
BRANCH   1  41
HETATM   41  C2  UNL     1      -1.209  -3.069  -0.189  1.00  0.00     0.134 C 
HETATM   42  C1  UNL     1      -2.128  -4.141  -0.751  1.00  0.00     0.091 C 
HETATM   43  O1  UNL     1      -0.441  -3.519   0.600  1.00  0.00    -0.297 OA
ENDBRANCH   1  41
BRANCH  18  44
HETATM   44  O4  UNL     1      -1.973   0.122  -2.377  1.00  0.00    -0.383 OA
ATOM     45  H4  UNL     1      -2.525  -0.613  -2.136  1.00  0.00     0.211 HD
ENDBRANCH  18  44
TORSDOF 5
