REMARK  12 active torsions:
REMARK  status: ('A' for Active; 'I' for Inactive)
REMARK    1  A    between atoms: N1_1  and  C1_4 
REMARK    2  A    between atoms: C1_4  and  O1_5 
REMARK    3  A    between atoms: C1_4  and  C12_36 
REMARK    4  A    between atoms: O1_5  and  C2_6 
REMARK    5  A    between atoms: C2_6  and  C3_7 
REMARK    6  A    between atoms: C3_7  and  O2_8 
REMARK    7  A    between atoms: C4_11  and  C5_12 
REMARK    8  A    between atoms: C5_12  and  O4_13 
REMARK    9  A    between atoms: C6_16  and  N2_17 
REMARK   10  A    between atoms: C9_22  and  N4_23 
REMARK   11  A    between atoms: C10_28  and  N6_29 
REMARK   12  A    between atoms: C13_40  and  N11_41 
ROOT
HETATM    1  C3  UNL     1       0.383  -0.861   0.477  1.00  0.00     0.309 C 
HETATM    2  O3  UNL     1       0.442   0.286   1.225  1.00  0.00    -0.298 OA
HETATM    3  C4  UNL     1      -0.712   0.667   1.851  1.00  0.00     0.294 C 
HETATM    4  O5  UNL     1      -1.878   0.485   1.163  1.00  0.00    -0.311 OA
HETATM    5  C6  UNL     1      -1.811  -0.278   0.029  1.00  0.00     0.387 C 
HETATM    6  O6  UNL     1      -0.892  -1.304   0.230  1.00  0.00    -0.281 OA
ENDROOT
BRANCH   1   7
HETATM    7  C2  UNL     1       1.064  -0.616  -0.875  1.00  0.00     0.279 C 
BRANCH   7   8
HETATM    8  O1  UNL     1       2.402  -0.214  -0.686  1.00  0.00    -0.328 OA
BRANCH   8   9
HETATM    9  C1  UNL     1       3.188   0.056  -1.785  1.00  0.00     0.159 C 
BRANCH   9  10
HETATM   10  N1  UNL     1       2.635   0.015  -2.950  1.00  0.00    -0.380 N 
ATOM     11  H12 UNL     1       1.644  -0.211  -3.035  1.00  0.00     0.158 HD
ATOM     12  H11 UNL     1       3.217   0.215  -3.764  1.00  0.00     0.158 HD
ENDBRANCH   9  10
BRANCH   9  13
HETATM   13  C12 UNL     1       4.637   0.387  -1.661  1.00  0.00     0.309 C 
HETATM   14  N8  UNL     1       4.738   1.576  -0.853  1.00  0.00    -0.089 NA
HETATM   15  N9  UNL     1       6.041   1.997  -0.639  1.00  0.00    -0.033 NA
HETATM   16  N10 UNL     1       6.953   0.951  -0.632  1.00  0.00    -0.070 NA
HETATM   17  C13 UNL     1       6.367  -0.313  -0.288  1.00  0.00     0.435 C 
HETATM   18  O7  UNL     1       5.331  -0.690  -1.133  1.00  0.00    -0.315 OA
BRANCH  17  19
HETATM   19  N11 UNL     1       5.850  -0.313   1.068  1.00  0.00    -0.037 N 
ATOM     20 3H11 UNL     1       6.568  -0.040   1.740  1.00  0.00     0.279 HD
ATOM     21 2H11 UNL     1       5.194   0.454   1.216  1.00  0.00     0.279 HD
ATOM     22 1H11 UNL     1       5.433  -1.211   1.313  1.00  0.00     0.279 HD
ENDBRANCH  17  19
ENDBRANCH   9  13
ENDBRANCH   8   9
ENDBRANCH   7   8
ENDBRANCH   1   7
BRANCH   1  23
HETATM   23  O2  UNL     1       1.081  -1.878   1.169  1.00  0.00    -0.341 OA
ATOM     24  H2  UNL     1       0.659  -2.030   2.007  1.00  0.00     0.215 HD
ENDBRANCH   1  23
BRANCH   3  25
HETATM   25  C5  UNL     1      -0.847   0.055   3.243  1.00  0.00     0.225 C 
BRANCH  25  26
HETATM   26  O4  UNL     1      -0.861  -1.317   3.230  1.00  0.00    -0.396 OA
ATOM     27  H4  UNL     1      -0.945  -1.698   4.096  1.00  0.00     0.209 HD
ENDBRANCH  25  26
ENDBRANCH   3  25
BRANCH   5  28
HETATM   28  N2  UNL     1      -3.093  -0.937  -0.247  1.00  0.00    -0.276 N 
HETATM   29  C7  UNL     1      -3.331  -2.213  -0.566  1.00  0.00     0.190 A 
HETATM   30  N3  UNL     1      -4.650  -2.421  -0.742  1.00  0.00    -0.346 N 
HETATM   31  C8  UNL     1      -5.296  -1.247  -0.532  1.00  0.00     0.123 A 
ATOM     32  H3  UNL     1      -5.088  -3.308  -0.990  1.00  0.00     0.167 HD
HETATM   33  C9  UNL     1      -6.625  -0.881  -0.576  1.00  0.00     0.145 A 
HETATM   34  C11 UNL     1      -4.303  -0.329  -0.224  1.00  0.00     0.158 A 
HETATM   35  N5  UNL     1      -6.921   0.402  -0.308  1.00  0.00    -0.175 N 
HETATM   36  C10 UNL     1      -5.931   1.287  -0.007  1.00  0.00     0.679 A 
ATOM     37  H5  UNL     1      -7.892   0.714  -0.330  1.00  0.00     0.186 HD
HETATM   38  N7  UNL     1      -4.651   0.951   0.039  1.00  0.00    -0.174 N 
ATOM     39  H7  UNL     1      -3.940   1.645   0.269  1.00  0.00     0.186 HD
BRANCH  33  40
HETATM   40  N4  UNL     1      -7.552  -1.738  -0.864  1.00  0.00    -0.383 N 
ATOM     41  H42 UNL     1      -7.327  -2.712  -1.067  1.00  0.00     0.157 HD
ATOM     42  H41 UNL     1      -8.535  -1.467  -0.897  1.00  0.00     0.157 HD
ENDBRANCH  33  40
BRANCH  36  43
HETATM   43  N6  UNL     1      -6.252   2.521   0.248  1.00  0.00    -0.234 N 
ATOM     44  H62 UNL     1      -7.238   2.780   0.213  1.00  0.00     0.174 HD
ATOM     45  H61 UNL     1      -5.510   3.184   0.473  1.00  0.00     0.174 HD
ENDBRANCH  36  43
ENDBRANCH   5  28
TORSDOF 12
