REMARK  4 active torsions:
REMARK  status: ('A' for Active; 'I' for Inactive)
REMARK    1  A    between atoms: C2_2  and  C4_4 
REMARK    2  A    between atoms: C4_4  and  C5_8 
REMARK    3  A    between atoms: C5_8  and  N2_9 
REMARK    4  A    between atoms: C5_8  and  C6_13 
ROOT
HETATM    1  C5  UNL     1       1.071   0.064   0.982  1.00  0.00     0.237 C 
ENDROOT
BRANCH   1   2
HETATM    2  C4  UNL     1       2.169  -0.592   0.335  1.00  0.00     0.015 C 
HETATM    3  N1  UNL     1       2.809  -1.470   1.038  1.00  0.00    -0.404 N 
ATOM      4  H12 UNL     1       3.590  -1.937   0.578  1.00  0.00     0.155 HD
ATOM      5  H11 UNL     1       2.450  -1.589   1.985  1.00  0.00     0.155 HD
BRANCH   2   6
HETATM    6  C2  UNL     1       2.690  -0.420  -1.039  1.00  0.00     0.025 C 
HETATM    7  C1  UNL     1       3.125   1.036  -1.277  1.00  0.00     0.016 C 
HETATM    8  C3  UNL     1       3.969  -1.221  -1.233  1.00  0.00     0.016 C 
ENDBRANCH   2   6
ENDBRANCH   1   2
BRANCH   1   9
HETATM    9  N2  UNL     1       1.325   1.510   1.176  1.00  0.00    -0.069 N 
ATOM     10  H23 UNL     1       2.199   1.668   1.678  1.00  0.00     0.275 HD
ATOM     11  H22 UNL     1       1.561   1.966   0.295  1.00  0.00     0.275 HD
ATOM     12  H21 UNL     1       0.544   1.977   1.636  1.00  0.00     0.275 HD
ENDBRANCH   1   9
BRANCH   1  13
HETATM   13  C6  UNL     1      -0.317  -0.041   0.467  1.00  0.00    -0.006 C 
HETATM   14  C7  UNL     1      -0.569   0.457  -0.912  1.00  0.00     0.016 C 
HETATM   15  C8  UNL     1      -2.079   0.583  -1.156  1.00  0.00    -0.013 C 
HETATM   16  C9  UNL     1      -2.596  -0.846  -1.102  1.00  0.00     0.009 C 
HETATM   17  C13 UNL     1      -2.757   1.478  -0.180  1.00  0.00     0.009 C 
HETATM   18  C10 UNL     1      -2.384  -1.399   0.300  1.00  0.00    -0.013 C 
HETATM   19  C11 UNL     1      -3.182  -0.496   1.233  1.00  0.00     0.009 C 
HETATM   20  C15 UNL     1      -0.935  -1.404   0.658  1.00  0.00     0.016 C 
HETATM   21  C12 UNL     1      -2.557   0.855   1.193  1.00  0.00    -0.013 C 
HETATM   22  C14 UNL     1      -1.080   0.874   1.438  1.00  0.00     0.016 C 
ENDBRANCH   1  13
TORSDOF 4
