REMARK  11 active torsions:
REMARK  status: ('A' for Active; 'I' for Inactive)
REMARK    1  A    between atoms: C2_2  and  C4_4 
REMARK    2  A    between atoms: C5_5  and  O1_6 
REMARK    3  A    between atoms: C7_10  and  C8_11 
REMARK    4  A    between atoms: C8_11  and  C9_12 
REMARK    5  A    between atoms: C16_24  and  C17_25 
REMARK    6  A    between atoms: C17_25  and  C18_26 
REMARK    7  A    between atoms: C18_26  and  C19_27 
REMARK    8  A    between atoms: C19_27  and  N3_28 
REMARK    9  A    between atoms: C21_33  and  O3_34 
REMARK   10  A    between atoms: N6_36  and  C22_37 
REMARK   11  A    between atoms: C22_37  and  N7_39 
ROOT
HETATM    1  C4  UNL     1      -1.541  -1.601  -0.169  1.00  0.00     0.171 C 
HETATM    2  C5  UNL     1      -1.879  -0.579  -1.116  1.00  0.00     0.138 C 
HETATM    3  N1  UNL     1      -2.376   0.738  -1.039  1.00  0.00    -0.354 N 
HETATM    4  C6  UNL     1      -3.669   1.005  -1.739  1.00  0.00     0.152 C 
HETATM    5  C7  UNL     1      -1.776   1.892  -0.407  1.00  0.00     0.182 C 
HETATM    6  C15 UNL     1      -0.415   2.172  -0.982  1.00  0.00     0.241 C 
HETATM    7  O2  UNL     1      -0.113   3.281  -1.534  1.00  0.00    -0.271 OA
HETATM    8  N2  UNL     1       0.619   1.198  -0.943  1.00  0.00    -0.347 N 
ATOM      9  H2  UNL     1       1.005   0.913  -1.843  1.00  0.00     0.163 HD
HETATM   10  C16 UNL     1       1.180   0.572   0.214  1.00  0.00     0.159 C 
HETATM   11  C21 UNL     1       0.819  -0.804   0.406  1.00  0.00     0.144 C 
HETATM   12  N6  UNL     1      -0.385  -1.485   0.722  1.00  0.00    -0.292 N 
ENDROOT
BRANCH   5  13
HETATM   13  C8  UNL     1      -1.856   1.981   1.068  1.00  0.00     0.073 C 
BRANCH  13  14
HETATM   14  C9  UNL     1      -3.281   2.019   1.561  1.00  0.00    -0.052 A 
HETATM   15  C10 UNL     1      -3.896   3.259   1.653  1.00  0.00     0.031 A 
HETATM   16  C11 UNL     1      -5.194   3.321   2.112  1.00  0.00     0.036 A 
HETATM   17 CL1  UNL     1      -5.996   4.895   2.237  1.00  0.00    -0.084 Cl
HETATM   18  C12 UNL     1      -5.856   2.165   2.468  1.00  0.00     0.047 A 
HETATM   19  C13 UNL     1      -5.259   0.930   2.381  1.00  0.00     0.036 A 
HETATM   20 CL2  UNL     1      -6.121  -0.546   2.842  1.00  0.00    -0.084 Cl
HETATM   21  C14 UNL     1      -3.961   0.898   1.920  1.00  0.00     0.031 A 
ENDBRANCH  13  14
ENDBRANCH   5  13
BRANCH   2  22
HETATM   22  O1  UNL     1      -1.687  -0.961  -2.365  1.00  0.00    -0.348 OA
ATOM     23  H1  UNL     1      -1.911  -0.284  -2.992  1.00  0.00     0.219 HD
ENDBRANCH   2  22
BRANCH   1  24
HETATM   24  C2  UNL     1      -1.463  -2.970  -0.847  1.00  0.00     0.009 C 
HETATM   25  C1  UNL     1      -2.828  -3.306  -1.464  1.00  0.00     0.012 C 
HETATM   26  C3  UNL     1      -0.453  -3.089  -1.924  1.00  0.00     0.012 C 
ENDBRANCH   1  24
BRANCH  10  27
HETATM   27  C17 UNL     1       2.702   0.750   0.223  1.00  0.00     0.035 C 
BRANCH  27  28
HETATM   28  C18 UNL     1       3.420   0.230  -0.951  1.00  0.00     0.022 C 
BRANCH  28  29
HETATM   29  C19 UNL     1       4.918   0.535  -0.709  1.00  0.00     0.122 C 
BRANCH  29  30
HETATM   30  N3  UNL     1       5.616   0.023  -1.863  1.00  0.00    -0.367 N 
HETATM   31  C20 UNL     1       6.805   0.413  -2.145  1.00  0.00     0.196 C 
HETATM   32  N4  UNL     1       7.535  -0.058  -3.264  1.00  0.00    -0.067 NA
HETATM   33  N5  UNL     1       7.441   1.363  -1.305  1.00  0.00    -0.067 NA
ATOM     34  H3  UNL     1       5.156  -0.660  -2.465  1.00  0.00     0.161 HD
ENDBRANCH  29  30
ENDBRANCH  28  29
ENDBRANCH  27  28
ENDBRANCH  10  27
BRANCH  12  35
HETATM   35  C22 UNL     1      -0.463  -2.140   1.998  1.00  0.00     0.193 C 
HETATM   36  S1  UNL     1      -1.919  -2.942   2.260  1.00  0.00    -0.039 SA
BRANCH  35  37
HETATM   37  N7  UNL     1       0.396  -2.206   3.062  1.00  0.00    -0.270 N 
HETATM   38  C23 UNL     1       1.693  -1.629   3.309  1.00  0.00     0.174 C 
HETATM   39 CL3  UNL     1      -0.112  -3.217   4.476  1.00  0.00     0.015 Cl
ENDBRANCH  35  37
ENDBRANCH  12  35
BRANCH  11  40
HETATM   40  O3  UNL     1       1.827  -1.650   0.262  1.00  0.00    -0.348 OA
ATOM     41  H3  UNL     1       1.588  -2.561   0.389  1.00  0.00     0.219 HD
ENDBRANCH  11  40
TORSDOF 11
