REMARK  5 active torsions:
REMARK  status: ('A' for Active; 'I' for Inactive)
REMARK    1  A    between atoms: C5_5  and  C6_6 
REMARK    2  A    between atoms: C6_6  and  N1_7 
REMARK    3  A    between atoms: C6_6  and  C16_23 
REMARK    4  A    between atoms: N1_7  and  C7_9 
REMARK    5  A    between atoms: C8_12  and  C9_13 
ROOT
HETATM    1  N1  UNL     1       0.312  -0.512  -1.344  1.00  0.00    -0.356 N 
ATOM      2  H1  UNL     1       0.930  -0.713  -2.130  1.00  0.00     0.162 HD
ENDROOT
BRANCH   1   3
HETATM    3  C6  UNL     1       0.880   0.042  -0.177  1.00  0.00     0.174 C 
BRANCH   3   4
HETATM    4  C5  UNL     1       2.148  -0.678   0.109  1.00  0.00    -0.029 A 
HETATM    5  C4  UNL     1       2.421  -1.079   1.396  1.00  0.00     0.010 A 
HETATM    6  C3  UNL     1       3.592  -1.756   1.718  1.00  0.00     0.007 A 
HETATM    7  C2  UNL     1       4.488  -2.023   0.718  1.00  0.00    -0.062 A 
HETATM    8  C1  UNL     1       5.766  -2.754   1.029  1.00  0.00     0.048 C 
HETATM    9  C22 UNL     1       4.250  -1.639  -0.577  1.00  0.00     0.007 A 
HETATM   10  C21 UNL     1       3.068  -0.963  -0.866  1.00  0.00     0.010 A 
ENDBRANCH   3   4
BRANCH   3  11
HETATM   11  C16 UNL     1       1.173   1.491  -0.496  1.00  0.00     0.080 A 
HETATM   12  C17 UNL     1       0.262   2.281  -1.146  1.00  0.00     0.038 A 
HETATM   13  C18 UNL     1       0.869   3.536  -1.264  1.00  0.00     0.035 A 
HETATM   14  C19 UNL     1       2.107   3.397  -0.672  1.00  0.00     0.049 A 
HETATM   15  C20 UNL     1       3.092   4.517  -0.581  1.00  0.00     0.076 C 
HETATM   16  O1  UNL     1       2.251   2.164  -0.225  1.00  0.00    -0.317 OA
ENDBRANCH   3  11
ENDBRANCH   1   3
BRANCH   1  17
HETATM   17  C7  UNL     1      -0.962  -0.783  -1.477  1.00  0.00     0.145 A 
HETATM   18  N2  UNL     1      -1.936  -0.603  -0.593  1.00  0.00    -0.336 N 
HETATM   19  C8  UNL     1      -3.170  -0.941  -0.913  1.00  0.00     0.054 A 
ATOM     20  H2  UNL     1      -1.732  -0.207   0.325  1.00  0.00     0.168 HD
HETATM   21  C15 UNL     1      -3.366  -1.463  -2.157  1.00  0.00     0.083 A 
HETATM   22  S1  UNL     1      -1.767  -1.445  -2.812  1.00  0.00    -0.064 SA
BRANCH  19  23
HETATM   23  C9  UNL     1      -4.326  -0.728   0.029  1.00  0.00     0.033 A 
HETATM   24  C10 UNL     1      -4.153   0.023   1.178  1.00  0.00     0.017 A 
HETATM   25  C11 UNL     1      -5.126   0.250   2.118  1.00  0.00     0.004 A 
HETATM   26  C12 UNL     1      -6.356  -0.320   1.877  1.00  0.00     0.045 A 
HETATM   27  C13 UNL     1      -6.583  -1.069   0.762  1.00  0.00     0.155 A 
HETATM   28  F1  UNL     1      -7.775  -1.631   0.512  1.00  0.00    -0.203 F 
HETATM   29  C14 UNL     1      -5.550  -1.273  -0.173  1.00  0.00     0.167 A 
HETATM   30  F2  UNL     1      -5.829  -2.041  -1.246  1.00  0.00    -0.202 F 
ENDBRANCH  19  23
ENDBRANCH   1  17
TORSDOF 5
