REMARK  4 active torsions:
REMARK  status: ('A' for Active; 'I' for Inactive)
REMARK    1  A    between atoms: N2_5  and  C4_6 
REMARK    2  A    between atoms: N3_7  and  C5_9 
REMARK    3  A    between atoms: C5_9  and  N4_11 
REMARK    4  A    between atoms: N4_11  and  N5_13 
ROOT
HETATM    1  C5  UNL     1       0.180   1.389   0.334  1.00  0.00     0.191 C 
HETATM    2  S1  UNL     1       1.004   2.536   1.124  1.00  0.00    -0.039 SA
ENDROOT
BRANCH   1   3
HETATM    3  N3  UNL     1       0.249   1.340  -1.078  1.00  0.00    -0.328 N 
HETATM    4  C4  UNL     1       1.309   1.028  -1.737  1.00  0.00     0.180 C 
ATOM      5  H3  UNL     1      -0.594   1.566  -1.606  1.00  0.00     0.169 HD
BRANCH   4   6
HETATM    6  N2  UNL     1       2.503   0.705  -1.048  1.00  0.00    -0.374 N 
HETATM    7  C3  UNL     1       3.628   1.614  -1.118  1.00  0.00     0.154 C 
HETATM    8  C2  UNL     1       4.574   1.274  -0.005  1.00  0.00     0.291 C 
HETATM    9  N1  UNL     1       5.056  -0.059  -0.166  1.00  0.00     0.087 N 
HETATM   10  C1  UNL     1       6.037  -0.445   0.801  1.00  0.00     0.310 C 
HETATM   11  C14 UNL     1       4.051  -1.037  -0.420  1.00  0.00     0.291 C 
HETATM   12  C13 UNL     1       2.643  -0.508  -0.273  1.00  0.00     0.154 C 
ENDBRANCH   4   6
ENDBRANCH   1   3
BRANCH   1  13
HETATM   13  N4  UNL     1      -0.612   0.426   1.009  1.00  0.00    -0.276 N 
ATOM     14  H4  UNL     1      -0.664   0.457   2.027  1.00  0.00     0.189 HD
BRANCH  13  15
HETATM   15  N5  UNL     1      -1.315  -0.552   0.336  1.00  0.00    -0.307 N 
HETATM   16  C6  UNL     1      -2.508  -0.419  -0.136  1.00  0.00     0.004 C 
HETATM   17  C7  UNL     1      -3.215   0.854   0.031  1.00  0.00     0.054 C 
HETATM   18  C12 UNL     1      -3.003  -1.644  -0.811  1.00  0.00     0.054 C 
HETATM   19  C8  UNL     1      -4.138   0.858   1.230  1.00  0.00     0.006 C 
HETATM   20  C9  UNL     1      -5.042  -0.334   1.283  1.00  0.00     0.000 C 
HETATM   21  C10 UNL     1      -5.297  -0.966  -0.053  1.00  0.00     0.000 C 
HETATM   22  C11 UNL     1      -4.334  -2.105  -0.302  1.00  0.00     0.006 C 
ATOM     23  H5  UNL     1      -0.855  -1.452   0.201  1.00  0.00     0.186 HD
ENDBRANCH  13  15
ENDBRANCH   1  13
TORSDOF 4
