REMARK  6 active torsions:
REMARK  status: ('A' for Active; 'I' for Inactive)
REMARK    1  A    between atoms: C5_5  and  C6_7 
REMARK    2  A    between atoms: C6_7  and  S1_12 
REMARK    3  A    between atoms: C7_8  and  C8_9 
REMARK    4  A    between atoms: C8_9  and  O1_10 
REMARK    5  A    between atoms: S1_12  and  N1_13 
REMARK    6  A    between atoms: C22_33  and  O6_34 
ROOT
HETATM    1  C1  UNL     1       0.986  -1.101   1.011  1.00  0.00     0.018 C 
HETATM    2  C2  UNL     1       0.334  -0.694  -0.311  1.00  0.00    -0.009 C 
HETATM    3  C3  UNL     1       1.250   0.362  -0.904  1.00  0.00     0.060 C 
HETATM    4  C4  UNL     1       2.630  -0.295  -0.831  1.00  0.00     0.058 C 
HETATM    5  C5  UNL     1       3.634   0.366  -0.395  1.00  0.00     0.151 C 
HETATM    6  F1  UNL     1       3.181   1.714  -0.073  1.00  0.00    -0.204 F 
HETATM    7  C9  UNL     1       2.703  -1.634  -1.457  1.00  0.00     0.292 C 
HETATM    8  O4  UNL     1       3.653  -1.938  -2.218  1.00  0.00    -0.259 OA
HETATM    9  O5  UNL     1       1.648  -2.498  -1.139  1.00  0.00    -0.311 OA
HETATM   10  C10 UNL     1       0.361  -1.902  -1.208  1.00  0.00     0.141 C 
HETATM   11  C11 UNL     1      -0.714  -2.833  -0.677  1.00  0.00     0.034 C 
HETATM   12  C12 UNL     1      -2.018  -2.258  -1.192  1.00  0.00     0.008 C 
HETATM   13  C13 UNL     1      -2.059  -0.755  -1.042  1.00  0.00    -0.005 C 
HETATM   14  C14 UNL     1      -1.068  -0.206  -0.065  1.00  0.00     0.001 C 
HETATM   15  C15 UNL     1      -1.165   1.300  -0.063  1.00  0.00     0.007 C 
HETATM   16  C16 UNL     1      -2.558   1.683   0.384  1.00  0.00     0.014 C 
HETATM   17  C17 UNL     1      -3.639   1.106  -0.478  1.00  0.00     0.005 C 
HETATM   18  C18 UNL     1      -3.732   1.747  -1.837  1.00  0.00     0.020 C 
HETATM   19  C19 UNL     1      -3.458  -0.382  -0.679  1.00  0.00     0.002 C 
HETATM   20  C20 UNL     1      -3.956  -0.969   0.593  1.00  0.00     0.010 C 
HETATM   21  C21 UNL     1      -5.235  -0.155   0.832  1.00  0.00     0.055 C 
HETATM   22  C22 UNL     1      -4.945   1.229   0.304  1.00  0.00     0.153 C 
HETATM   23  C23 UNL     1      -4.789   2.151   1.440  1.00  0.00     0.098 C 
HETATM   24  N2  UNL     1      -4.664   2.863   2.347  1.00  0.00    -0.194 NA
ENDROOT
BRANCH  22  25
HETATM   25  O6  UNL     1      -5.993   1.644  -0.515  1.00  0.00    -0.375 OA
ATOM     26  H6  UNL     1      -6.805   1.721  -0.029  1.00  0.00     0.212 HD
ENDBRANCH  22  25
BRANCH   5  27
HETATM   27  C6  UNL     1       4.930   0.075   0.106  1.00  0.00     0.116 C 
HETATM   28  C7  UNL     1       5.816   1.038   0.362  1.00  0.00     0.027 C 
BRANCH  28  29
HETATM   29  C8  UNL     1       5.691   2.471   0.202  1.00  0.00     0.193 C 
BRANCH  29  30
HETATM   30  O1  UNL     1       5.845   3.163   1.433  1.00  0.00    -0.397 OA
ATOM     31  H1  UNL     1       5.763   4.104   1.328  1.00  0.00     0.209 HD
ENDBRANCH  29  30
ENDBRANCH  28  29
BRANCH  27  32
HETATM   32  S1  UNL     1       5.484  -1.486   0.750  1.00  0.00     0.259 S 
HETATM   33  O2  UNL     1       6.903  -1.758   0.362  1.00  0.00    -0.201 OA
HETATM   34  O3  UNL     1       4.558  -2.603   0.605  1.00  0.00    -0.201 OA
BRANCH  32  35
HETATM   35  N1  UNL     1       5.532  -1.230   2.518  1.00  0.00    -0.324 N 
ATOM     36  H12 UNL     1       5.293  -0.378   3.026  1.00  0.00     0.169 HD
ATOM     37  H11 UNL     1       5.850  -2.126   2.888  1.00  0.00     0.169 HD
ENDBRANCH  32  35
ENDBRANCH  27  32
ENDBRANCH   5  27
TORSDOF 6
