REMARK  10 active torsions:
REMARK  status: ('A' for Active; 'I' for Inactive)
REMARK    1  A    between atoms: C11_12  and  N1_13 
REMARK    2  A    between atoms: N1_13  and  C12_15 
REMARK    3  A    between atoms: C12_15  and  C13_16 
REMARK    4  A    between atoms: C13_16  and  C14_17 
REMARK    5  A    between atoms: C14_17  and  C15_18 
REMARK    6  A    between atoms: C15_18  and  C16_19 
REMARK    7  A    between atoms: C16_19  and  C17_20 
REMARK    8  A    between atoms: C17_20  and  N2_21 
REMARK       I    between atoms: N2_21  and  C18_23 
REMARK    9  A    between atoms: C18_23  and  C19_25 
REMARK   10  A    between atoms: C28_35  and  O3_36 
ROOT
HETATM    1  C1  UNL     1      -2.291  -4.946  -0.436  1.00  0.00     0.023 C 
HETATM    2  C2  UNL     1      -2.597  -3.771   0.514  1.00  0.00     0.018 C 
HETATM    3  C3  UNL     1      -1.677  -4.022   1.704  1.00  0.00     0.023 C 
HETATM    4  C4  UNL     1      -3.942  -4.064   1.059  1.00  0.00     0.135 C 
HETATM    5  O1  UNL     1      -4.103  -5.188   1.546  1.00  0.00    -0.297 OA
HETATM    6  C5  UNL     1      -5.060  -3.139   1.059  1.00  0.00     0.080 C 
HETATM    7  C6  UNL     1      -4.640  -1.731   0.742  1.00  0.00     0.018 C 
HETATM    8  C7  UNL     1      -3.676  -1.684  -0.397  1.00  0.00    -0.031 C 
HETATM    9  C8  UNL     1      -4.385  -2.307  -1.610  1.00  0.00     0.016 C 
HETATM   10  C9  UNL     1      -2.443  -2.460  -0.146  1.00  0.00     0.015 C 
HETATM   11  C10 UNL     1      -1.306  -1.749   0.544  1.00  0.00     0.059 C 
HETATM   12  C11 UNL     1      -1.081  -0.323   0.191  1.00  0.00    -0.009 C 
HETATM   13  C23 UNL     1      -2.412   0.391   0.134  1.00  0.00     0.044 C 
HETATM   14  C24 UNL     1      -2.295   1.885   0.081  1.00  0.00     0.001 C 
HETATM   15  C25 UNL     1      -2.009   2.395   1.448  1.00  0.00     0.006 C 
HETATM   16  C26 UNL     1      -3.081   3.039   2.234  1.00  0.00     0.003 C 
HETATM   17  C27 UNL     1      -2.970   4.527   1.987  1.00  0.00     0.032 C 
HETATM   18  C28 UNL     1      -2.769   4.722   0.518  1.00  0.00     0.126 C 
HETATM   19  C29 UNL     1      -3.729   3.956  -0.358  1.00  0.00    -0.018 C 
HETATM   20  C30 UNL     1      -5.106   4.057   0.186  1.00  0.00     0.018 C 
HETATM   21  C31 UNL     1      -3.783   4.871  -1.621  1.00  0.00     0.018 C 
HETATM   22  C32 UNL     1      -3.238   2.613  -0.786  1.00  0.00     0.001 C 
HETATM   23  C33 UNL     1      -4.429   1.849  -1.300  1.00  0.00     0.007 C 
HETATM   24  C34 UNL     1      -4.671   0.534  -0.587  1.00  0.00     0.011 C 
HETATM   25  C35 UNL     1      -3.374  -0.252  -0.805  1.00  0.00    -0.027 C 
HETATM   26  C36 UNL     1      -2.965  -0.267  -2.235  1.00  0.00     0.016 C 
ENDROOT
BRANCH  12  27
HETATM   27  N1  UNL     1      -0.102   0.063  -0.700  1.00  0.00    -0.376 N 
ATOM     28  H1  UNL     1      -0.406   0.418  -1.607  1.00  0.00     0.164 HD
BRANCH  27  29
HETATM   29  C12 UNL     1       1.277   0.006  -0.458  1.00  0.00     0.060 C 
BRANCH  29  30
HETATM   30  C13 UNL     1       2.001  -1.271  -0.318  1.00  0.00     0.044 C 
BRANCH  30  31
HETATM   31  C14 UNL     1       3.483  -1.007  -0.086  1.00  0.00     0.005 C 
BRANCH  31  32
HETATM   32  C15 UNL     1       4.172  -0.272  -1.174  1.00  0.00     0.002 C 
BRANCH  32  33
HETATM   33  C16 UNL     1       5.620  -0.026  -0.831  1.00  0.00     0.020 C 
BRANCH  33  34
HETATM   34  C17 UNL     1       6.446  -1.242  -0.596  1.00  0.00     0.122 C 
BRANCH  34  35
HETATM   35  N2  UNL     1       7.804  -0.864  -0.259  1.00  0.00    -0.361 N 
HETATM   36  C18 UNL     1       8.780  -1.851   0.018  1.00  0.00     0.224 C 
HETATM   37  O2  UNL     1       8.476  -3.065  -0.032  1.00  0.00    -0.273 OA
ATOM     38  H2  UNL     1       8.059   0.123  -0.221  1.00  0.00     0.162 HD
BRANCH  36  39
HETATM   39  C19 UNL     1      10.183  -1.470   0.373  1.00  0.00     0.112 C 
HETATM   40  C20 UNL     1      10.265  -0.581   1.590  1.00  0.00     0.020 C 
HETATM   41  C21 UNL     1      11.039   0.425   0.786  1.00  0.00     0.039 C 
HETATM   42  C22 UNL     1      10.706  -0.336  -0.466  1.00  0.00     0.183 C 
HETATM   43  F1  UNL     1      11.817  -0.670  -1.228  1.00  0.00    -0.249 F 
ENDBRANCH  36  39
ENDBRANCH  34  35
ENDBRANCH  33  34
ENDBRANCH  32  33
ENDBRANCH  31  32
ENDBRANCH  30  31
ENDBRANCH  29  30
ENDBRANCH  27  29
ENDBRANCH  12  27
BRANCH  18  44
HETATM   44  O3  UNL     1      -2.873   6.097   0.299  1.00  0.00    -0.395 OA
ATOM     45  H3  UNL     1      -2.745   6.221  -0.634  1.00  0.00     0.210 HD
ENDBRANCH  18  44
TORSDOF 10
