REMARK  16 active torsions:
REMARK  status: ('A' for Active; 'I' for Inactive)
REMARK    1  A    between atoms: C2_2  and  C3_4 
REMARK    2  A    between atoms: C3_4  and  O2_5 
REMARK    3  A    between atoms: C3_4  and  C4_7 
REMARK    4  A    between atoms: C4_7  and  O3_8 
REMARK    5  A    between atoms: C4_7  and  C5_10 
REMARK    6  A    between atoms: C5_10  and  O4_11 
REMARK    7  A    between atoms: C5_10  and  O12_44 
REMARK    8  A    between atoms: O4_11  and  C6_12 
REMARK    9  A    between atoms: C10_17  and  S1_18 
REMARK   10  A    between atoms: S1_18  and  C11_19 
REMARK   11  A    between atoms: C12_22  and  S2_23 
REMARK   12  A    between atoms: S2_23  and  N2_24 
REMARK   13  A    between atoms: C14_32  and  C15_33 
REMARK   14  A    between atoms: C16_37  and  O10_38 
REMARK   15  A    between atoms: C17_40  and  O11_42 
REMARK   16  A    between atoms: O12_44  and  S4_45 
ROOT
HETATM    1  C6  UNL     1      -1.516   0.461   0.054  1.00  0.00     0.207 C 
HETATM    2  C7  UNL     1      -0.326   0.980  -0.633  1.00  0.00     0.200 C 
HETATM    3  O5  UNL     1       0.006   1.470  -1.752  1.00  0.00    -0.375 OA
HETATM    4  C8  UNL     1       1.237   2.154  -1.485  1.00  0.00     0.209 C 
HETATM    5  C9  UNL     1       1.979   1.638  -0.315  1.00  0.00     0.001 C 
HETATM    6  C10 UNL     1       3.291   1.755  -0.468  1.00  0.00     0.064 C 
HETATM    7  C14 UNL     1       1.608   1.009   1.010  1.00  0.00     0.102 C 
HETATM    8  N4  UNL     1       0.623   0.045   1.049  1.00  0.00    -0.211 NA
HETATM    9  C16 UNL     1       0.529  -0.253  -0.411  1.00  0.00     0.252 C 
HETATM   10  C17 UNL     1      -0.744   0.069   1.306  1.00  0.00     0.145 C 
HETATM   11  C18 UNL     1      -1.287   0.735   2.525  1.00  0.00     0.067 C 
ENDROOT
BRANCH   1  12
HETATM   12  O4  UNL     1      -2.248  -0.460  -0.575  1.00  0.00    -0.345 OA
BRANCH  12  13
HETATM   13  C5  UNL     1      -3.517  -0.258  -0.954  1.00  0.00     0.313 C 
BRANCH  13  14
HETATM   14  C4  UNL     1      -4.481  -1.245  -0.415  1.00  0.00     0.210 C 
BRANCH  14  15
HETATM   15  C3  UNL     1      -4.724  -1.209   1.077  1.00  0.00     0.220 C 
BRANCH  15  16
HETATM   16  C2  UNL     1      -5.491  -0.007   1.514  1.00  0.00     0.154 C 
HETATM   17  C1  UNL     1      -6.884  -0.080   2.032  1.00  0.00     0.093 C 
HETATM   18  O1  UNL     1      -4.971   1.084   1.449  1.00  0.00    -0.295 OA
ENDBRANCH  15  16
BRANCH  15  19
HETATM   19  O2  UNL     1      -5.615  -2.314   1.289  1.00  0.00    -0.385 OA
ATOM     20  H2  UNL     1      -5.126  -3.080   1.011  1.00  0.00     0.210 HD
ENDBRANCH  15  19
ENDBRANCH  14  15
BRANCH  14  21
HETATM   21  O3  UNL     1      -5.784  -1.032  -0.955  1.00  0.00    -0.388 OA
ATOM     22  H3  UNL     1      -5.631  -1.055  -1.892  1.00  0.00     0.210 HD
ENDBRANCH  14  21
ENDBRANCH  13  14
BRANCH  13  23
HETATM   23  O12 UNL     1      -3.715  -0.241  -2.343  1.00  0.00    -0.221 OA
BRANCH  23  24
HETATM   24  S4  UNL     1      -4.238   1.221  -2.918  1.00  0.00     0.254 S 
HETATM   25  O13 UNL     1      -3.004   2.034  -3.276  1.00  0.00    -0.572 OA
HETATM   26  O14 UNL     1      -5.079   1.958  -1.920  1.00  0.00    -0.572 OA
HETATM   27  O15 UNL     1      -5.103   0.937  -4.351  1.00  0.00    -0.572 OA
ENDBRANCH  23  24
ENDBRANCH  13  23
ENDBRANCH  12  13
ENDBRANCH   1  12
BRANCH  10  28
HETATM   28  O11 UNL     1      -1.090  -1.311   1.518  1.00  0.00    -0.373 OA
ATOM     29  H11 UNL     1      -0.608  -1.556   2.299  1.00  0.00     0.212 HD
ENDBRANCH  10  28
BRANCH   9  30
HETATM   30  O10 UNL     1      -0.105  -1.440  -0.542  1.00  0.00    -0.284 OA
HETATM   31  S3  UNL     1       0.789  -2.589  -1.435  1.00  0.00     0.095 SA
ENDBRANCH   9  30
BRANCH   7  32
HETATM   32  C15 UNL     1       1.811   1.948   2.121  1.00  0.00     0.222 C 
HETATM   33  O8  UNL     1       1.456   1.772   3.304  1.00  0.00    -0.643 OA
HETATM   34  O9  UNL     1       2.454   3.190   1.918  1.00  0.00    -0.643 OA
ENDBRANCH   7  32
BRANCH   6  35
HETATM   35  S1  UNL     1       4.496   1.241   0.727  1.00  0.00    -0.065 SA
BRANCH  35  36
HETATM   36  C11 UNL     1       5.424  -0.173   0.090  1.00  0.00     0.149 A 
HETATM   37  N1  UNL     1       6.554  -0.131  -0.633  1.00  0.00    -0.325 N 
HETATM   38  C12 UNL     1       6.893  -1.408  -0.890  1.00  0.00     0.166 A 
ATOM     39  H1  UNL     1       7.057   0.705  -0.930  1.00  0.00     0.169 HD
HETATM   40  C13 UNL     1       5.944  -2.207  -0.307  1.00  0.00     0.134 A 
HETATM   41  N3  UNL     1       5.025  -1.433   0.306  1.00  0.00    -0.344 N 
ATOM     42  H3  UNL     1       4.202  -1.741   0.824  1.00  0.00     0.167 HD
BRANCH  38  43
HETATM   43  S2  UNL     1       8.292  -1.949  -1.804  1.00  0.00     0.273 S 
HETATM   44  O6  UNL     1       8.263  -3.428  -1.912  1.00  0.00    -0.199 OA
HETATM   45  O7  UNL     1       8.212  -1.287  -3.151  1.00  0.00    -0.199 OA
BRANCH  43  46
HETATM   46  N2  UNL     1       9.698  -1.364  -0.995  1.00  0.00    -0.323 N 
ATOM     47  H22 UNL     1       9.701  -0.806  -0.141  1.00  0.00     0.169 HD
ATOM     48  H21 UNL     1      10.510  -1.678  -1.526  1.00  0.00     0.169 HD
ENDBRANCH  43  46
ENDBRANCH  38  43
ENDBRANCH  35  36
ENDBRANCH   6  35
TORSDOF 16
