REMARK  2 active torsions:
REMARK  status: ('A' for Active; 'I' for Inactive)
REMARK    1  A    between atoms: C2_2  and  N1_3 
REMARK       I    between atoms: N1_3  and  C3_5 
REMARK       I    between atoms: C3_5  and  N2_7 
REMARK    2  A    between atoms: N3_15  and  C10_16 
ROOT
HETATM    1  N1  UNL     1       4.271   0.878  -0.231  1.00  0.00    -0.343 N 
ATOM      2  H1  UNL     1       4.509   0.494   0.684  1.00  0.00     0.164 HD
HETATM    3  C3  UNL     1       3.030   0.577  -0.815  1.00  0.00     0.318 C 
HETATM    4  O1  UNL     1       2.726   1.048  -1.946  1.00  0.00    -0.247 OA
HETATM    5  N2  UNL     1       2.032  -0.268  -0.190  1.00  0.00    -0.331 N 
HETATM    6  C4  UNL     1       2.496  -0.730   1.076  1.00  0.00     0.129 C 
HETATM    7  C5  UNL     1       1.574  -1.513   1.917  1.00  0.00     0.046 C 
HETATM    8  C6  UNL     1       0.882  -2.654   1.265  1.00  0.00     0.170 C 
HETATM    9  O2  UNL     1       0.406  -2.466   0.023  1.00  0.00    -0.376 OA
HETATM   10  C7  UNL     1      -0.167  -1.315  -0.357  1.00  0.00     0.097 C 
HETATM   11  C8  UNL     1      -1.205  -1.684  -1.436  1.00  0.00     0.085 C 
HETATM   12  C9  UNL     1      -2.250  -0.594  -1.365  1.00  0.00     0.062 C 
HETATM   13  N3  UNL     1      -2.176  -0.130  -0.058  1.00  0.00    -0.386 N 
HETATM   14  C15 UNL     1      -1.030  -0.588   0.631  1.00  0.00     0.162 C 
HETATM   15  C16 UNL     1       0.856  -0.421  -0.989  1.00  0.00     0.167 C 
ENDROOT
BRANCH  13  16
HETATM   16  C10 UNL     1      -3.182   0.561   0.579  1.00  0.00     0.083 C 
HETATM   17  C11 UNL     1      -3.578   1.892   0.008  1.00  0.00     0.025 C 
HETATM   18  C12 UNL     1      -4.623   1.629  -1.055  1.00  0.00     0.002 C 
HETATM   19  C13 UNL     1      -5.321   0.389  -0.584  1.00  0.00     0.002 C 
HETATM   20  C14 UNL     1      -4.487  -0.221   0.501  1.00  0.00     0.025 C 
ENDBRANCH  13  16
BRANCH   1  21
HETATM   21  C2  UNL     1       5.210   1.728  -0.921  1.00  0.00     0.120 C 
HETATM   22  C1  UNL     1       6.459   1.897  -0.089  1.00  0.00     0.026 C 
ENDBRANCH   1  21
TORSDOF 2
