REMARK  4 active torsions:
REMARK  status: ('A' for Active; 'I' for Inactive)
REMARK    1  A    between atoms: C3_3  and  C6_6 
REMARK    2  A    between atoms: N2_8  and  O1_10 
REMARK    3  A    between atoms: O1_10  and  C7_11 
REMARK    4  A    between atoms: C7_11  and  C8_13 
ROOT
HETATM    1  C1  UNL     1      -4.540  -2.077   2.048  1.00  0.00     0.013 C 
HETATM    2  C2  UNL     1      -4.543  -1.206   1.212  1.00  0.00    -0.100 C 
HETATM    3  C3  UNL     1      -4.526  -0.136   0.203  1.00  0.00     0.073 C 
HETATM    4  C4  UNL     1      -5.508   0.956   0.651  1.00  0.00     0.037 C 
HETATM    5  C5  UNL     1      -5.036  -0.637  -1.131  1.00  0.00     0.037 C 
ENDROOT
BRANCH   3   6
HETATM    6  C6  UNL     1      -3.187   0.465   0.105  1.00  0.00     0.134 C 
HETATM    7  N1  UNL     1      -2.981   1.510  -0.813  1.00  0.00    -0.084 NA
HETATM    8  N2  UNL     1      -2.265   0.050   0.823  1.00  0.00    -0.246 N 
ATOM      9  H2  UNL     1      -2.550  -0.709   1.442  1.00  0.00     0.196 HD
BRANCH   8  10
HETATM   10  O1  UNL     1      -0.983   0.383   0.959  1.00  0.00    -0.198 OA
BRANCH  10  11
HETATM   11  C7  UNL     1       0.001   0.316  -0.018  1.00  0.00     0.286 C 
HETATM   12  O2  UNL     1      -0.426  -0.113  -1.126  1.00  0.00    -0.263 OA
BRANCH  11  13
HETATM   13  C8  UNL     1       1.411   0.702   0.197  1.00  0.00     0.096 C 
HETATM   14  C9  UNL     1       2.099  -0.083   1.262  1.00  0.00     0.000 C 
HETATM   15  C10 UNL     1       2.419  -1.498   0.853  1.00  0.00     0.010 C 
HETATM   16  C14 UNL     1       3.446   0.611   1.505  1.00  0.00     0.010 C 
HETATM   17  C11 UNL     1       3.285  -1.490  -0.382  1.00  0.00    -0.013 C 
HETATM   18  C12 UNL     1       4.574  -0.732  -0.184  1.00  0.00     0.009 C 
HETATM   19  C17 UNL     1       2.488  -0.827  -1.481  1.00  0.00     0.010 C 
HETATM   20  C13 UNL     1       4.230   0.677   0.229  1.00  0.00    -0.013 C 
HETATM   21  C15 UNL     1       3.486   1.323  -0.905  1.00  0.00     0.010 C 
HETATM   22  C16 UNL     1       2.151   0.593  -1.107  1.00  0.00     0.000 C 
ENDBRANCH  11  13
ENDBRANCH  10  11
ENDBRANCH   8  10
ENDBRANCH   3   6
TORSDOF 4
