REMARK  5 active torsions:
REMARK  status: ('A' for Active; 'I' for Inactive)
REMARK    1  A    between atoms: C2_2  and  C3_3 
REMARK    2  A    between atoms: C3_3  and  C6_6 
REMARK    3  A    between atoms: C6_6  and  C7_7 
REMARK    4  A    between atoms: C6_6  and  N2_15 
REMARK    5  A    between atoms: C15_19  and  N3_20 
ROOT
HETATM    1  C6  UNL     1      -1.565   0.264  -0.724  1.00  0.00     0.234 C 
ENDROOT
BRANCH   1   2
HETATM    2  C3  UNL     1      -1.964   1.635  -1.003  1.00  0.00    -0.017 C 
HETATM    3  C4  UNL     1      -0.864   2.534  -1.584  1.00  0.00     0.017 C 
HETATM    4  C5  UNL     1      -2.955   1.574  -2.179  1.00  0.00     0.017 C 
BRANCH   2   5
HETATM    5  C2  UNL     1      -2.699   2.453  -0.033  1.00  0.00     0.006 C 
HETATM    6  C1  UNL     1      -2.040   3.016   1.162  1.00  0.00     0.006 C 
ENDBRANCH   2   5
ENDBRANCH   1   2
BRANCH   1   7
HETATM    7  C7  UNL     1      -2.808  -0.484  -0.239  1.00  0.00     0.023 C 
HETATM    8  C8  UNL     1      -3.198  -1.676  -1.041  1.00  0.00     0.034 C 
HETATM    9  C9  UNL     1      -3.073  -2.959  -0.230  1.00  0.00     0.232 C 
HETATM   10  N1  UNL     1      -4.037  -2.855   0.847  1.00  0.00    -0.075 N 
HETATM   11  C10 UNL     1      -3.975  -1.604   1.554  1.00  0.00     0.232 C 
ATOM     12  H12 UNL     1      -4.982  -3.029   0.504  1.00  0.00     0.277 HD
ATOM     13  H11 UNL     1      -3.943  -3.639   1.492  1.00  0.00     0.277 HD
HETATM   14  C11 UNL     1      -2.684  -0.857   1.225  1.00  0.00     0.034 C 
ENDBRANCH   1   7
BRANCH   1  15
HETATM   15  N2  UNL     1      -0.418  -0.195  -0.119  1.00  0.00     0.096 N 
HETATM   16  C12 UNL     1       0.268  -1.280  -0.851  1.00  0.00     0.273 C 
HETATM   17  C13 UNL     1       0.823  -2.285   0.125  1.00  0.00     0.032 C 
HETATM   18  C14 UNL     1       1.561  -1.531   1.170  1.00  0.00     0.029 C 
HETATM   19  C15 UNL     1       1.843  -0.104   0.844  1.00  0.00     0.111 C 
HETATM   20  C21 UNL     1       0.677   0.641   0.208  1.00  0.00     0.298 C 
BRANCH  19  21
HETATM   21  N3  UNL     1       3.062   0.166   0.154  1.00  0.00    -0.387 N 
HETATM   22  C16 UNL     1       3.817   1.266   0.691  1.00  0.00     0.122 C 
HETATM   23  C17 UNL     1       5.161   1.367   0.035  1.00  0.00     0.020 C 
HETATM   24  C18 UNL     1       6.022   0.157   0.314  1.00  0.00     0.007 C 
HETATM   25  C19 UNL     1       5.149  -1.049   0.646  1.00  0.00     0.044 C 
HETATM   26  C20 UNL     1       3.900  -0.893  -0.219  1.00  0.00     0.058 C 
ENDBRANCH  19  21
ENDBRANCH   1  15
TORSDOF 5
