REMARK  7 active torsions:
REMARK  status: ('A' for Active; 'I' for Inactive)
REMARK    1  A    between atoms: N1_3  and  C2_4 
REMARK    2  A    between atoms: C9_11  and  O2_12 
REMARK    3  A    between atoms: N2_14  and  C10_15 
REMARK    4  A    between atoms: C13_18  and  N3_19 
REMARK    5  A    between atoms: C15_22  and  C16_23 
REMARK    6  A    between atoms: C19_27  and  C20_28 
REMARK    7  A    between atoms: C20_28  and  C21_29 
ROOT
HETATM    1  C10 UNL     1      -0.747  -0.597  -0.118  1.00  0.00     0.097 C 
HETATM    2  C11 UNL     1      -0.202   0.375  -1.156  1.00  0.00     0.028 C 
HETATM    3  C12 UNL     1       1.053   1.034  -0.621  1.00  0.00     0.038 C 
HETATM    4  C13 UNL     1       1.806  -0.053   0.132  1.00  0.00     0.226 C 
HETATM    5  C22 UNL     1       1.122  -0.210   1.449  1.00  0.00     0.038 C 
HETATM    6  C23 UNL     1      -0.381  -0.125   1.244  1.00  0.00     0.028 C 
ENDROOT
BRANCH   1   7
HETATM    7  N2  UNL     1      -2.169  -0.681  -0.363  1.00  0.00    -0.274 N 
HETATM    8  C1  UNL     1      -3.244  -0.398   0.350  1.00  0.00     0.331 A 
HETATM    9  O1  UNL     1      -3.187   0.044   1.531  1.00  0.00    -0.246 OA
HETATM   10  N1  UNL     1      -4.374  -0.641  -0.342  1.00  0.00    -0.301 N 
HETATM   11  C8  UNL     1      -4.006  -1.102  -1.555  1.00  0.00     0.152 A 
HETATM   12  C9  UNL     1      -2.631  -1.128  -1.571  1.00  0.00     0.162 A 
BRANCH  10  13
HETATM   13  C2  UNL     1      -5.742  -0.463   0.065  1.00  0.00     0.094 C 
HETATM   14  C3  UNL     1      -6.675  -0.672  -1.120  1.00  0.00     0.026 C 
HETATM   15  C4  UNL     1      -8.108  -0.593  -0.707  1.00  0.00     0.002 C 
HETATM   16  C5  UNL     1      -8.348   0.808  -0.121  1.00  0.00     0.000 C 
HETATM   17  C6  UNL     1      -7.454   0.916   1.090  1.00  0.00     0.002 C 
HETATM   18  C7  UNL     1      -6.018   0.953   0.557  1.00  0.00     0.026 C 
ENDBRANCH  10  13
BRANCH  12  19
HETATM   19  O2  UNL     1      -1.885  -1.544  -2.650  1.00  0.00    -0.345 OA
ATOM     20  H2  UNL     1      -0.935  -1.562  -2.661  1.00  0.00     0.219 HD
ENDBRANCH  12  19
ENDBRANCH   1   7
BRANCH   4  21
HETATM   21  N3  UNL     1       3.210   0.150   0.143  1.00  0.00     0.121 N 
HETATM   22  C14 UNL     1       3.770   0.036  -1.187  1.00  0.00     0.351 C 
HETATM   23  S1  UNL     1       3.542  -1.771  -1.015  1.00  0.00    -0.098 SA
HETATM   24  C15 UNL     1       4.029  -0.952   0.557  1.00  0.00     0.327 C 
BRANCH  24  25
HETATM   25  C16 UNL     1       5.496  -0.561   0.506  1.00  0.00     0.028 A 
HETATM   26  C17 UNL     1       6.526  -1.305   0.004  1.00  0.00     0.042 A 
HETATM   27  C18 UNL     1       7.756  -0.768   0.033  1.00  0.00     0.048 A 
HETATM   28 CL1  UNL     1       9.190  -1.615  -0.631  1.00  0.00    -0.083 Cl
HETATM   29  C19 UNL     1       7.891   0.480   0.562  1.00  0.00     0.006 A 
HETATM   30  S2  UNL     1       6.269   0.871   1.008  1.00  0.00    -0.094 SA
BRANCH  29  31
HETATM   31  C20 UNL     1       9.069   1.351   0.773  1.00  0.00     0.063 C 
BRANCH  31  32
HETATM   32  C21 UNL     1       9.875   1.072   1.986  1.00  0.00     0.119 C 
HETATM   33 CL2  UNL     1      10.584  -0.535   2.085  1.00  0.00    -0.130 Cl
ENDBRANCH  31  32
ENDBRANCH  29  31
ENDBRANCH  24  25
ENDBRANCH   4  21
TORSDOF 7
