REMARK  7 active torsions:
REMARK  status: ('A' for Active; 'I' for Inactive)
REMARK    1  A    between atoms: C3_3  and  N1_4 
REMARK    2  A    between atoms: C7_9  and  C8_10 
REMARK    3  A    between atoms: C8_10  and  O2_13 
REMARK    4  A    between atoms: C12_18  and  C13_19 
REMARK    5  A    between atoms: C14_25  and  N4_26 
REMARK    6  A    between atoms: N4_26  and  C15_28 
REMARK    7  A    between atoms: C18_31  and  C19_32 
ROOT
HETATM    1  C1  UNL     1      -1.256  -0.572   1.918  1.00  0.00     0.056 C 
HETATM    2  C2  UNL     1      -0.797   0.068   0.679  1.00  0.00     0.026 A 
HETATM    3  C3  UNL     1      -1.719   0.705  -0.103  1.00  0.00     0.114 A 
HETATM    4  N2  UNL     1      -1.330   1.285  -1.272  1.00  0.00    -0.324 N 
ATOM      5  H2  UNL     1      -2.028   1.757  -1.847  1.00  0.00     0.169 HD
HETATM    6  C12 UNL     1      -0.077   1.255  -1.683  1.00  0.00     0.193 A 
HETATM    7  N3  UNL     1       0.811   0.624  -0.895  1.00  0.00    -0.324 N 
ATOM      8  H3  UNL     1       1.782   0.599  -1.208  1.00  0.00     0.169 HD
HETATM    9  C14 UNL     1       0.525   0.033   0.255  1.00  0.00     0.117 A 
ENDROOT
BRANCH   9  10
HETATM   10  N4  UNL     1       1.423  -0.535   0.969  1.00  0.00    -0.342 N 
ATOM     11  H4  UNL     1       1.171  -0.963   1.860  1.00  0.00     0.167 HD
BRANCH  10  12
HETATM   12  C15 UNL     1       2.791  -0.570   0.513  1.00  0.00     0.033 A 
HETATM   13  C16 UNL     1       3.499  -1.764   0.576  1.00  0.00     0.030 A 
HETATM   14  C17 UNL     1       4.781  -1.886   0.119  1.00  0.00     0.010 A 
HETATM   15  C18 UNL     1       5.417  -0.780  -0.438  1.00  0.00    -0.054 A 
HETATM   16  C24 UNL     1       4.724   0.412  -0.504  1.00  0.00     0.010 A 
HETATM   17  C25 UNL     1       3.429   0.503  -0.031  1.00  0.00     0.030 A 
BRANCH  15  18
HETATM   18  C19 UNL     1       6.774  -0.989  -0.975  1.00  0.00     0.018 C 
HETATM   19  C20 UNL     1       7.639  -1.483   0.190  1.00  0.00     0.009 C 
HETATM   20  C21 UNL     1       8.506  -0.311   0.611  1.00  0.00     0.001 C 
HETATM   21  C22 UNL     1       8.034   0.853  -0.201  1.00  0.00     0.001 C 
HETATM   22  C23 UNL     1       7.486   0.215  -1.444  1.00  0.00     0.009 C 
ENDBRANCH  15  18
ENDBRANCH  10  12
ENDBRANCH   9  10
BRANCH   3  23
HETATM   23  N1  UNL     1      -3.108   0.832   0.204  1.00  0.00    -0.364 N 
HETATM   24  C4  UNL     1      -3.387   1.987   0.978  1.00  0.00     0.126 C 
HETATM   25  C5  UNL     1      -4.799   2.216   1.388  1.00  0.00     0.046 C 
HETATM   26  C6  UNL     1      -5.462   1.064   2.052  1.00  0.00     0.170 C 
HETATM   27  O1  UNL     1      -5.282  -0.173   1.459  1.00  0.00    -0.381 OA
HETATM   28  C7  UNL     1      -5.315  -0.113   0.068  1.00  0.00     0.172 C 
HETATM   29  C11 UNL     1      -3.872  -0.261  -0.373  1.00  0.00     0.159 C 
BRANCH  28  30
HETATM   30  C8  UNL     1      -6.220  -1.133  -0.539  1.00  0.00     0.078 C 
HETATM   31  C9  UNL     1      -5.869  -2.561  -0.196  1.00  0.00     0.048 C 
HETATM   32  C10 UNL     1      -7.622  -0.857   0.003  1.00  0.00     0.048 C 
BRANCH  30  33
HETATM   33  O2  UNL     1      -6.209  -0.973  -1.923  1.00  0.00    -0.388 OA
ATOM     34  H2  UNL     1      -6.785  -1.622  -2.309  1.00  0.00     0.210 HD
ENDBRANCH  30  33
ENDBRANCH  28  30
ENDBRANCH   3  23
BRANCH   6  35
HETATM   35  C13 UNL     1       0.449   1.887  -2.929  1.00  0.00     0.449 C 
HETATM   36  F1  UNL     1       1.658   2.540  -2.630  1.00  0.00    -0.163 F 
HETATM   37  F2  UNL     1       0.696   0.922  -3.851  1.00  0.00    -0.163 F 
HETATM   38  F3  UNL     1      -0.410   2.836  -3.418  1.00  0.00    -0.163 F 
ENDBRANCH   6  35
TORSDOF 7
