REMARK  6 active torsions:
REMARK  status: ('A' for Active; 'I' for Inactive)
REMARK    1  A    between atoms: C2_3  and  C4_6 
REMARK    2  A    between atoms: C4_6  and  C5_7 
REMARK    3  A    between atoms: C4_6  and  C18_27 
REMARK    4  A    between atoms: N3_9  and  C7_10 
REMARK    5  A    between atoms: C7_10  and  O1_11 
REMARK    6  A    between atoms: C7_10  and  C8_13 
ROOT
HETATM    1  N1  UNL     1       0.293  -2.813   2.962  1.00  0.00    -0.196 NA
HETATM    2  C1  UNL     1      -0.504  -2.013   2.624  1.00  0.00     0.083 C 
HETATM    3  C2  UNL     1      -1.502  -1.050   2.241  1.00  0.00     0.229 C 
HETATM    4  C3  UNL     1      -1.646   0.033   3.222  1.00  0.00     0.083 C 
HETATM    5  N2  UNL     1      -1.741   0.914   3.988  1.00  0.00    -0.196 NA
ENDROOT
BRANCH   3   6
HETATM    6  C4  UNL     1      -1.342  -0.558   0.843  1.00  0.00    -0.032 C 
BRANCH   6   7
HETATM    7  C5  UNL     1      -0.019   0.093   0.615  1.00  0.00    -0.003 A 
HETATM    8  C6  UNL     1       1.182  -0.553   0.416  1.00  0.00     0.112 A 
HETATM    9  N3  UNL     1       2.180   0.268   0.042  1.00  0.00    -0.300 N 
HETATM   10  C12 UNL     1       1.631   1.512  -0.012  1.00  0.00     0.055 A 
HETATM   11  C13 UNL     1       2.164   2.766  -0.288  1.00  0.00     0.075 A 
HETATM   12  C17 UNL     1       0.294   1.426   0.335  1.00  0.00     0.005 A 
HETATM   13  C14 UNL     1       1.343   3.881  -0.198  1.00  0.00     0.142 A 
HETATM   14  F1  UNL     1       1.925   5.078  -0.492  1.00  0.00    -0.204 F 
HETATM   15  C15 UNL     1       0.032   3.789   0.153  1.00  0.00     0.085 A 
HETATM   16  N4  UNL     1      -0.769   4.948   0.266  1.00  0.00    -0.099 NA
HETATM   17  C16 UNL     1      -0.499   2.546   0.421  1.00  0.00     0.044 A 
BRANCH   9  18
HETATM   18  C7  UNL     1       3.507  -0.086  -0.270  1.00  0.00     0.164 C 
BRANCH  18  19
HETATM   19  O1  UNL     1       4.360   0.851  -0.577  1.00  0.00    -0.345 OA
ATOM     20  H1  UNL     1       5.255   0.612  -0.787  1.00  0.00     0.219 HD
ENDBRANCH  18  19
BRANCH  18  21
HETATM   21  C8  UNL     1       4.079  -1.418  -0.304  1.00  0.00     0.058 A 
HETATM   22  C9  UNL     1       3.531  -2.565  -0.843  1.00  0.00     0.025 A 
HETATM   23  C10 UNL     1       4.239  -3.702  -0.757  1.00  0.00     0.033 A 
HETATM   24  C11 UNL     1       5.461  -3.633  -0.134  1.00  0.00     0.075 A 
HETATM   25 CL1  UNL     1       6.589  -4.990   0.096  1.00  0.00    -0.076 Cl
HETATM   26  S1  UNL     1       5.584  -1.995   0.309  1.00  0.00    -0.074 SA
ENDBRANCH  18  21
ENDBRANCH   9  18
ENDBRANCH   6   7
BRANCH   6  27
HETATM   27  C18 UNL     1      -2.499  -0.073   0.094  1.00  0.00     0.018 C 
HETATM   28  C19 UNL     1      -2.084   0.273  -1.344  1.00  0.00     0.009 C 
HETATM   29  C20 UNL     1      -2.853  -0.698  -2.237  1.00  0.00     0.001 C 
HETATM   30  C21 UNL     1      -4.154  -0.836  -1.467  1.00  0.00     0.001 C 
HETATM   31  C22 UNL     1      -3.562  -1.142  -0.078  1.00  0.00     0.009 C 
ENDBRANCH   6  27
ENDBRANCH   3   6
TORSDOF 6
