REMARK  6 active torsions:
REMARK  status: ('A' for Active; 'I' for Inactive)
REMARK    1  A    between atoms: C2_2  and  N1_3 
REMARK    2  A    between atoms: N1_3  and  C3_5 
REMARK    3  A    between atoms: N2_9  and  C7_10 
REMARK    4  A    between atoms: C8_13  and  N4_14 
REMARK    5  A    between atoms: C11_17  and  O1_18 
REMARK    6  A    between atoms: N7_29  and  C17_30 
ROOT
HETATM    1  C7  UNL     1       0.459   0.145   0.257  1.00  0.00     0.134 A 
HETATM    2  N3  UNL     1      -0.521  -0.813   0.292  1.00  0.00    -0.176 N 
ATOM      3  H3  UNL     1      -0.269  -1.780   0.498  1.00  0.00     0.186 HD
HETATM    4  C8  UNL     1      -1.806  -0.503   0.060  1.00  0.00     0.683 A 
HETATM    5  N5  UNL     1      -2.088   0.769  -0.205  1.00  0.00    -0.174 N 
ATOM      6  H5  UNL     1      -3.061   1.018  -0.383  1.00  0.00     0.186 HD
HETATM    7  C14 UNL     1      -1.163   1.751  -0.253  1.00  0.00     0.153 A 
HETATM    8  C15 UNL     1       0.175   1.459  -0.016  1.00  0.00     0.071 A 
HETATM    9  C16 UNL     1       0.916   2.623  -0.125  1.00  0.00     0.126 A 
HETATM   10  N6  UNL     1       0.005   3.589  -0.425  1.00  0.00    -0.307 N 
ATOM     11  H6  UNL     1       0.228   4.573  -0.572  1.00  0.00     0.186 HD
HETATM   12  N7  UNL     1      -1.204   3.073  -0.498  1.00  0.00    -0.271 N 
ENDROOT
BRANCH   1  13
HETATM   13  N2  UNL     1       1.821  -0.230   0.517  1.00  0.00    -0.364 N 
HETATM   14  C6  UNL     1       2.602   0.244   1.618  1.00  0.00     0.124 C 
HETATM   15  C5  UNL     1       3.974   0.714   1.271  1.00  0.00     0.022 C 
HETATM   16  C4  UNL     1       4.257   0.482  -0.205  1.00  0.00     0.028 C 
HETATM   17  C3  UNL     1       3.880  -0.886  -0.637  1.00  0.00     0.098 C 
HETATM   18  C21 UNL     1       2.397  -1.167  -0.402  1.00  0.00     0.149 C 
BRANCH  17  19
HETATM   19  N1  UNL     1       4.695  -1.905  -0.120  1.00  0.00    -0.396 N 
ATOM     20  H1  UNL     1       4.279  -2.577   0.525  1.00  0.00     0.159 HD
BRANCH  19  21
HETATM   21  C2  UNL     1       6.051  -2.047  -0.444  1.00  0.00     0.051 C 
HETATM   22  C1  UNL     1       7.049  -1.064   0.077  1.00  0.00     0.054 C 
ENDBRANCH  19  21
ENDBRANCH  17  19
ENDBRANCH   1  13
BRANCH   4  23
HETATM   23  N4  UNL     1      -2.778  -1.539   0.111  1.00  0.00    -0.217 N 
HETATM   24  C9  UNL     1      -4.180  -1.185   0.001  1.00  0.00     0.143 C 
HETATM   25  C10 UNL     1      -4.917  -2.142  -0.932  1.00  0.00     0.052 C 
HETATM   26  C11 UNL     1      -4.666  -3.541  -0.402  1.00  0.00     0.121 C 
HETATM   27  C12 UNL     1      -3.180  -3.827  -0.632  1.00  0.00     0.052 C 
HETATM   28  C13 UNL     1      -2.364  -2.924   0.266  1.00  0.00     0.143 C 
BRANCH  26  29
HETATM   29  O1  UNL     1      -4.889  -3.482   0.993  1.00  0.00    -0.395 OA
ATOM     30  H1  UNL     1      -4.732  -4.358   1.325  1.00  0.00     0.210 HD
ENDBRANCH  26  29
ENDBRANCH   4  23
BRANCH  12  31
HETATM   31  C17 UNL     1      -2.433   3.777  -0.799  1.00  0.00     0.110 C 
HETATM   32  C18 UNL     1      -2.519   5.040   0.068  1.00  0.00     0.027 C 
HETATM   33  C19 UNL     1      -3.986   4.730   0.378  1.00  0.00     0.004 C 
HETATM   34  C20 UNL     1      -3.670   3.297  -0.079  1.00  0.00     0.027 C 
ENDBRANCH  12  31
TORSDOF 6
