REMARK  7 active torsions:
REMARK  status: ('A' for Active; 'I' for Inactive)
REMARK    1  A    between atoms: N2_7  and  C5_8 
REMARK    2  A    between atoms: C5_8  and  C6_9 
REMARK    3  A    between atoms: C6_9  and  C7_10 
REMARK    4  A    between atoms: C6_9  and  C9_14 
REMARK    5  A    between atoms: C7_10  and  S1_11 
REMARK       I    between atoms: C9_14  and  N3_16 
REMARK    6  A    between atoms: N4_19  and  C12_21 
REMARK    7  A    between atoms: C12_21  and  C13_22 
ROOT
HETATM    1  C9  UNL     1      -1.026  -1.403  -0.732  1.00  0.00     0.242 C 
HETATM    2  O2  UNL     1      -1.591  -1.996  -1.689  1.00  0.00    -0.271 OA
HETATM    3  N3  UNL     1       0.318  -0.992  -0.914  1.00  0.00    -0.255 N 
HETATM    4  C10 UNL     1       1.098  -0.307   0.100  1.00  0.00     0.223 C 
HETATM    5  C11 UNL     1       2.494  -0.778   0.043  1.00  0.00     0.094 C 
HETATM    6  N4  UNL     1       3.448  -0.245   0.735  1.00  0.00    -0.378 N 
ATOM      7  H4  UNL     1       4.385  -0.635   0.634  1.00  0.00     0.160 HD
HETATM    8  N5  UNL     1       2.824  -1.860  -0.799  1.00  0.00    -0.354 N 
ATOM      9  H5  UNL     1       3.629  -2.441  -0.566  1.00  0.00     0.163 HD
HETATM   10  C17 UNL     1       2.056  -2.169  -1.981  1.00  0.00     0.115 C 
HETATM   11  C18 UNL     1       1.607  -3.609  -1.872  1.00  0.00     0.059 C 
HETATM   12  C19 UNL     1       2.971  -2.061  -3.185  1.00  0.00     0.059 C 
HETATM   13  N6  UNL     1       0.971  -1.241  -2.129  1.00  0.00    -0.104 NA
ENDROOT
BRANCH   1  14
HETATM   14  C6  UNL     1      -1.829  -1.194   0.488  1.00  0.00     0.109 C 
BRANCH  14  15
HETATM   15  C5  UNL     1      -2.161   0.224   0.800  1.00  0.00     0.141 C 
BRANCH  15  16
HETATM   16  N2  UNL     1      -3.140   0.838  -0.054  1.00  0.00    -0.346 N 
HETATM   17  C4  UNL     1      -4.566   0.850   0.171  1.00  0.00     0.132 C 
HETATM   18  C3  UNL     1      -5.144   1.903  -0.738  1.00  0.00     0.082 C 
HETATM   19  C2  UNL     1      -4.103   2.220  -1.711  1.00  0.00     0.074 C 
HETATM   20  N1  UNL     1      -4.242   2.950  -2.761  1.00  0.00    -0.393 N 
HETATM   21  C20 UNL     1      -2.869   1.543  -1.254  1.00  0.00     0.265 C 
HETATM   22  C1  UNL     1      -5.531   3.534  -3.047  1.00  0.00     0.146 C 
ATOM     23  H1  UNL     1      -3.451   3.114  -3.384  1.00  0.00     0.159 HD
HETATM   24  O3  UNL     1      -1.803   1.650  -1.914  1.00  0.00    -0.266 OA
ENDBRANCH  15  16
ENDBRANCH  14  15
BRANCH  14  25
HETATM   25  C7  UNL     1      -2.997  -2.143   0.559  1.00  0.00     0.124 C 
BRANCH  25  26
HETATM   26  S1  UNL     1      -3.735  -2.176   2.160  1.00  0.00     0.011 S 
HETATM   27  C8  UNL     1      -2.622  -2.681   3.417  1.00  0.00     0.127 C 
HETATM   28  O1  UNL     1      -5.069  -3.194   2.162  1.00  0.00    -0.258 OA
ENDBRANCH  25  26
ENDBRANCH  14  25
ENDBRANCH   1  14
BRANCH   6  29
HETATM   29  C12 UNL     1       3.276   0.855   1.633  1.00  0.00     0.129 C 
BRANCH  29  30
HETATM   30  C13 UNL     1       4.420   1.842   1.571  1.00  0.00    -0.035 C 
HETATM   31  C14 UNL     1       4.581   2.436   0.192  1.00  0.00     0.016 C 
HETATM   32  C15 UNL     1       4.165   2.985   2.525  1.00  0.00     0.016 C 
HETATM   33  C16 UNL     1       5.734   1.200   1.955  1.00  0.00     0.016 C 
ENDBRANCH  29  30
ENDBRANCH   6  29
TORSDOF 7
