REMARK  7 active torsions:
REMARK  status: ('A' for Active; 'I' for Inactive)
REMARK    1  A    between atoms: C2_2  and  C3_3 
REMARK    2  A    between atoms: C3_3  and  C4_4 
REMARK    3  A    between atoms: C4_4  and  C5_5 
REMARK    4  A    between atoms: C5_5  and  O1_6 
REMARK    5  A    between atoms: C5_5  and  C6_8 
REMARK    6  A    between atoms: N2_19  and  C14_20 
REMARK    7  A    between atoms: C14_20  and  S1_21 
ROOT
HETATM    1  C4  UNL     1       0.855   0.060   0.185  1.00  0.00     0.188 C 
HETATM    2  C9  UNL     1       0.904   1.502   0.182  1.00  0.00     0.197 C 
HETATM    3  N1  UNL     1       0.745   2.368   1.323  1.00  0.00    -0.344 N 
ATOM      4  H1  UNL     1       1.317   2.352   2.167  1.00  0.00     0.163 HD
HETATM    5  C10 UNL     1      -0.356   3.258   1.070  1.00  0.00     0.265 C 
HETATM    6  O2  UNL     1      -0.488   4.424   1.418  1.00  0.00    -0.270 OA
HETATM    7  C11 UNL     1      -1.231   2.311   0.279  1.00  0.00     0.301 C 
HETATM    8  C12 UNL     1      -1.614   1.346   1.283  1.00  0.00     0.089 C 
HETATM    9  C13 UNL     1      -1.359  -0.083   1.181  1.00  0.00     0.249 C 
HETATM   10  N2  UNL     1      -0.477  -0.534   0.145  1.00  0.00    -0.020 N 
HETATM   11  C16 UNL     1      -1.273  -0.320  -1.026  1.00  0.00     0.209 C 
HETATM   12  C17 UNL     1      -2.264   0.501  -1.445  1.00  0.00    -0.032 C 
HETATM   13  C18 UNL     1      -2.677   0.169  -2.874  1.00  0.00     0.046 C 
HETATM   14  C19 UNL     1      -3.049   1.615  -0.910  1.00  0.00     0.309 C 
HETATM   15  N3  UNL     1      -2.320   2.781  -0.437  1.00  0.00     0.115 N 
HETATM   16  C20 UNL     1      -3.232   3.661   0.188  1.00  0.00     0.312 C 
HETATM   17  C21 UNL     1      -0.120   2.137  -0.683  1.00  0.00     0.200 C 
HETATM   18  O5  UNL     1      -0.138   2.465  -1.840  1.00  0.00    -0.292 OA
ENDROOT
BRANCH   1  19
HETATM   19  C3  UNL     1       1.757  -0.617   1.175  1.00  0.00     0.045 C 
BRANCH  19  20
HETATM   20  C2  UNL     1       1.648  -0.587   2.610  1.00  0.00    -0.002 C 
HETATM   21  C1  UNL     1       2.835  -1.421   3.240  1.00  0.00     0.005 C 
ENDBRANCH  19  20
ENDBRANCH   1  19
BRANCH   1  22
HETATM   22  C5  UNL     1       1.558  -0.388  -1.103  1.00  0.00     0.161 C 
BRANCH  22  23
HETATM   23  O1  UNL     1       0.997   0.060  -2.270  1.00  0.00    -0.393 OA
ATOM     24  H1  UNL     1       1.432  -0.217  -3.068  1.00  0.00     0.210 HD
ENDBRANCH  22  23
BRANCH  22  25
HETATM   25  C6  UNL     1       2.997  -0.446  -1.245  1.00  0.00     0.009 C 
HETATM   26  C7  UNL     1       3.323  -1.017  -2.690  1.00  0.00     0.012 C 
HETATM   27  C8  UNL     1       3.802   0.823  -1.318  1.00  0.00     0.012 C 
ENDBRANCH  22  25
ENDBRANCH   1  22
BRANCH  10  28
HETATM   28  C14 UNL     1      -0.474  -1.973   0.308  1.00  0.00     0.383 C 
BRANCH  28  29
HETATM   29  S1  UNL     1      -1.948  -2.758   0.787  1.00  0.00     0.166 S 
HETATM   30  C15 UNL     1      -1.554  -4.547   0.818  1.00  0.00     0.163 C 
HETATM   31  O3  UNL     1      -2.384  -2.535   2.211  1.00  0.00    -0.227 OA
HETATM   32  O4  UNL     1      -3.115  -2.672  -0.081  1.00  0.00    -0.227 OA
ENDBRANCH  28  29
ENDBRANCH  10  28
TORSDOF 7
