REMARK  3 active torsions:
REMARK  status: ('A' for Active; 'I' for Inactive)
REMARK    1  A    between atoms: C2_2  and  N1_3 
REMARK    2  A    between atoms: C2_2  and  C3_7 
REMARK    3  A    between atoms: C2_2  and  C9_13 
ROOT
HETATM    1  C1  UNL     1       0.235  -2.293   0.503  1.00  0.00     0.057 C 
HETATM    2  C2  UNL     1       0.007  -1.038  -0.287  1.00  0.00     0.174 C 
ENDROOT
BRANCH   2   3
HETATM    3  N1  UNL     1      -0.229  -1.412  -1.671  1.00  0.00    -0.062 N 
ATOM      4  H13 UNL     1       0.519  -1.989  -2.056  1.00  0.00     0.276 HD
ATOM      5  H12 UNL     1      -0.989  -2.085  -1.773  1.00  0.00     0.276 HD
ATOM      6  H11 UNL     1      -0.384  -0.559  -2.208  1.00  0.00     0.276 HD
ENDBRANCH   2   3
BRANCH   2   7
HETATM    7  C3  UNL     1       1.191  -0.127  -0.289  1.00  0.00    -0.018 A 
HETATM    8  C4  UNL     1       2.146  -0.179   0.700  1.00  0.00     0.010 A 
HETATM    9  C5  UNL     1       3.202   0.700   0.625  1.00  0.00     0.001 A 
HETATM   10  C6  UNL     1       3.303   1.617  -0.421  1.00  0.00     0.000 A 
HETATM   11  C7  UNL     1       2.344   1.653  -1.393  1.00  0.00     0.001 A 
HETATM   12  C8  UNL     1       1.268   0.784  -1.350  1.00  0.00     0.010 A 
ENDBRANCH   2   7
BRANCH   2  13
HETATM   13  C9  UNL     1      -1.179  -0.265   0.160  1.00  0.00    -0.018 A 
HETATM   14  C10 UNL     1      -1.205   0.312   1.437  1.00  0.00     0.010 A 
HETATM   15  C11 UNL     1      -2.314   1.028   1.836  1.00  0.00     0.001 A 
HETATM   16  C12 UNL     1      -3.421   1.213   1.035  1.00  0.00     0.000 A 
HETATM   17  C13 UNL     1      -3.398   0.647  -0.222  1.00  0.00     0.001 A 
HETATM   18  C14 UNL     1      -2.287  -0.078  -0.637  1.00  0.00     0.010 A 
ENDBRANCH   2  13
TORSDOF 3
