REMARK  3 active torsions:
REMARK  status: ('A' for Active; 'I' for Inactive)
REMARK    1  A    between atoms: C2_2  and  C3_3 
REMARK    2  A    between atoms: C5_5  and  C6_6 
REMARK    3  A    between atoms: C6_6  and  C8_8 
ROOT
HETATM    1  C3  UNL     1       2.696   0.328   0.184  1.00  0.00     0.049 A 
HETATM    2  C4  UNL     1       1.339   0.382  -0.108  1.00  0.00     0.062 A 
HETATM    3  C5  UNL     1       0.766  -0.856   0.065  1.00  0.00     0.060 A 
HETATM    4  N1  UNL     1       1.806  -1.647   0.465  1.00  0.00    -0.299 N 
ATOM      5  H1  UNL     1       1.730  -2.640   0.683  1.00  0.00     0.187 HD
HETATM    6  N2  UNL     1       2.915  -0.950   0.529  1.00  0.00    -0.300 N 
ATOM      7  H2  UNL     1       3.821  -1.328   0.804  1.00  0.00     0.187 HD
ENDROOT
BRANCH   3   8
HETATM    8  C6  UNL     1      -0.605  -1.320  -0.090  1.00  0.00    -0.007 C 
HETATM    9  C7  UNL     1      -0.782  -2.650  -0.218  1.00  0.00     0.026 C 
BRANCH   8  10
HETATM   10  C8  UNL     1      -1.770  -0.455  -0.126  1.00  0.00    -0.025 A 
HETATM   11  C9  UNL     1      -1.770   0.761   0.497  1.00  0.00     0.012 A 
HETATM   12  C10 UNL     1      -2.898   1.593   0.428  1.00  0.00     0.001 A 
HETATM   13  C11 UNL     1      -4.022   1.214  -0.258  1.00  0.00     0.000 A 
HETATM   14  C12 UNL     1      -4.041   0.003  -0.885  1.00  0.00     0.001 A 
HETATM   15  C13 UNL     1      -2.914  -0.822  -0.813  1.00  0.00     0.012 A 
ENDBRANCH   8  10
ENDBRANCH   3   8
BRANCH   1  16
HETATM   16  C2  UNL     1       3.652   1.424   0.123  1.00  0.00     0.021 C 
HETATM   17  C1  UNL     1       4.916   1.230   0.429  1.00  0.00     0.013 C 
ENDBRANCH   1  16
TORSDOF 3
