REMARK  2 active torsions:
REMARK  status: ('A' for Active; 'I' for Inactive)
REMARK    1  A    between atoms: O1_1  and  C1_3 
REMARK    2  A    between atoms: C5_10  and  C6_11 
ROOT
HETATM    1  C1  UNL     1      -1.910  -0.157   0.208  1.00  0.00     0.110 C 
HETATM    2  C2  UNL     1      -3.249   0.496  -0.059  1.00  0.00     0.208 C 
HETATM    3  O2  UNL     1      -3.038   1.870  -0.035  1.00  0.00    -0.386 OA
HETATM    4  C3  UNL     1      -1.696   2.103  -0.227  1.00  0.00     0.196 C 
HETATM    5  C4  UNL     1      -1.041   0.812  -0.602  1.00  0.00     0.143 C 
HETATM    6  N1  UNL     1       0.341   0.735  -0.297  1.00  0.00    -0.372 N 
ATOM      7  H1  UNL     1       0.858   1.574  -0.035  1.00  0.00     0.160 HD
HETATM    8  C5  UNL     1       0.936  -0.400  -0.354  1.00  0.00     0.100 C 
HETATM    9  S1  UNL     1      -0.035  -1.834  -0.820  1.00  0.00    -0.107 SA
HETATM   10  C10 UNL     1      -1.788  -1.521  -0.416  1.00  0.00     0.123 C 
ENDROOT
BRANCH   8  11
HETATM   11  C6  UNL     1       2.366  -0.552  -0.051  1.00  0.00     0.108 A 
HETATM   12  C7  UNL     1       3.227   0.454   0.319  1.00  0.00     0.042 A 
HETATM   13  C8  UNL     1       4.478  -0.081   0.515  1.00  0.00     0.027 A 
HETATM   14  C9  UNL     1       4.324  -1.434   0.249  1.00  0.00     0.142 A 
HETATM   15  O3  UNL     1       3.079  -1.646  -0.073  1.00  0.00    -0.320 OA
ENDBRANCH   8  11
BRANCH   1  16
HETATM   16  O1  UNL     1      -1.595  -0.126   1.545  1.00  0.00    -0.385 OA
ATOM     17  H1  UNL     1      -0.755  -0.536   1.713  1.00  0.00     0.210 HD
ENDBRANCH   1  16
TORSDOF 2
