REMARK  3 active torsions:
REMARK  status: ('A' for Active; 'I' for Inactive)
REMARK    1  A    between atoms: C6_6  and  O1_7 
REMARK    2  A    between atoms: O1_7  and  C7_8 
REMARK    3  A    between atoms: C11_15  and  S1_16 
ROOT
HETATM    1  C7  UNL     1      -1.425  -0.237  -0.113  1.00  0.00     0.174 A 
HETATM    2  N1  UNL     1      -2.088  -1.305   0.353  1.00  0.00    -0.338 N 
ATOM      3  H1  UNL     1      -1.647  -2.108   0.800  1.00  0.00     0.168 HD
HETATM    4  C8  UNL     1      -3.430  -1.176   0.150  1.00  0.00     0.031 A 
HETATM    5  C9  UNL     1      -4.440  -2.202   0.560  1.00  0.00     0.070 C 
HETATM    6  C10 UNL     1      -3.648   0.017  -0.472  1.00  0.00     0.085 A 
HETATM    7 CL1  UNL     1      -5.221   0.672  -0.962  1.00  0.00    -0.080 Cl
HETATM    8  C11 UNL     1      -2.417   0.600  -0.637  1.00  0.00     0.155 A 
ENDROOT
BRANCH   1   9
HETATM    9  O1  UNL     1      -0.104   0.096  -0.138  1.00  0.00    -0.292 OA
BRANCH   9  10
HETATM   10  C6  UNL     1       1.045  -0.449   0.238  1.00  0.00     0.084 A 
HETATM   11  C5  UNL     1       1.278  -1.690   0.789  1.00  0.00     0.038 A 
HETATM   12  C4  UNL     1       2.537  -2.163   1.152  1.00  0.00     0.003 A 
HETATM   13  C3  UNL     1       3.626  -1.360   0.956  1.00  0.00     0.007 A 
HETATM   14  C2  UNL     1       3.462  -0.111   0.410  1.00  0.00    -0.053 A 
HETATM   15  C1  UNL     1       4.642   0.766   0.195  1.00  0.00     0.049 C 
HETATM   16  C12 UNL     1       2.207   0.334   0.061  1.00  0.00    -0.022 A 
HETATM   17  C13 UNL     1       2.026   1.674  -0.509  1.00  0.00     0.052 C 
ENDBRANCH   9  10
ENDBRANCH   1   9
BRANCH   8  18
HETATM   18  S1  UNL     1      -2.187   2.134  -1.428  1.00  0.00     0.143 S 
HETATM   19  O2  UNL     1      -3.359   2.441  -2.343  1.00  0.00    -0.591 OA
HETATM   20  O3  UNL     1      -0.986   2.107  -2.308  1.00  0.00    -0.591 OA
HETATM   21  O4  UNL     1      -2.062   3.377  -0.341  1.00  0.00    -0.591 OA
ENDBRANCH   8  18
TORSDOF 3
