REMARK  4 active torsions:
REMARK  status: ('A' for Active; 'I' for Inactive)
REMARK    1  A    between atoms: C2_2  and  C3_3 
REMARK    2  A    between atoms: C4_6  and  N2_7 
REMARK    3  A    between atoms: N2_7  and  C5_9 
REMARK    4  A    between atoms: C15_22  and  C16_23 
ROOT
HETATM    1  C3  UNL     1       2.808   0.478  -0.331  1.00  0.00     0.044 A 
HETATM    2  N1  UNL     1       1.537   0.899  -0.334  1.00  0.00    -0.342 N 
ATOM      3  H1  UNL     1       1.356   1.878  -0.555  1.00  0.00     0.167 HD
HETATM    4  C4  UNL     1       0.462   0.089  -0.057  1.00  0.00     0.128 A 
HETATM    5  C13 UNL     1       0.713  -1.226   0.240  1.00  0.00     0.050 A 
HETATM    6  C14 UNL     1      -0.387  -2.199   0.555  1.00  0.00     0.072 C 
HETATM    7  N3  UNL     1       1.986  -1.650   0.243  1.00  0.00    -0.350 N 
ATOM      8  H3  UNL     1       2.170  -2.629   0.463  1.00  0.00     0.166 HD
HETATM    9  C15 UNL     1       3.052  -0.835  -0.035  1.00  0.00     0.133 A 
ENDROOT
BRANCH   4  10
HETATM   10  N2  UNL     1      -0.646   0.637  -0.103  1.00  0.00    -0.340 N 
ATOM     11  H2  UNL     1      -0.515   1.618  -0.349  1.00  0.00     0.167 HD
BRANCH  10  12
HETATM   12  C5  UNL     1      -1.971   0.402   0.056  1.00  0.00     0.040 A 
HETATM   13  C6  UNL     1      -2.737  -0.282  -0.879  1.00  0.00     0.038 A 
HETATM   14  C7  UNL     1      -4.084  -0.520  -0.759  1.00  0.00    -0.038 A 
HETATM   15  C8  UNL     1      -4.837  -1.264  -1.808  1.00  0.00     0.050 C 
HETATM   16  C9  UNL     1      -4.711  -0.041   0.376  1.00  0.00     0.040 A 
HETATM   17 CL1  UNL     1      -6.418  -0.337   0.536  1.00  0.00    -0.084 Cl
HETATM   18  C10 UNL     1      -4.002   0.651   1.350  1.00  0.00     0.033 A 
HETATM   19  C11 UNL     1      -2.657   0.866   1.189  1.00  0.00    -0.034 A 
HETATM   20  C12 UNL     1      -1.942   1.615   2.264  1.00  0.00     0.050 C 
ENDBRANCH  10  12
ENDBRANCH   4  10
BRANCH   1  21
HETATM   21  C2  UNL     1       3.916   1.420  -0.626  1.00  0.00     0.055 C 
HETATM   22  C1  UNL     1       4.640   1.907   0.601  1.00  0.00     0.011 C 
ENDBRANCH   1  21
BRANCH   9  23
HETATM   23  C16 UNL     1       4.359  -1.464  -0.004  1.00  0.00     0.228 C 
HETATM   24  O1  UNL     1       4.473  -2.704   0.296  1.00  0.00    -0.643 OA
HETATM   25  O2  UNL     1       5.546  -0.836  -0.278  1.00  0.00    -0.643 OA
ENDBRANCH   9  23
TORSDOF 4
