REMARK  3 active torsions:
REMARK  status: ('A' for Active; 'I' for Inactive)
REMARK    1  A    between atoms: C2_2  and  N1_3 
REMARK    2  A    between atoms: C3_5  and  N2_6 
REMARK    3  A    between atoms: N3_8  and  N4_10 
ROOT
HETATM    1  N2  UNL     1       1.272  -0.222   0.051  1.00  0.00    -0.282 N 
ATOM      2  H2  UNL     1       1.211   0.372   0.878  1.00  0.00     0.189 HD
HETATM    3  N3  UNL     1       0.253  -0.500  -0.627  1.00  0.00    -0.243 N 
ATOM      4  H3  UNL     1       0.371  -1.097  -1.445  1.00  0.00     0.208 HD
ENDROOT
BRANCH   3   5
HETATM    5  N4  UNL     1      -1.037  -0.041  -0.330  1.00  0.00    -0.305 N 
HETATM    6  C4  UNL     1      -2.121  -0.977  -0.574  1.00  0.00     0.100 C 
HETATM    7  C5  UNL     1      -1.789  -2.364  -0.102  1.00  0.00     0.034 C 
HETATM    8  C6  UNL     1      -3.328  -0.466   0.178  1.00  0.00     0.026 C 
HETATM    9  C7  UNL     1      -3.671   0.891  -0.403  1.00  0.00     0.004 C 
HETATM   10  C8  UNL     1      -2.562   1.886  -0.262  1.00  0.00     0.026 C 
HETATM   11  C9  UNL     1      -1.264   1.296   0.192  1.00  0.00     0.100 C 
HETATM   12  C10 UNL     1      -1.097   1.345   1.700  1.00  0.00     0.034 C 
ENDBRANCH   3   5
BRANCH   1  13
HETATM   13  C3  UNL     1       2.515  -0.766  -0.378  1.00  0.00     0.194 C 
HETATM   14  N1  UNL     1       3.553  -0.012  -0.282  1.00  0.00    -0.385 N 
ATOM     15  H1  UNL     1       3.464   0.934   0.090  1.00  0.00     0.160 HD
BRANCH  14  16
HETATM   16  C2  UNL     1       4.845  -0.506  -0.701  1.00  0.00     0.116 C 
HETATM   17  C1  UNL     1       5.924   0.300  -0.012  1.00  0.00     0.026 C 
ENDBRANCH  14  16
ENDBRANCH   1  13
TORSDOF 3
