REMARK  4 active torsions:
REMARK  status: ('A' for Active; 'I' for Inactive)
REMARK    1  A    between atoms: C3_6  and  S1_7 
REMARK    2  A    between atoms: S1_7  and  C4_8 
REMARK    3  A    between atoms: C8_13  and  C9_14 
REMARK    4  A    between atoms: C14_19  and  N2_20 
ROOT
HETATM    1  C4  UNL     1       0.188  -0.250  -0.150  1.00  0.00     0.011 A 
HETATM    2  C5  UNL     1       0.125  -1.544  -0.147  1.00  0.00     0.069 A 
HETATM    3  C6  UNL     1      -1.128  -2.333  -0.171  1.00  0.00     0.154 A 
HETATM    4  O2  UNL     1      -1.065  -3.599  -0.177  1.00  0.00    -0.293 OA
HETATM    5  C7  UNL     1      -2.420  -1.629  -0.188  1.00  0.00     0.118 A 
HETATM    6  C8  UNL     1      -2.265  -0.159  -0.191  1.00  0.00    -0.064 A 
HETATM    7  C13 UNL     1      -1.116   0.458  -0.175  1.00  0.00     0.023 A 
ENDROOT
BRANCH   1   8
HETATM    8  S1  UNL     1       1.669   0.716  -0.122  1.00  0.00    -0.068 SA
BRANCH   8   9
HETATM    9  C3  UNL     1       3.173  -0.196  -0.108  1.00  0.00     0.132 A 
HETATM   10  N1  UNL     1       3.406  -1.513  -0.118  1.00  0.00    -0.252 N 
HETATM   11  O1  UNL     1       4.686  -1.768  -0.099  1.00  0.00    -0.239 OA
ATOM     12  H1  UNL     1       2.677  -2.226  -0.138  1.00  0.00     0.195 HD
HETATM   13  C2  UNL     1       5.366  -0.671  -0.076  1.00  0.00     0.108 A 
HETATM   14  C1  UNL     1       6.843  -0.481  -0.050  1.00  0.00     0.081 C 
HETATM   15  C14 UNL     1       4.459   0.363  -0.080  1.00  0.00     0.169 A 
BRANCH  15  16
HETATM   16  N2  UNL     1       4.692   1.748  -0.061  1.00  0.00    -0.110 N 
HETATM   17  O3  UNL     1       5.113   2.335  -1.063  1.00  0.00    -0.532 OA
HETATM   18  O4  UNL     1       4.449   2.449   1.084  1.00  0.00    -0.532 OA
ENDBRANCH  15  16
ENDBRANCH   8   9
ENDBRANCH   1   8
BRANCH   6  19
HETATM   19  C9  UNL     1      -3.553   0.630  -0.215  1.00  0.00    -0.027 C 
HETATM   20  C10 UNL     1      -4.323   0.254  -1.465  1.00  0.00     0.019 C 
HETATM   21  C11 UNL     1      -3.232   2.105  -0.315  1.00  0.00     0.019 C 
HETATM   22  C12 UNL     1      -4.289   0.348   1.053  1.00  0.00     0.019 C 
ENDBRANCH   6  19
TORSDOF 4
