REMARK  5 active torsions:
REMARK  status: ('A' for Active; 'I' for Inactive)
REMARK    1  A    between atoms: C2_2  and  O1_5 
REMARK    2  A    between atoms: O1_5  and  C5_6 
REMARK    3  A    between atoms: C5_6  and  C6_8 
REMARK    4  A    between atoms: C6_8  and  S1_9 
REMARK    5  A    between atoms: S1_9  and  C7_10 
ROOT
HETATM    1  C7  UNL     1       2.241   0.492   0.217  1.00  0.00     0.113 A 
HETATM    2  N1  UNL     1       2.977  -0.391  -0.410  1.00  0.00    -0.339 N 
ATOM      3  H1  UNL     1       2.533  -1.142  -0.939  1.00  0.00     0.167 HD
HETATM    4  C8  UNL     1       4.283  -0.310  -0.358  1.00  0.00     0.084 A 
HETATM    5  C9  UNL     1       4.853   0.682   0.340  1.00  0.00     0.019 A 
HETATM    6  S2  UNL     1       3.445   1.495   0.921  1.00  0.00    -0.067 SA
HETATM    7  C10 UNL     1       6.309   0.751   0.374  1.00  0.00     0.059 C 
HETATM    8  C11 UNL     1       6.913  -0.580   0.127  1.00  0.00     0.086 C 
HETATM    9  S3  UNL     1       5.655  -1.273  -1.031  1.00  0.00    -0.111 SA
ENDROOT
BRANCH   1  10
HETATM   10  S1  UNL     1       0.442   0.630   0.322  1.00  0.00    -0.095 SA
BRANCH  10  11
HETATM   11  C6  UNL     1      -0.288  -0.709  -0.621  1.00  0.00     0.192 C 
BRANCH  11  12
HETATM   12  C5  UNL     1      -1.760  -0.696  -0.606  1.00  0.00     0.269 C 
HETATM   13  O2  UNL     1      -2.401  -1.581  -1.228  1.00  0.00    -0.264 OA
BRANCH  12  14
HETATM   14  O1  UNL     1      -2.504   0.259   0.071  1.00  0.00    -0.311 OA
BRANCH  14  15
HETATM   15  C2  UNL     1      -3.918   0.206   0.040  1.00  0.00     0.060 C 
HETATM   16  C1  UNL     1      -4.439   1.367   0.862  1.00  0.00     0.045 C 
HETATM   17  C3  UNL     1      -4.412  -1.059   0.703  1.00  0.00     0.045 C 
HETATM   18  C4  UNL     1      -4.480   0.305  -1.337  1.00  0.00     0.045 C 
ENDBRANCH  14  15
ENDBRANCH  12  14
ENDBRANCH  11  12
ENDBRANCH  10  11
ENDBRANCH   1  10
TORSDOF 5
