REMARK  6 active torsions:
REMARK  status: ('A' for Active; 'I' for Inactive)
REMARK    1  A    between atoms: C2_2  and  N1_3 
REMARK    2  A    between atoms: C8_15  and  C9_16 
REMARK    3  A    between atoms: C9_16  and  C10_17 
REMARK    4  A    between atoms: C10_17  and  C11_18 
REMARK    5  A    between atoms: C11_18  and  S1_19 
REMARK    6  A    between atoms: C14_27  and  C15_28 
ROOT
HETATM    1  N1  UNL     1      -4.747  -0.407   0.628  1.00  0.00    -0.371 N 
ATOM      2  H1  UNL     1      -5.084   0.469   1.028  1.00  0.00     0.161 HD
HETATM    3  C3  UNL     1      -3.485  -0.487   0.391  1.00  0.00     0.137 C 
HETATM    4  N2  UNL     1      -2.971  -1.677  -0.163  1.00  0.00    -0.354 N 
ATOM      5  H2  UNL     1      -3.475  -2.542   0.030  1.00  0.00     0.163 HD
HETATM    6  C4  UNL     1      -1.781  -1.765  -0.986  1.00  0.00     0.105 C 
HETATM    7  C5  UNL     1      -1.947  -0.839  -2.139  1.00  0.00     0.048 C 
HETATM    8  C6  UNL     1      -1.708  -3.187  -1.562  1.00  0.00     0.048 C 
HETATM    9  C7  UNL     1      -0.545  -1.575  -0.196  1.00  0.00     0.246 C 
HETATM   10  O1  UNL     1      -0.473  -2.401   0.794  1.00  0.00    -0.271 OA
HETATM   11  N3  UNL     1       0.487  -0.672  -0.376  1.00  0.00    -0.346 N 
ATOM     12  H3  UNL     1       0.695  -0.080   0.428  1.00  0.00     0.163 HD
HETATM   13  C8  UNL     1       1.303  -0.449  -1.526  1.00  0.00     0.176 C 
HETATM   14  C13 UNL     1       2.237   0.680  -1.454  1.00  0.00     0.241 C 
HETATM   15  O4  UNL     1       3.069   0.710  -2.443  1.00  0.00    -0.271 OA
HETATM   16  N4  UNL     1       2.315   1.689  -0.464  1.00  0.00    -0.346 N 
ATOM     17  H4  UNL     1       3.221   1.810  -0.011  1.00  0.00     0.163 HD
HETATM   18  C14 UNL     1       1.255   2.567  -0.023  1.00  0.00     0.180 C 
HETATM   19  C18 UNL     1       1.481   2.942   1.417  1.00  0.00     0.240 C 
HETATM   20  O5  UNL     1       2.659   2.768   1.886  1.00  0.00    -0.271 OA
HETATM   21  N5  UNL     1       0.502   3.462   2.269  1.00  0.00    -0.359 N 
ATOM     22  H5  UNL     1       0.771   4.249   2.859  1.00  0.00     0.162 HD
HETATM   23  C19 UNL     1      -0.856   2.986   2.389  1.00  0.00     0.123 C 
HETATM   24  C20 UNL     1      -0.924   1.565   2.925  1.00  0.00     0.030 C 
HETATM   25  C21 UNL     1      -2.332   1.047   2.599  1.00  0.00     0.084 C 
HETATM   26  S2  UNL     1      -2.495   0.931   0.789  1.00  0.00    -0.094 SA
ENDROOT
BRANCH  13  27
HETATM   27  C9  UNL     1       1.978  -1.668  -2.077  1.00  0.00     0.036 C 
BRANCH  27  28
HETATM   28  C10 UNL     1       2.861  -2.453  -1.204  1.00  0.00     0.017 C 
BRANCH  28  29
HETATM   29  C11 UNL     1       4.030  -1.701  -0.682  1.00  0.00     0.140 C 
BRANCH  29  30
HETATM   30  S1  UNL     1       5.058  -2.759   0.357  1.00  0.00     0.140 S 
HETATM   31  C12 UNL     1       4.145  -3.367   1.729  1.00  0.00     0.161 C 
HETATM   32  O2  UNL     1       6.192  -1.914   0.864  1.00  0.00    -0.228 OA
HETATM   33  O3  UNL     1       5.655  -3.850  -0.488  1.00  0.00    -0.228 OA
ENDBRANCH  29  30
ENDBRANCH  28  29
ENDBRANCH  27  28
ENDBRANCH  13  27
BRANCH  18  34
HETATM   34  C15 UNL     1       1.376   3.899  -0.785  1.00  0.00     0.009 C 
HETATM   35  C16 UNL     1       1.254   3.666  -2.275  1.00  0.00     0.012 C 
HETATM   36  C17 UNL     1       0.338   4.891  -0.379  1.00  0.00     0.012 C 
ENDBRANCH  18  34
BRANCH   1  37
HETATM   37  C2  UNL     1      -5.723  -1.420   0.388  1.00  0.00     0.117 C 
HETATM   38  C1  UNL     1      -5.734  -2.399   1.527  1.00  0.00     0.026 C 
ENDBRANCH   1  37
TORSDOF 6
