REMARK  7 active torsions:
REMARK  status: ('A' for Active; 'I' for Inactive)
REMARK    1  A    between atoms: N1_1  and  C1_5 
REMARK    2  A    between atoms: N2_7  and  C3_8 
REMARK    3  A    between atoms: C11_16  and  N3_17 
REMARK       I    between atoms: N3_17  and  C12_19 
REMARK    4  A    between atoms: C12_19  and  C13_21 
REMARK    5  A    between atoms: C13_21  and  C14_23 
REMARK    6  A    between atoms: N4_24  and  N5_26 
REMARK    7  A    between atoms: N5_26  and  C15_28 
ROOT
HETATM    1  N3  UNL     1       0.616   0.634  -0.350  1.00  0.00    -0.347 N 
ATOM      2  H3  UNL     1       0.206   1.479  -0.748  1.00  0.00     0.163 HD
HETATM    3  C12 UNL     1       2.004   0.627  -0.076  1.00  0.00     0.293 C 
HETATM    4  O1  UNL     1       2.520  -0.408   0.419  1.00  0.00    -0.264 OA
ENDROOT
BRANCH   1   5
HETATM    5  C11 UNL     1      -0.253  -0.497  -0.094  1.00  0.00     0.118 C 
HETATM    6  C1  UNL     1      -0.933  -0.239   1.251  1.00  0.00     0.223 C 
HETATM    7  C2  UNL     1      -2.314   0.340   1.057  1.00  0.00     0.152 C 
HETATM    8  N2  UNL     1      -3.163  -0.563   0.324  1.00  0.00    -0.406 N 
HETATM    9  C9  UNL     1      -2.504  -1.287  -0.692  1.00  0.00     0.119 C 
HETATM   10  C10 UNL     1      -1.266  -0.564  -1.167  1.00  0.00     0.047 C 
BRANCH   6  11
HETATM   11  N1  UNL     1      -0.174   0.693   2.061  1.00  0.00    -0.071 N 
ATOM     12  H13 UNL     1      -0.158   1.635   1.671  1.00  0.00     0.274 HD
ATOM     13  H12 UNL     1      -0.636   0.920   2.942  1.00  0.00     0.274 HD
ATOM     14  H11 UNL     1       0.759   0.302   2.192  1.00  0.00     0.274 HD
ENDBRANCH   6  11
BRANCH   8  15
HETATM   15  C3  UNL     1      -4.480  -0.102   0.130  1.00  0.00     0.079 C 
HETATM   16  C4  UNL     1      -4.662   1.125  -0.687  1.00  0.00     0.025 C 
HETATM   17  C5  UNL     1      -6.134   1.230  -1.045  1.00  0.00     0.002 C 
HETATM   18  C6  UNL     1      -7.020   0.689   0.039  1.00  0.00     0.000 C 
HETATM   19  C7  UNL     1      -6.836  -0.789   0.258  1.00  0.00     0.002 C 
HETATM   20  C8  UNL     1      -5.461  -1.155  -0.317  1.00  0.00     0.025 C 
ENDBRANCH   8  15
ENDBRANCH   1   5
BRANCH   3  21
HETATM   21  C13 UNL     1       2.821   1.797  -0.362  1.00  0.00     0.255 C 
HETATM   22  O2  UNL     1       2.267   2.824  -0.899  1.00  0.00    -0.281 OA
BRANCH  21  23
HETATM   23  C14 UNL     1       4.227   1.822  -0.053  1.00  0.00     0.167 C 
HETATM   24  N4  UNL     1       4.811   0.825   0.481  1.00  0.00    -0.307 N 
ATOM     25  H4  UNL     1       4.259  -0.007   0.690  1.00  0.00     0.186 HD
BRANCH  24  26
HETATM   26  N5  UNL     1       6.179   0.816   0.796  1.00  0.00    -0.301 N 
ATOM     27  H5  UNL     1       6.559   1.476   1.475  1.00  0.00     0.187 HD
BRANCH  26  28
HETATM   28  C15 UNL     1       7.023  -0.124   0.156  1.00  0.00     0.048 A 
HETATM   29  C16 UNL     1       7.476  -1.282   0.732  1.00  0.00     0.032 A 
HETATM   30  C17 UNL     1       8.292  -2.156   0.066  1.00  0.00     0.026 A 
HETATM   31  C18 UNL     1       8.709  -1.908  -1.248  1.00  0.00     0.034 A 
HETATM   32 CL1  UNL     1       9.758  -3.040  -2.091  1.00  0.00    -0.084 Cl
HETATM   33  C19 UNL     1       8.252  -0.743  -1.823  1.00  0.00     0.026 A 
HETATM   34  C20 UNL     1       7.435   0.129  -1.155  1.00  0.00     0.032 A 
ENDBRANCH  26  28
ENDBRANCH  24  26
ENDBRANCH  21  23
ENDBRANCH   3  21
TORSDOF 7
