REMARK  11 active torsions:
REMARK  status: ('A' for Active; 'I' for Inactive)
REMARK    1  A    between atoms: C2_2  and  C3_3 
REMARK    2  A    between atoms: C3_3  and  O1_4 
REMARK    3  A    between atoms: O1_4  and  C4_5 
REMARK    4  A    between atoms: C5_7  and  C7_9 
REMARK    5  A    between atoms: C7_9  and  O3_10 
REMARK    6  A    between atoms: O3_10  and  C8_11 
REMARK    7  A    between atoms: C8_11  and  C9_13 
REMARK    8  A    between atoms: C13_17  and  N1_18 
REMARK       I    between atoms: N1_18  and  C14_20 
REMARK    9  A    between atoms: C14_20  and  C15_22 
REMARK   10  A    between atoms: C18_26  and  O6_27 
REMARK   11  A    between atoms: C19_29  and  O7_30 
ROOT
HETATM    1  C4  UNL     1      -1.046   1.841  -0.845  1.00  0.00     0.292 C 
HETATM    2  O2  UNL     1       0.010   1.007  -1.107  1.00  0.00    -0.344 OA
HETATM    3  C5  UNL     1      -0.192  -0.326  -1.054  1.00  0.00     0.105 C 
HETATM    4  C6  UNL     1       0.698  -0.904  -2.197  1.00  0.00     0.051 C 
HETATM    5  C13 UNL     1      -1.574  -0.837  -1.342  1.00  0.00     0.152 C 
HETATM    6  C18 UNL     1      -2.677   0.150  -1.286  1.00  0.00     0.177 C 
HETATM    7  C19 UNL     1      -2.149   1.474  -1.836  1.00  0.00     0.204 C 
ENDROOT
BRANCH   3   8
HETATM    8  C7  UNL     1       0.389  -0.946   0.193  1.00  0.00     0.218 C 
BRANCH   8   9
HETATM    9  O3  UNL     1       1.739  -0.878   0.379  1.00  0.00    -0.318 OA
BRANCH   9  10
HETATM   10  C8  UNL     1       2.625   0.119   0.560  1.00  0.00     0.266 C 
HETATM   11  O4  UNL     1       2.203   1.297   0.584  1.00  0.00    -0.264 OA
BRANCH  10  12
HETATM   12  C9  UNL     1       4.105  -0.109   0.735  1.00  0.00     0.037 C 
HETATM   13  C10 UNL     1       4.769   1.215   0.905  1.00  0.00     0.025 C 
HETATM   14  C11 UNL     1       4.676  -0.836  -0.460  1.00  0.00     0.025 C 
HETATM   15  C12 UNL     1       4.365  -0.993   1.945  1.00  0.00     0.025 C 
ENDBRANCH  10  12
ENDBRANCH   9  10
ENDBRANCH   8   9
ENDBRANCH   3   8
BRANCH   5  16
HETATM   16  N1  UNL     1      -1.909  -1.911  -0.417  1.00  0.00    -0.349 N 
HETATM   17  C14 UNL     1      -2.203  -3.240  -0.843  1.00  0.00     0.241 C 
HETATM   18  O5  UNL     1      -2.156  -3.447  -2.080  1.00  0.00    -0.271 OA
ATOM     19  H1  UNL     1      -1.935  -1.703   0.581  1.00  0.00     0.163 HD
BRANCH  17  20
HETATM   20  C15 UNL     1      -2.542  -4.329   0.066  1.00  0.00     0.110 C 
HETATM   21  C16 UNL     1      -1.465  -4.642   1.080  1.00  0.00     0.042 C 
HETATM   22  C17 UNL     1      -3.810  -4.046   0.866  1.00  0.00     0.042 C 
HETATM   23 CL1  UNL     1      -2.841  -5.806  -0.862  1.00  0.00    -0.110 Cl
ENDBRANCH  17  20
ENDBRANCH   5  16
BRANCH   1  24
HETATM   24  O1  UNL     1      -0.659   3.152  -0.958  1.00  0.00    -0.359 OA
BRANCH  24  25
HETATM   25  C3  UNL     1      -0.826   3.850   0.237  1.00  0.00     0.170 C 
BRANCH  25  26
HETATM   26  C2  UNL     1      -0.398   5.295   0.103  1.00  0.00     0.022 C 
HETATM   27  C1  UNL     1      -0.634   5.932   1.478  1.00  0.00     0.007 C 
ENDBRANCH  25  26
ENDBRANCH  24  25
ENDBRANCH   1  24
BRANCH   6  28
HETATM   28  O6  UNL     1      -3.239   0.349  -0.051  1.00  0.00    -0.391 OA
ATOM     29  H6  UNL     1      -3.946   0.982  -0.015  1.00  0.00     0.210 HD
ENDBRANCH   6  28
BRANCH   7  30
HETATM   30  O7  UNL     1      -3.167   2.406  -1.850  1.00  0.00    -0.388 OA
ATOM     31  H7  UNL     1      -3.853   2.178  -2.466  1.00  0.00     0.210 HD
ENDBRANCH   7  30
TORSDOF 11
