REMARK  8 active torsions:
REMARK  status: ('A' for Active; 'I' for Inactive)
REMARK    1  A    between atoms: N1_1  and  C1_5 
REMARK    2  A    between atoms: N2_8  and  C4_9 
REMARK    3  A    between atoms: C6_13  and  C7_14 
REMARK    4  A    between atoms: C7_14  and  C8_15 
REMARK    5  A    between atoms: C10_19  and  N5_20 
REMARK    6  A    between atoms: N5_20  and  C11_22 
REMARK    7  A    between atoms: C11_22  and  C12_23 
REMARK    8  A    between atoms: C12_23  and  C13_24 
ROOT
HETATM    1  C4  UNL     1      -4.025   0.147  -0.177  1.00  0.00     0.160 A 
HETATM    2  N3  UNL     1      -3.019   1.077  -0.243  1.00  0.00    -0.347 N 
ATOM      3  H3  UNL     1      -3.053   1.871   0.396  1.00  0.00     0.167 HD
HETATM    4  C5  UNL     1      -1.997   0.998  -1.100  1.00  0.00     0.115 A 
HETATM    5  C6  UNL     1      -1.890  -0.046  -1.988  1.00  0.00     0.032 A 
HETATM    6  N7  UNL     1      -2.860  -0.969  -1.945  1.00  0.00    -0.332 N 
ATOM      7  H7  UNL     1      -2.815  -1.759  -2.588  1.00  0.00     0.168 HD
HETATM    8  C18 UNL     1      -3.911  -0.889  -1.067  1.00  0.00     0.233 A 
HETATM    9  F1  UNL     1      -4.845  -1.863  -1.116  1.00  0.00    -0.182 F 
ENDROOT
BRANCH   5  10
HETATM   10  C7  UNL     1      -0.801  -0.202  -2.956  1.00  0.00     0.106 C 
BRANCH  10  11
HETATM   11  C8  UNL     1       0.354  -0.992  -2.401  1.00  0.00     0.007 A 
HETATM   12  C9  UNL     1       0.555  -2.346  -2.448  1.00  0.00     0.105 A 
HETATM   13  N4  UNL     1       1.631  -2.826  -1.902  1.00  0.00    -0.346 N 
HETATM   14  C10 UNL     1       2.484  -1.983  -1.323  1.00  0.00     0.144 A 
ATOM     15  H4  UNL     1       1.819  -3.828  -1.916  1.00  0.00     0.167 HD
HETATM   16  S1  UNL     1       1.743  -0.461  -1.559  1.00  0.00    -0.057 SA
BRANCH  14  17
HETATM   17  N5  UNL     1       3.618  -2.276  -0.722  1.00  0.00    -0.370 N 
ATOM     18  H5  UNL     1       3.937  -3.243  -0.658  1.00  0.00     0.161 HD
BRANCH  17  19
HETATM   19  C11 UNL     1       4.419  -1.184  -0.143  1.00  0.00     0.122 C 
BRANCH  19  20
HETATM   20  C12 UNL     1       5.835  -1.501  -0.437  1.00  0.00     0.024 C 
BRANCH  20  21
HETATM   21  C13 UNL     1       6.865  -0.532   0.064  1.00  0.00    -0.010 C 
HETATM   22  C14 UNL     1       6.716   0.860  -0.477  1.00  0.00     0.032 C 
HETATM   23  C15 UNL     1       5.973   1.813   0.385  1.00  0.00     0.232 C 
HETATM   24  N6  UNL     1       6.475   1.791   1.733  1.00  0.00    -0.075 N 
HETATM   25  C16 UNL     1       6.396   0.482   2.336  1.00  0.00     0.232 C 
ATOM     26  H62 UNL     1       7.426   2.156   1.775  1.00  0.00     0.277 HD
ATOM     27  H61 UNL     1       6.005   2.488   2.310  1.00  0.00     0.277 HD
HETATM   28  C17 UNL     1       7.106  -0.566   1.521  1.00  0.00     0.032 C 
ENDBRANCH  20  21
ENDBRANCH  19  20
ENDBRANCH  17  19
ENDBRANCH  14  17
ENDBRANCH  10  11
ENDBRANCH   5  10
BRANCH   1  29
HETATM   29  N2  UNL     1      -5.060   0.289   0.770  1.00  0.00    -0.363 N 
HETATM   30  C3  UNL     1      -5.135   1.610   1.438  1.00  0.00     0.126 C 
HETATM   31  C2  UNL     1      -6.573   1.872   1.830  1.00  0.00     0.052 C 
HETATM   32  C1  UNL     1      -7.573   1.275   0.860  1.00  0.00     0.186 C 
HETATM   33  C20 UNL     1      -7.441  -0.236   0.778  1.00  0.00     0.052 C 
HETATM   34  C19 UNL     1      -6.035  -0.660   1.183  1.00  0.00     0.126 C 
BRANCH  32  35
HETATM   35  N1  UNL     1      -8.890   1.648   1.341  1.00  0.00    -0.075 N 
ATOM     36  H13 UNL     1      -9.057   1.377   2.310  1.00  0.00     0.274 HD
ATOM     37  H12 UNL     1      -9.003   2.654   1.469  1.00  0.00     0.274 HD
ATOM     38  H11 UNL     1      -9.563   1.246   0.688  1.00  0.00     0.274 HD
ENDBRANCH  32  35
ENDBRANCH   1  29
TORSDOF 8
