REMARK  3 active torsions:
REMARK  status: ('A' for Active; 'I' for Inactive)
REMARK    1  A    between atoms: O1_1  and  N1_3 
REMARK    2  A    between atoms: C4_9  and  N3_10 
REMARK    3  A    between atoms: N3_10  and  C5_12 
ROOT
HETATM    1  N3  UNL     1       0.903  -0.273   1.053  1.00  0.00    -0.220 N 
ATOM      2  H3  UNL     1       0.866   0.192   1.960  1.00  0.00     0.178 HD
ENDROOT
BRANCH   1   3
HETATM    3  C4  UNL     1       2.119  -0.208   0.321  1.00  0.00     0.696 C 
HETATM    4  N1  UNL     1       2.567   1.042  -0.173  1.00  0.00    -0.091 N 
HETATM    5  C1  UNL     1       3.955   1.253  -0.600  1.00  0.00     0.176 C 
HETATM    6  C2  UNL     1       4.803   0.077  -0.196  1.00  0.00     0.043 C 
HETATM    7  C3  UNL     1       4.087  -1.181  -0.667  1.00  0.00     0.140 C 
HETATM    8  N2  UNL     1       2.839  -1.254   0.085  1.00  0.00    -0.225 N 
ATOM      9  H2  UNL     1       2.525  -2.159   0.435  1.00  0.00     0.177 HD
BRANCH   4  10
HETATM   10  O1  UNL     1       1.751   2.114  -0.282  1.00  0.00    -0.274 OA
ATOM     11  H1  UNL     1       0.852   1.977  -0.006  1.00  0.00     0.245 HD
ENDBRANCH   4  10
ENDBRANCH   1   3
BRANCH   1  12
HETATM   12  C5  UNL     1      -0.287  -0.958   0.591  1.00  0.00     0.099 C 
HETATM   13  C6  UNL     1      -1.384  -0.836   1.593  1.00  0.00     0.026 C 
HETATM   14  C7  UNL     1      -2.741  -1.168   1.047  1.00  0.00     0.002 C 
HETATM   15  C8  UNL     1      -3.696  -0.004   1.135  1.00  0.00     0.000 C 
HETATM   16  C9  UNL     1      -4.046   0.589  -0.189  1.00  0.00     0.000 C 
HETATM   17  C10 UNL     1      -2.983   0.405  -1.239  1.00  0.00     0.000 C 
HETATM   18  C11 UNL     1      -1.596   0.728  -0.734  1.00  0.00     0.002 C 
HETATM   19  C12 UNL     1      -0.695  -0.470  -0.790  1.00  0.00     0.026 C 
ENDBRANCH   1  12
TORSDOF 3
