REMARK  8 active torsions:
REMARK  status: ('A' for Active; 'I' for Inactive)
REMARK    1  A    between atoms: C2_2  and  N1_3 
REMARK       I    between atoms: N1_3  and  C3_5 
REMARK       I    between atoms: C3_5  and  N2_7 
REMARK    2  A    between atoms: N2_7  and  C4_9 
REMARK    3  A    between atoms: C5_14  and  C6_15 
REMARK    4  A    between atoms: C6_15  and  C7_16 
REMARK    5  A    between atoms: C12_23  and  C13_24 
REMARK    6  A    between atoms: C13_24  and  C14_25 
REMARK    7  A    between atoms: C14_25  and  O3_27 
REMARK    8  A    between atoms: O3_27  and  C15_28 
ROOT
HETATM    1  C7  UNL     1       1.117  -1.175   1.088  1.00  0.00     0.170 C 
HETATM    2  C8  UNL     1       1.570  -0.101   1.939  1.00  0.00     0.062 C 
HETATM    3  N5  UNL     1       1.946   0.758   2.644  1.00  0.00    -0.197 NA
ENDROOT
BRANCH   1   4
HETATM    4  C6  UNL     1       0.731  -0.698  -0.283  1.00  0.00     0.188 C 
HETATM    5  C9  UNL     1       0.395  -1.826  -1.217  1.00  0.00     0.050 C 
HETATM    6  C10 UNL     1      -1.052  -2.219  -1.184  1.00  0.00     0.042 C 
HETATM    7  C11 UNL     1      -1.991  -1.101  -0.938  1.00  0.00     0.201 C 
HETATM    8  F1  UNL     1      -2.175  -0.284  -2.043  1.00  0.00    -0.247 F 
HETATM    9  C12 UNL     1      -1.498  -0.217   0.208  1.00  0.00     0.230 C 
HETATM   10  N6  UNL     1      -0.248   0.341  -0.225  1.00  0.00    -0.052 N 
ATOM     11  H62 UNL     1       0.050   1.123   0.357  1.00  0.00     0.279 HD
ATOM     12  H61 UNL     1      -0.333   0.844  -1.108  1.00  0.00     0.279 HD
BRANCH   4  13
HETATM   13  C5  UNL     1       1.972  -0.066  -0.877  1.00  0.00     0.107 A 
HETATM   14  N4  UNL     1       2.100   0.462  -2.085  1.00  0.00    -0.293 N 
HETATM   15  N3  UNL     1       3.206   0.957  -2.456  1.00  0.00    -0.279 N 
ATOM     16  H4  UNL     1       1.303   0.470  -2.721  1.00  0.00     0.187 HD
HETATM   17  C4  UNL     1       4.236   0.933  -1.597  1.00  0.00     0.169 A 
ATOM     18  H3  UNL     1       3.310   1.364  -3.385  1.00  0.00     0.189 HD
HETATM   19  S1  UNL     1       3.537   0.166  -0.238  1.00  0.00    -0.035 SA
BRANCH  17  20
HETATM   20  N2  UNL     1       5.449   1.396  -1.801  1.00  0.00    -0.288 N 
HETATM   21  C3  UNL     1       6.366   1.253  -0.738  1.00  0.00     0.322 C 
HETATM   22  N1  UNL     1       7.161   0.088  -0.588  1.00  0.00    -0.343 N 
HETATM   23  O1  UNL     1       6.466   2.192   0.084  1.00  0.00    -0.247 OA
ATOM     24  H1  UNL     1       7.069  -0.670  -1.265  1.00  0.00     0.164 HD
ATOM     25  H2  UNL     1       5.714   1.836  -2.682  1.00  0.00     0.172 HD
BRANCH  22  26
HETATM   26  C2  UNL     1       8.111  -0.050   0.517  1.00  0.00     0.120 C 
HETATM   27  C1  UNL     1       9.162   1.020   0.502  1.00  0.00     0.026 C 
ENDBRANCH  22  26
ENDBRANCH  17  20
ENDBRANCH   4  13
BRANCH   9  28
HETATM   28  C13 UNL     1      -2.526   0.857   0.514  1.00  0.00     0.147 C 
BRANCH  28  29
HETATM   29  C14 UNL     1      -3.816   0.276   0.916  1.00  0.00     0.261 C 
HETATM   30  O2  UNL     1      -3.886  -0.543   1.866  1.00  0.00    -0.265 OA
BRANCH  29  31
HETATM   31  O3  UNL     1      -4.968   0.621   0.254  1.00  0.00    -0.311 OA
BRANCH  31  32
HETATM   32  C15 UNL     1      -6.251   0.142   0.548  1.00  0.00     0.060 C 
HETATM   33  C16 UNL     1      -7.218   0.766  -0.461  1.00  0.00     0.045 C 
HETATM   34  C17 UNL     1      -6.714   0.590   1.922  1.00  0.00     0.045 C 
HETATM   35  C18 UNL     1      -6.396  -1.352   0.467  1.00  0.00     0.045 C 
ENDBRANCH  31  32
ENDBRANCH  29  31
ENDBRANCH  28  29
ENDBRANCH   9  28
ENDBRANCH   1   4
TORSDOF 8
