REMARK  4 active torsions:
REMARK  status: ('A' for Active; 'I' for Inactive)
REMARK    1  A    between atoms: C4_4  and  S1_5 
REMARK    2  A    between atoms: S1_5  and  N1_6 
REMARK    3  A    between atoms: C5_11  and  N2_12 
REMARK    4  A    between atoms: N2_12  and  C6_14 
ROOT
HETATM    1  C1  UNL     1       4.973  -1.343  -0.722  1.00  0.00     0.050 C 
HETATM    2  C2  UNL     1       3.538  -1.041  -0.412  1.00  0.00    -0.037 A 
HETATM    3  C3  UNL     1       3.150   0.213  -0.068  1.00  0.00     0.036 A 
HETATM    4  C4  UNL     1       1.813   0.487   0.218  1.00  0.00     0.107 A 
HETATM    5  C5  UNL     1       0.835  -0.494   0.164  1.00  0.00     0.077 A 
HETATM    6  C11 UNL     1       1.287  -1.768  -0.194  1.00  0.00     0.084 A 
HETATM    7 CL1  UNL     1       0.196  -3.158  -0.285  1.00  0.00    -0.080 Cl
HETATM    8  C12 UNL     1       2.610  -2.031  -0.476  1.00  0.00     0.064 A 
HETATM    9 CL2  UNL     1       3.155  -3.647  -0.927  1.00  0.00    -0.082 Cl
ENDROOT
BRANCH   5  10
HETATM   10  N2  UNL     1      -0.530  -0.288   0.453  1.00  0.00    -0.359 N 
ATOM     11  H2  UNL     1      -0.816  -0.438   1.421  1.00  0.00     0.162 HD
BRANCH  10  12
HETATM   12  C6  UNL     1      -1.569   0.112  -0.467  1.00  0.00     0.303 C 
HETATM   13  N3  UNL     1      -1.592  -0.807  -1.553  1.00  0.00    -0.044 N 
HETATM   14  C7  UNL     1      -2.757  -0.611  -2.379  1.00  0.00     0.309 C 
ATOM     15  H32 UNL     1      -0.733  -0.762  -2.101  1.00  0.00     0.280 HD
ATOM     16  H31 UNL     1      -1.520  -1.772  -1.229  1.00  0.00     0.280 HD
HETATM   17  S2  UNL     1      -4.027  -0.506  -1.080  1.00  0.00    -0.129 SA
HETATM   18  C8  UNL     1      -2.918   0.159   0.197  1.00  0.00     0.048 C 
HETATM   19  C9  UNL     1      -3.014  -0.626   1.459  1.00  0.00     0.030 C 
HETATM   20  C10 UNL     1      -3.381   1.577   0.473  1.00  0.00     0.030 C 
ENDBRANCH  10  12
ENDBRANCH   5  10
BRANCH   4  21
HETATM   21  S1  UNL     1       1.400   2.106   0.654  1.00  0.00     0.259 S 
HETATM   22  O1  UNL     1       2.686   2.914   0.878  1.00  0.00    -0.201 OA
HETATM   23  O2  UNL     1       0.689   2.878  -0.409  1.00  0.00    -0.201 OA
BRANCH  21  24
HETATM   24  N1  UNL     1       0.618   2.156   2.194  1.00  0.00    -0.324 N 
ATOM     25  H12 UNL     1       0.432   1.328   2.760  1.00  0.00     0.169 HD
ATOM     26  H11 UNL     1       0.374   3.112   2.452  1.00  0.00     0.169 HD
ENDBRANCH  21  24
ENDBRANCH   4  21
TORSDOF 4
