REMARK  4 active torsions:
REMARK  status: ('A' for Active; 'I' for Inactive)
REMARK    1  A    between atoms: C2_2  and  C4_4 
REMARK    2  A    between atoms: C5_7  and  N2_8 
REMARK    3  A    between atoms: C9_13  and  C10_14 
REMARK    4  A    between atoms: C10_14  and  N3_15 
ROOT
HETATM    1  N2  UNL     1      -0.479  -0.148  -0.338  1.00  0.00    -0.341 N 
HETATM    2  C6  UNL     1      -1.337   0.493  -1.304  1.00  0.00     0.170 C 
HETATM    3  C7  UNL     1      -2.784   0.215  -1.165  1.00  0.00     0.121 C 
HETATM    4  C8  UNL     1      -3.266  -0.622  -2.354  1.00  0.00     0.054 C 
HETATM    5  F1  UNL     1      -3.443   1.447  -1.319  1.00  0.00    -0.241 F 
HETATM    6  C9  UNL     1      -3.232  -0.404   0.110  1.00  0.00     0.054 C 
HETATM    7  C11 UNL     1      -2.273  -1.307   0.785  1.00  0.00     0.040 C 
HETATM    8  C12 UNL     1      -0.916  -1.418   0.181  1.00  0.00     0.029 C 
HETATM    9  C13 UNL     1      -0.859  -2.514  -0.860  1.00  0.00     0.038 C 
HETATM   10  C14 UNL     1       0.086  -1.823   1.274  1.00  0.00     0.038 C 
ENDROOT
BRANCH   1  11
HETATM   11  C5  UNL     1       0.758   0.465   0.080  1.00  0.00     0.191 C 
HETATM   12  N1  UNL     1       1.941  -0.005   0.021  1.00  0.00    -0.341 N 
HETATM   13  C4  UNL     1       2.927   0.908   0.538  1.00  0.00     0.202 C 
ATOM     14  H1  UNL     1       2.165  -0.928  -0.352  1.00  0.00     0.164 HD
HETATM   15  N5  UNL     1       2.246   2.167   0.556  1.00  0.00    -0.113 NA
HETATM   16  N4  UNL     1       0.890   1.760   0.658  1.00  0.00    -0.273 N 
ATOM     17  H4  UNL     1       0.135   2.305   1.076  1.00  0.00     0.185 HD
BRANCH  13  18
HETATM   18  C2  UNL     1       4.126   0.913  -0.397  1.00  0.00     0.018 C 
HETATM   19  C1  UNL     1       4.656  -0.516  -0.428  1.00  0.00     0.013 C 
HETATM   20  C3  UNL     1       5.149   1.877   0.165  1.00  0.00     0.013 C 
ENDBRANCH  13  18
ENDBRANCH   1  11
BRANCH   6  21
HETATM   21  C10 UNL     1      -3.798   0.625   1.090  1.00  0.00     0.237 C 
BRANCH  21  22
HETATM   22  N3  UNL     1      -2.858   1.630   1.452  1.00  0.00    -0.079 N 
ATOM     23  H33 UNL     1      -2.003   1.212   1.818  1.00  0.00     0.274 HD
ATOM     24  H32 UNL     1      -2.479   2.088   0.623  1.00  0.00     0.274 HD
ATOM     25  H31 UNL     1      -3.235   2.316   2.106  1.00  0.00     0.274 HD
ENDBRANCH  21  22
ENDBRANCH   6  21
TORSDOF 4
