REMARK  13 active torsions:
REMARK  status: ('A' for Active; 'I' for Inactive)
REMARK    1  A    between atoms: O1_1  and  C1_3 
REMARK    2  A    between atoms: C4_7  and  N1_8 
REMARK    3  A    between atoms: N1_8  and  C5_10 
REMARK    4  A    between atoms: C5_10  and  C6_11 
REMARK    5  A    between atoms: C6_11  and  N2_12 
REMARK    6  A    between atoms: N2_12  and  C7_15 
REMARK    7  A    between atoms: C7_15  and  C8_16 
REMARK    8  A    between atoms: C8_16  and  N3_17 
REMARK    9  A    between atoms: N3_17  and  C9_19 
REMARK   10  A    between atoms: C14_24  and  N4_25 
REMARK   11  A    between atoms: N4_25  and  C15_27 
REMARK   12  A    between atoms: C15_27  and  C16_28 
REMARK   13  A    between atoms: C16_28  and  C17_29 
ROOT
HETATM    1  N3  UNL     1      -0.083  -1.366   0.578  1.00  0.00    -0.387 N 
ATOM      2  H3  UNL     1       0.534  -1.760   1.289  1.00  0.00     0.159 HD
ENDROOT
BRANCH   1   3
HETATM    3  C8  UNL     1      -1.452  -1.822   0.521  1.00  0.00     0.147 C 
BRANCH   3   4
HETATM    4  C7  UNL     1      -2.329  -0.725   1.081  1.00  0.00     0.251 C 
BRANCH   4   5
HETATM    5  N2  UNL     1      -3.692  -1.111   1.073  1.00  0.00    -0.072 N 
ATOM      6  H22 UNL     1      -4.252  -0.494   1.662  1.00  0.00     0.277 HD
ATOM      7  H21 UNL     1      -3.828  -1.987   1.577  1.00  0.00     0.277 HD
BRANCH   5   8
HETATM    8  C6  UNL     1      -4.231  -1.189  -0.248  1.00  0.00     0.251 C 
BRANCH   8   9
HETATM    9  C5  UNL     1      -4.350   0.188  -0.884  1.00  0.00     0.147 C 
BRANCH   9  10
HETATM   10  N1  UNL     1      -5.211   1.038  -0.103  1.00  0.00    -0.384 N 
ATOM     11  H1  UNL     1      -4.811   1.846   0.374  1.00  0.00     0.159 HD
BRANCH  10  12
HETATM   12  C4  UNL     1      -6.598   0.781   0.020  1.00  0.00     0.088 A 
HETATM   13  C1  UNL     1      -7.482   1.514   0.825  1.00  0.00     0.210 A 
HETATM   14  O2  UNL     1      -8.681   1.025   0.691  1.00  0.00    -0.299 OA
HETATM   15  C2  UNL     1      -8.712   0.016  -0.137  1.00  0.00     0.147 A 
HETATM   16  C3  UNL     1      -7.400  -0.160  -0.579  1.00  0.00     0.059 A 
BRANCH  13  17
HETATM   17  O1  UNL     1      -7.070   2.583   1.616  1.00  0.00    -0.339 OA
ATOM     18  H1  UNL     1      -6.195   2.940   1.714  1.00  0.00     0.220 HD
ENDBRANCH  13  17
ENDBRANCH  10  12
ENDBRANCH   9  10
ENDBRANCH   8   9
ENDBRANCH   5   8
ENDBRANCH   4   5
ENDBRANCH   3   4
ENDBRANCH   1   3
BRANCH   1  19
HETATM   19  C9  UNL     1       0.438  -0.399  -0.308  1.00  0.00     0.054 A 
HETATM   20  C10 UNL     1      -0.310   0.015  -1.410  1.00  0.00     0.031 A 
HETATM   21  C11 UNL     1       0.171   0.931  -2.335  1.00  0.00     0.002 A 
HETATM   22  C12 UNL     1       1.422   1.464  -2.187  1.00  0.00     0.002 A 
HETATM   23  C13 UNL     1       2.180   1.054  -1.086  1.00  0.00     0.031 A 
HETATM   24  C14 UNL     1       1.702   0.143  -0.165  1.00  0.00     0.054 A 
BRANCH  24  25
HETATM   25  N4  UNL     1       2.518  -0.186   0.949  1.00  0.00    -0.388 N 
ATOM     26  H4  UNL     1       2.122  -0.736   1.711  1.00  0.00     0.159 HD
BRANCH  25  27
HETATM   27  C15 UNL     1       3.917   0.246   1.030  1.00  0.00     0.124 C 
BRANCH  27  28
HETATM   28  C16 UNL     1       4.691  -0.578   0.061  1.00  0.00     0.058 C 
BRANCH  28  29
HETATM   29  C17 UNL     1       6.138  -0.268  -0.009  1.00  0.00    -0.057 A 
HETATM   30  C18 UNL     1       6.506   0.713  -0.919  1.00  0.00     0.007 A 
HETATM   31  C19 UNL     1       7.835   1.066  -1.063  1.00  0.00     0.001 A 
HETATM   32  C20 UNL     1       8.787   0.424  -0.285  1.00  0.00     0.000 A 
HETATM   33  C21 UNL     1       8.402  -0.553   0.618  1.00  0.00     0.001 A 
HETATM   34  C22 UNL     1       7.074  -0.907   0.764  1.00  0.00     0.007 A 
ENDBRANCH  28  29
ENDBRANCH  27  28
ENDBRANCH  25  27
ENDBRANCH  24  25
ENDBRANCH   1  19
TORSDOF 13
