REMARK  3 active torsions:
REMARK  status: ('A' for Active; 'I' for Inactive)
REMARK    1  A    between atoms: N1_4  and  O1_6 
REMARK    2  A    between atoms: C7_12  and  C8_13 
REMARK    3  A    between atoms: C8_13  and  O2_16 
ROOT
HETATM    1  C1  UNL     1       0.965  -1.271   2.274  1.00  0.00     0.017 C 
HETATM    2  C2  UNL     1       0.519  -0.131   1.423  1.00  0.00     0.040 C 
HETATM    3  C3  UNL     1       1.546   0.387   0.460  1.00  0.00     0.037 C 
HETATM    4  N1  UNL     1       2.490   1.247   0.582  1.00  0.00    -0.275 N 
ATOM      5  H1  UNL     1       2.649   1.723   1.470  1.00  0.00     0.193 HD
HETATM    6  C4  UNL     1       0.948  -0.513  -0.548  1.00  0.00     0.093 C 
HETATM    7  C5  UNL     1       0.995  -0.020  -1.952  1.00  0.00     0.038 C 
HETATM    8  C6  UNL     1       1.622  -1.832  -0.464  1.00  0.00     0.075 C 
HETATM    9  N2  UNL     1       2.151  -2.861  -0.419  1.00  0.00    -0.196 NA
HETATM   10  C7  UNL     1      -0.309  -0.509   0.199  1.00  0.00     0.056 C 
ENDROOT
BRANCH  10  11
HETATM   11  C8  UNL     1      -1.376   0.479  -0.137  1.00  0.00     0.057 C 
HETATM   12  C9  UNL     1      -2.150   0.030  -1.361  1.00  0.00     0.045 C 
HETATM   13  C10 UNL     1      -2.408   0.570   0.992  1.00  0.00     0.045 C 
BRANCH  11  14
HETATM   14  O2  UNL     1      -0.935   1.753  -0.378  1.00  0.00    -0.390 OA
ATOM     15  H2  UNL     1      -1.614   2.382  -0.592  1.00  0.00     0.210 HD
ENDBRANCH  11  14
ENDBRANCH  10  11
BRANCH   4  16
HETATM   16  O1  UNL     1       3.282   1.514  -0.506  1.00  0.00    -0.290 OA
ATOM     17  H1  UNL     1       3.981   2.151  -0.416  1.00  0.00     0.244 HD
ENDBRANCH   4  16
TORSDOF 3
