REMARK  8 active torsions:
REMARK  status: ('A' for Active; 'I' for Inactive)
REMARK    1  A    between atoms: C2_2  and  O1_3 
REMARK    2  A    between atoms: O1_3  and  N1_4 
REMARK    3  A    between atoms: C6_9  and  C7_10 
REMARK    4  A    between atoms: C8_13  and  C9_14 
REMARK    5  A    between atoms: C12_17  and  N2_18 
REMARK       I    between atoms: N2_18  and  C13_20 
REMARK       I    between atoms: C13_20  and  N3_22 
REMARK    6  A    between atoms: C17_28  and  C18_29 
REMARK    7  A    between atoms: C18_29  and  O4_31 
REMARK    8  A    between atoms: O4_31  and  C19_32 
ROOT
HETATM    1  N1  UNL     1      -2.984  -0.340   1.027  1.00  0.00    -0.274 N 
ATOM      2  H1  UNL     1      -2.451   0.082   1.787  1.00  0.00     0.193 HD
HETATM    3  C3  UNL     1      -2.503  -0.197  -0.140  1.00  0.00     0.030 C 
HETATM    4  C4  UNL     1      -3.090  -0.709  -1.362  1.00  0.00     0.046 C 
HETATM    5  C5  UNL     1      -4.464  -1.311  -1.209  1.00  0.00     0.017 C 
HETATM    6  C6  UNL     1      -2.198  -1.684  -2.088  1.00  0.00     0.085 C 
HETATM    7  S1  UNL     1      -0.525  -1.717  -1.512  1.00  0.00    -0.150 SA
HETATM    8  C8  UNL     1      -0.147  -0.474  -0.212  1.00  0.00     0.103 C 
HETATM    9  C17 UNL     1      -1.204   0.569  -0.264  1.00  0.00     0.151 C 
ENDROOT
BRANCH   8  10
HETATM   10  C9  UNL     1       1.234  -0.047  -0.349  1.00  0.00    -0.004 A 
HETATM   11  C10 UNL     1       1.585   1.192  -0.793  1.00  0.00     0.013 A 
HETATM   12  C11 UNL     1       2.904   1.539  -0.918  1.00  0.00     0.030 A 
HETATM   13  C12 UNL     1       3.956   0.666  -0.606  1.00  0.00     0.039 A 
HETATM   14  C15 UNL     1       3.581  -0.575  -0.161  1.00  0.00     0.072 A 
HETATM   15  C16 UNL     1       2.238  -0.928  -0.034  1.00  0.00     0.126 A 
HETATM   16  F2  UNL     1       1.965  -2.186   0.417  1.00  0.00    -0.205 F 
BRANCH  13  17
HETATM   17  N2  UNL     1       5.292   1.104  -0.756  1.00  0.00    -0.309 N 
HETATM   18  C13 UNL     1       6.473   0.381  -0.562  1.00  0.00     0.320 C 
HETATM   19  O2  UNL     1       6.555  -0.823  -0.215  1.00  0.00    -0.247 OA
HETATM   20  N3  UNL     1       7.769   1.007  -0.760  1.00  0.00    -0.347 N 
HETATM   21  C14 UNL     1       9.007   0.300  -0.572  1.00  0.00     0.151 C 
ATOM     22  H3  UNL     1       7.802   1.986  -1.043  1.00  0.00     0.163 HD
ATOM     23  H2  UNL     1       5.410   2.075  -1.044  1.00  0.00     0.170 HD
ENDBRANCH  13  17
ENDBRANCH   8  10
BRANCH   9  24
HETATM   24  C18 UNL     1      -1.136   1.528   0.870  1.00  0.00     0.270 C 
HETATM   25  O3  UNL     1      -1.259   2.747   0.618  1.00  0.00    -0.264 OA
BRANCH  24  26
HETATM   26  O4  UNL     1      -0.947   1.155   2.179  1.00  0.00    -0.321 OA
BRANCH  26  27
HETATM   27  C19 UNL     1      -0.894   2.131   3.210  1.00  0.00     0.174 C 
HETATM   28  C20 UNL     1      -2.153   2.939   3.313  1.00  0.00     0.034 C 
ENDBRANCH  26  27
ENDBRANCH  24  26
ENDBRANCH   9  24
BRANCH   6  29
HETATM   29  C7  UNL     1      -2.219  -1.433  -3.581  1.00  0.00     0.237 C 
HETATM   30  F1  UNL     1      -1.788  -0.168  -3.913  1.00  0.00    -0.254 F 
ENDBRANCH   6  29
BRANCH   1  31
HETATM   31  O1  UNL     1      -4.115  -0.983   1.380  1.00  0.00    -0.281 OA
BRANCH  31  32
HETATM   32  C2  UNL     1      -4.302  -1.662   2.607  1.00  0.00     0.196 C 
HETATM   33  C1  UNL     1      -5.683  -2.263   2.653  1.00  0.00     0.036 C 
ENDBRANCH  31  32
ENDBRANCH   1  31
TORSDOF 8
