REMARK  6 active torsions:
REMARK  status: ('A' for Active; 'I' for Inactive)
REMARK    1  A    between atoms: O1_2  and  C2_3 
REMARK    2  A    between atoms: C7_9  and  C8_10 
REMARK    3  A    between atoms: C8_10  and  C9_11 
REMARK    4  A    between atoms: C9_11  and  S1_12 
REMARK    5  A    between atoms: C9_11  and  C19_26 
REMARK    6  A    between atoms: S1_12  and  C10_13 
ROOT
HETATM    1  C9  UNL     1       0.197   2.248  -0.772  1.00  0.00     0.161 C 
ENDROOT
BRANCH   1   2
HETATM    2  C8  UNL     1      -0.342   1.342   0.276  1.00  0.00     0.072 C 
BRANCH   2   3
HETATM    3  C7  UNL     1      -1.637   0.692  -0.056  1.00  0.00    -0.011 A 
HETATM    4  C6  UNL     1      -2.830   1.276   0.308  1.00  0.00     0.027 A 
HETATM    5  C5  UNL     1      -4.076   0.761   0.051  1.00  0.00    -0.017 A 
HETATM    6  C4  UNL     1      -5.181   1.495   0.496  1.00  0.00     0.039 A 
HETATM    7  C21 UNL     1      -4.349  -0.417  -0.609  1.00  0.00     0.056 A 
HETATM    8  C3  UNL     1      -6.481   1.122   0.319  1.00  0.00     0.070 A 
HETATM    9  C2  UNL     1      -6.742  -0.059  -0.342  1.00  0.00     0.112 A 
HETATM   10 CL1  UNL     1      -7.828   2.079   0.897  1.00  0.00    -0.081 Cl
HETATM   11  C22 UNL     1      -5.683  -0.817  -0.800  1.00  0.00     0.084 A 
HETATM   12 CL2  UNL     1      -6.081  -2.303  -1.630  1.00  0.00    -0.080 Cl
HETATM   13  C20 UNL     1      -3.386  -1.269  -1.117  1.00  0.00     0.226 A 
HETATM   14  S2  UNL     1      -1.772  -0.781  -0.886  1.00  0.00    -0.052 SA
HETATM   15  O4  UNL     1      -3.747  -2.327  -1.706  1.00  0.00    -0.279 OA
BRANCH   9  16
HETATM   16  O1  UNL     1      -8.051  -0.444  -0.525  1.00  0.00    -0.352 OA
HETATM   17  C1  UNL     1      -8.759  -1.244   0.403  1.00  0.00     0.210 C 
ENDBRANCH   9  16
ENDBRANCH   2   3
ENDBRANCH   1   2
BRANCH   1  18
HETATM   18  S1  UNL     1       1.782   2.937  -0.157  1.00  0.00    -0.078 SA
BRANCH  18  19
HETATM   19  C10 UNL     1       2.950   1.589  -0.067  1.00  0.00     0.146 A 
HETATM   20  N1  UNL     1       2.803   0.291  -0.379  1.00  0.00    -0.335 N 
HETATM   21  C11 UNL     1       3.956  -0.346  -0.152  1.00  0.00     0.061 A 
ATOM     22  H1  UNL     1       1.949  -0.140  -0.732  1.00  0.00     0.168 HD
HETATM   23  C12 UNL     1       4.354  -1.680  -0.302  1.00  0.00     0.039 A 
HETATM   24  C18 UNL     1       4.860   0.569   0.316  1.00  0.00     0.061 A 
HETATM   25  C13 UNL     1       5.629  -2.100   0.007  1.00  0.00    -0.054 A 
HETATM   26  C14 UNL     1       6.059  -3.521  -0.152  1.00  0.00     0.049 C 
HETATM   27  C15 UNL     1       6.523  -1.162   0.476  1.00  0.00    -0.054 A 
HETATM   28  C16 UNL     1       7.921  -1.602   0.818  1.00  0.00     0.049 C 
HETATM   29  C17 UNL     1       6.150   0.154   0.630  1.00  0.00     0.039 A 
HETATM   30  N2  UNL     1       4.234   1.761   0.367  1.00  0.00    -0.335 N 
ATOM     31  H2  UNL     1       4.648   2.641   0.676  1.00  0.00     0.168 HD
ENDBRANCH  18  19
ENDBRANCH   1  18
BRANCH   1  32
HETATM   32  C19 UNL     1      -0.687   3.296  -1.262  1.00  0.00     0.188 C 
HETATM   33  O2  UNL     1      -0.425   4.501  -1.033  1.00  0.00    -0.647 OA
HETATM   34  O3  UNL     1      -1.825   3.001  -1.985  1.00  0.00    -0.647 OA
ENDBRANCH   1  32
TORSDOF 6
