REMARK  1 active torsions:
REMARK  status: ('A' for Active; 'I' for Inactive)
REMARK       I    between atoms: C2_5  and  N4_7 
REMARK    1  A    between atoms: N4_7  and  N5_9 
ROOT
HETATM    1  N1  UNL     1       3.936   2.055   0.813  1.00  0.00    -0.172 NA
HETATM    2  C1  UNL     1       2.926   1.638   0.429  1.00  0.00     0.184 C 
HETATM    3  N2  UNL     1       1.702   1.124  -0.049  1.00  0.00    -0.266 N 
ATOM      4  H2  UNL     1       0.953   1.769  -0.299  1.00  0.00     0.180 HD
HETATM    5  C2  UNL     1       1.512  -0.145  -0.176  1.00  0.00     0.216 C 
HETATM    6  N3  UNL     1       2.532  -1.076   0.162  1.00  0.00    -0.061 NA
HETATM    7  N4  UNL     1       0.245  -0.569  -0.666  1.00  0.00    -0.271 N 
ATOM      8  H4  UNL     1       0.094  -0.765  -1.655  1.00  0.00     0.189 HD
ENDROOT
BRANCH   7   9
HETATM    9  N5  UNL     1      -0.781  -0.704   0.271  1.00  0.00    -0.274 N 
HETATM   10  C3  UNL     1      -1.928  -0.133   0.130  1.00  0.00     0.215 C 
HETATM   11  N6  UNL     1      -2.914  -0.326   1.134  1.00  0.00    -0.065 NA
HETATM   12  N7  UNL     1      -2.152   0.661  -1.020  1.00  0.00    -0.065 NA
ATOM     13  H5  UNL     1      -0.617  -1.276   1.099  1.00  0.00     0.189 HD
ENDBRANCH   7   9
TORSDOF 1
