REMARK  11 active torsions:
REMARK  status: ('A' for Active; 'I' for Inactive)
REMARK    1  A    between atoms: N3_15  and  C12_16 
REMARK    2  A    between atoms: C12_16  and  C13_17 
REMARK    3  A    between atoms: C13_17  and  C14_18 
REMARK    4  A    between atoms: C19_31  and  C20_32 
REMARK    5  A    between atoms: N7_36  and  C24_37 
REMARK    6  A    between atoms: C24_37  and  C25_38 
REMARK    7  A    between atoms: N8_41  and  C28_42 
REMARK    8  A    between atoms: C28_42  and  C29_43 
REMARK    9  A    between atoms: C29_43  and  C30_44 
REMARK   10  A    between atoms: C30_44  and  C31_45 
REMARK   11  A    between atoms: C32_46  and  N9_47 
ROOT
HETATM    1  N1  UNL     1      -3.049  -0.772   2.710  1.00  0.00    -0.087 NA
HETATM    2  C1  UNL     1      -3.295  -0.993   1.347  1.00  0.00     0.106 C 
HETATM    3  N2  UNL     1      -4.314  -1.696   1.055  1.00  0.00    -0.349 N 
ATOM      4  H2  UNL     1      -4.874  -2.041   1.834  1.00  0.00     0.166 HD
HETATM    5  C2  UNL     1      -4.742  -2.043  -0.235  1.00  0.00     0.040 C 
HETATM    6  C3  UNL     1      -6.109  -2.297  -0.588  1.00  0.00     0.061 A 
HETATM    7  C4  UNL     1      -6.369  -3.368  -1.486  1.00  0.00     0.033 A 
HETATM    8  C5  UNL     1      -7.582  -3.745  -1.918  1.00  0.00     0.016 A 
HETATM    9  C6  UNL     1      -8.664  -3.036  -1.451  1.00  0.00    -0.009 A 
HETATM   10  C7  UNL     1      -9.951  -3.373  -1.817  1.00  0.00     0.014 A 
HETATM   11  C8  UNL     1     -11.070  -2.715  -1.353  1.00  0.00     0.001 A 
HETATM   12  C9  UNL     1     -10.899  -1.664  -0.477  1.00  0.00     0.002 A 
HETATM   13  C10 UNL     1      -9.590  -1.323  -0.107  1.00  0.00     0.031 A 
HETATM   14  C11 UNL     1      -8.477  -1.967  -0.561  1.00  0.00     0.049 A 
HETATM   15  N3  UNL     1      -7.202  -1.633  -0.161  1.00  0.00    -0.323 N 
HETATM   16  C17 UNL     1      -3.833  -1.536  -1.361  1.00  0.00     0.095 C 
HETATM   17  C18 UNL     1      -2.471  -1.661  -0.730  1.00  0.00     0.174 C 
HETATM   18  O2  UNL     1      -1.368  -1.386  -1.453  1.00  0.00    -0.273 OA
HETATM   19  N6  UNL     1      -0.454  -0.876  -0.589  1.00  0.00    -0.269 N 
ATOM     20  H6  UNL     1       0.557  -0.948  -0.700  1.00  0.00     0.194 HD
HETATM   21  C19 UNL     1      -1.062  -0.273   0.416  1.00  0.00     0.057 C 
HETATM   22  C41 UNL     1      -2.461  -0.472   0.270  1.00  0.00     0.135 C 
ENDROOT
BRANCH  21  23
HETATM   23  C20 UNL     1      -0.278   0.376   1.490  1.00  0.00     0.005 A 
HETATM   24  C21 UNL     1      -0.765   1.312   2.348  1.00  0.00     0.016 A 
HETATM   25  C22 UNL     1       0.035   1.807   3.384  1.00  0.00     0.018 A 
HETATM   26  C23 UNL     1       1.324   1.336   3.528  1.00  0.00     0.090 A 
HETATM   27  N7  UNL     1       1.802   0.416   2.685  1.00  0.00    -0.361 N 
HETATM   28  C40 UNL     1       1.039  -0.045   1.708  1.00  0.00     0.104 A 
BRANCH  27  29
HETATM   29  C24 UNL     1       3.142  -0.138   2.799  1.00  0.00     0.166 C 
BRANCH  29  30
HETATM   30  C25 UNL     1       4.065   0.693   2.006  1.00  0.00    -0.037 A 
HETATM   31  C26 UNL     1       4.187   0.601   0.639  1.00  0.00     0.026 A 
HETATM   32  C27 UNL     1       5.102   1.389  -0.054  1.00  0.00     0.091 A 
HETATM   33  N8  UNL     1       5.899   2.270   0.595  1.00  0.00    -0.366 N 
HETATM   34  C38 UNL     1       5.777   2.357   1.929  1.00  0.00     0.091 A 
HETATM   35  C39 UNL     1       4.884   1.596   2.650  1.00  0.00     0.026 A 
BRANCH  33  36
HETATM   36  C28 UNL     1       6.853   3.099  -0.125  1.00  0.00     0.128 C 
BRANCH  36  37
HETATM   37  C29 UNL     1       8.171   2.300  -0.218  1.00  0.00     0.024 C 
BRANCH  37  38
HETATM   38  C30 UNL     1       9.200   3.067  -0.940  1.00  0.00     0.030 C 
BRANCH  38  39
HETATM   39  C31 UNL     1      10.513   2.431  -1.083  1.00  0.00    -0.009 C 
HETATM   40  C32 UNL     1      10.806   1.247  -1.861  1.00  0.00     0.091 C 
BRANCH  40  41
HETATM   41  N9  UNL     1      10.242  -0.028  -1.663  1.00  0.00    -0.343 N 
HETATM   42  C33 UNL     1       9.181  -0.458  -2.369  1.00  0.00     0.095 A 
HETATM   43  C34 UNL     1       8.626  -1.709  -2.181  1.00  0.00     0.018 A 
HETATM   44  C35 UNL     1       9.176  -2.540  -1.244  1.00  0.00     0.003 A 
HETATM   45  C36 UNL     1      10.264  -2.089  -0.525  1.00  0.00     0.018 A 
HETATM   46  C37 UNL     1      10.777  -0.843  -0.747  1.00  0.00     0.095 A 
ENDBRANCH  40  41
ENDBRANCH  38  39
ENDBRANCH  37  38
ENDBRANCH  36  37
ENDBRANCH  33  36
ENDBRANCH  29  30
ENDBRANCH  27  29
ENDBRANCH  21  23
BRANCH  15  47
HETATM   47  C12 UNL     1      -7.043  -0.586   0.757  1.00  0.00     0.076 C 
BRANCH  47  48
HETATM   48  C13 UNL     1      -6.631   0.707   0.106  1.00  0.00     0.103 C 
BRANCH  48  49
HETATM   49  C14 UNL     1      -7.533   1.288  -0.902  1.00  0.00     0.034 A 
HETATM   50  C15 UNL     1      -8.546   2.207  -0.752  1.00  0.00     0.118 A 
HETATM   51  N4  UNL     1      -9.066   2.423  -1.965  1.00  0.00    -0.317 N 
HETATM   52  C16 UNL     1      -8.422   1.675  -2.883  1.00  0.00     0.324 A 
ATOM     53  H4  UNL     1      -9.837   3.060  -2.166  1.00  0.00     0.170 HD
HETATM   54  O1  UNL     1      -8.653   1.630  -4.135  1.00  0.00    -0.247 OA
HETATM   55  N5  UNL     1      -7.493   0.993  -2.207  1.00  0.00    -0.311 N 
ATOM     56  H5  UNL     1      -6.839   0.334  -2.630  1.00  0.00     0.170 HD
ENDBRANCH  48  49
ENDBRANCH  47  48
ENDBRANCH  15  47
TORSDOF 11
