REMARK  12 active torsions:
REMARK  status: ('A' for Active; 'I' for Inactive)
REMARK    1  A    between atoms: C2_2  and  C3_3 
REMARK    2  A    between atoms: C3_3  and  C4_4 
REMARK    3  A    between atoms: C4_4  and  C6_6 
REMARK    4  A    between atoms: C6_6  and  O1_7 
REMARK    5  A    between atoms: C6_6  and  C13_22 
REMARK    6  A    between atoms: O1_7  and  C7_8 
REMARK    7  A    between atoms: C8_9  and  O2_10 
REMARK    8  A    between atoms: C10_13  and  O3_14 
REMARK    9  A    between atoms: C11_16  and  O4_17 
REMARK   10  A    between atoms: C12_19  and  O5_20 
REMARK   11  A    between atoms: C13_22  and  O6_23 
REMARK   12  A    between atoms: C13_22  and  C14_25 
ROOT
HETATM    1  C7  UNL     1       1.457  -0.365  -0.313  1.00  0.00     0.182 C 
HETATM    2  C8  UNL     1       2.251  -1.653  -0.270  1.00  0.00     0.152 C 
HETATM    3  C9  UNL     1       3.658  -1.527   0.226  1.00  0.00     0.069 C 
HETATM    4  C10 UNL     1       4.010  -0.363   1.051  1.00  0.00     0.152 C 
HETATM    5  C11 UNL     1       3.138   0.842   0.952  1.00  0.00     0.178 C 
HETATM    6  C12 UNL     1       2.435   0.812  -0.354  1.00  0.00     0.180 C 
ENDROOT
BRANCH   1   7
HETATM    7  O1  UNL     1       0.494  -0.254   0.645  1.00  0.00    -0.372 OA
BRANCH   7   8
HETATM    8  C6  UNL     1      -0.840  -0.001   0.077  1.00  0.00     0.155 C 
BRANCH   8   9
HETATM    9  C4  UNL     1      -1.412   1.164   0.785  1.00  0.00     0.016 C 
HETATM   10  C5  UNL     1      -0.437   2.316   1.023  1.00  0.00     0.013 C 
BRANCH   9  11
HETATM   11  C3  UNL     1      -2.715   1.736   0.353  1.00  0.00     0.033 C 
BRANCH  11  12
HETATM   12  C2  UNL     1      -2.569   2.517  -0.931  1.00  0.00    -0.036 C 
HETATM   13  C1  UNL     1      -2.864   3.790  -1.012  1.00  0.00     0.007 C 
ENDBRANCH  11  12
ENDBRANCH   9  11
ENDBRANCH   8   9
BRANCH   8  14
HETATM   14  C13 UNL     1      -1.586  -1.290   0.322  1.00  0.00     0.150 C 
BRANCH  14  15
HETATM   15  O6  UNL     1      -0.890  -2.359  -0.347  1.00  0.00    -0.393 OA
ATOM     16  H6  UNL     1      -1.360  -3.170  -0.193  1.00  0.00     0.210 HD
ENDBRANCH  14  15
BRANCH  14  17
HETATM   17  C14 UNL     1      -3.008  -1.448   0.083  1.00  0.00     0.009 C 
HETATM   18  C15 UNL     1      -3.297  -2.960   0.469  1.00  0.00     0.012 C 
HETATM   19  C16 UNL     1      -3.458  -1.394  -1.350  1.00  0.00     0.012 C 
ENDBRANCH  14  17
ENDBRANCH   8  14
ENDBRANCH   7   8
ENDBRANCH   1   7
BRANCH   2  20
HETATM   20  O2  UNL     1       2.234  -2.274  -1.518  1.00  0.00    -0.393 OA
ATOM     21  H2  UNL     1       2.732  -3.082  -1.491  1.00  0.00     0.210 HD
ENDBRANCH   2  20
BRANCH   6  22
HETATM   22  O5  UNL     1       3.376   0.566  -1.375  1.00  0.00    -0.390 OA
ATOM     23  H5  UNL     1       3.983   1.296  -1.400  1.00  0.00     0.210 HD
ENDBRANCH   6  22
BRANCH   5  24
HETATM   24  O4  UNL     1       3.934   1.983   1.006  1.00  0.00    -0.390 OA
ATOM     25  H4  UNL     1       3.378   2.751   0.943  1.00  0.00     0.210 HD
ENDBRANCH   5  24
BRANCH   4  26
HETATM   26  O3  UNL     1       5.346   0.054   0.859  1.00  0.00    -0.393 OA
ATOM     27  H3  UNL     1       5.574   0.807   1.392  1.00  0.00     0.210 HD
ENDBRANCH   4  26
TORSDOF 12
