REMARK  12 active torsions:
REMARK  status: ('A' for Active; 'I' for Inactive)
REMARK    1  A    between atoms: C2_2  and  C4_4 
REMARK    2  A    between atoms: C5_6  and  C6_7 
REMARK    3  A    between atoms: C6_7  and  O2_8 
REMARK    4  A    between atoms: C6_7  and  C7_10 
REMARK    5  A    between atoms: C6_7  and  C9_14 
REMARK    6  A    between atoms: C7_10  and  O3_12 
REMARK    7  A    between atoms: C9_14  and  O4_15 
REMARK    8  A    between atoms: C9_14  and  C10_17 
REMARK    9  A    between atoms: C10_17  and  O5_18 
REMARK   10  A    between atoms: O5_18  and  C11_19 
REMARK   11  A    between atoms: C14_22  and  O6_23 
REMARK   12  A    between atoms: C15_25  and  O7_26 
ROOT
HETATM    1  C6  UNL     1       0.180  -0.826  -0.690  1.00  0.00     0.139 C 
ENDROOT
BRANCH   1   2
HETATM    2  C5  UNL     1      -1.310  -0.766  -0.275  1.00  0.00     0.193 C 
HETATM    3  O1  UNL     1      -1.505   0.337   0.578  1.00  0.00    -0.368 OA
HETATM    4  C4  UNL     1      -2.901   0.395   0.598  1.00  0.00     0.181 C 
HETATM    5  C15 UNL     1      -3.214   0.465  -0.883  1.00  0.00     0.182 C 
HETATM    6  C14 UNL     1      -2.210  -0.554  -1.443  1.00  0.00     0.181 C 
BRANCH   4   7
HETATM    7  C2  UNL     1      -3.411   1.540   1.349  1.00  0.00    -0.062 C 
HETATM    8  C1  UNL     1      -4.279   1.353   2.328  1.00  0.00     0.016 C 
HETATM    9  C3  UNL     1      -2.973   2.916   1.034  1.00  0.00     0.045 C 
ENDBRANCH   4   7
BRANCH   5  10
HETATM   10  O7  UNL     1      -2.989   1.733  -1.393  1.00  0.00    -0.390 OA
ATOM     11  H7  UNL     1      -3.185   1.777  -2.321  1.00  0.00     0.210 HD
ENDBRANCH   5  10
BRANCH   6  12
HETATM   12  O6  UNL     1      -2.972  -1.704  -1.710  1.00  0.00    -0.390 OA
ATOM     13  H6  UNL     1      -3.546  -1.569  -2.455  1.00  0.00     0.210 HD
ENDBRANCH   6  12
ENDBRANCH   1   2
BRANCH   1  14
HETATM   14  O2  UNL     1       0.431   0.349  -1.331  1.00  0.00    -0.382 OA
ATOM     15  H2  UNL     1       1.345   0.312  -1.586  1.00  0.00     0.211 HD
ENDBRANCH   1  14
BRANCH   1  16
HETATM   16  C7  UNL     1       0.246  -1.972  -1.673  1.00  0.00     0.153 C 
HETATM   17  C8  UNL     1       1.479  -1.945  -2.544  1.00  0.00     0.042 C 
BRANCH  16  18
HETATM   18  O3  UNL     1       0.019  -3.209  -1.074  1.00  0.00    -0.393 OA
ATOM     19  H3  UNL     1       0.060  -3.929  -1.692  1.00  0.00     0.210 HD
ENDBRANCH  16  18
ENDBRANCH   1  16
BRANCH   1  20
HETATM   20  C9  UNL     1       0.914  -1.081   0.581  1.00  0.00     0.181 C 
BRANCH  20  21
HETATM   21  O4  UNL     1       0.653  -0.128   1.529  1.00  0.00    -0.390 OA
ATOM     22  H4  UNL     1       1.121  -0.291   2.340  1.00  0.00     0.210 HD
ENDBRANCH  20  21
BRANCH  20  23
HETATM   23  C10 UNL     1       2.357  -1.385   0.495  1.00  0.00     0.203 C 
BRANCH  23  24
HETATM   24  O5  UNL     1       3.251  -0.421   0.215  1.00  0.00    -0.384 OA
BRANCH  24  25
HETATM   25  C11 UNL     1       3.470   0.612   1.060  1.00  0.00     0.113 C 
HETATM   26  C12 UNL     1       3.179   1.928   0.341  1.00  0.00     0.039 C 
HETATM   27  C13 UNL     1       4.932   0.732   1.485  1.00  0.00     0.039 C 
ENDBRANCH  24  25
ENDBRANCH  23  24
ENDBRANCH  20  23
ENDBRANCH   1  20
TORSDOF 12
