REMARK  13 active torsions:
REMARK  status: ('A' for Active; 'I' for Inactive)
REMARK    1  A    between atoms: C2_2  and  C3_3 
REMARK    2  A    between atoms: C3_3  and  C4_4 
REMARK    3  A    between atoms: C4_4  and  C5_5 
REMARK    4  A    between atoms: C5_5  and  C6_6 
REMARK    5  A    between atoms: C6_6  and  C7_7 
REMARK    6  A    between atoms: C7_7  and  C8_8 
REMARK    7  A    between atoms: C10_14  and  N3_15 
REMARK    8  A    between atoms: N3_15  and  C11_17 
REMARK    9  A    between atoms: C11_17  and  C12_18 
REMARK   10  A    between atoms: C12_18  and  O1_19 
REMARK   11  A    between atoms: C13_23  and  N5_24 
REMARK   12  A    between atoms: C15_30  and  N7_31 
REMARK   13  A    between atoms: N7_31  and  C16_33 
ROOT
HETATM    1  C8  UNL     1      -0.211  -0.724  -1.028  1.00  0.00     0.055 A 
HETATM    2  N1  UNL     1       0.528   0.375  -1.199  1.00  0.00    -0.340 N 
ATOM      3  H1  UNL     1       0.152   1.177  -1.704  1.00  0.00     0.167 HD
HETATM    4  C9  UNL     1       1.799   0.411  -0.687  1.00  0.00     0.152 A 
HETATM    5  N2  UNL     1       2.555   1.493  -0.842  1.00  0.00    -0.174 N 
ATOM      6  H2  UNL     1       2.187   2.299  -1.347  1.00  0.00     0.186 HD
HETATM    7  C10 UNL     1       3.814   1.534  -0.334  1.00  0.00     0.681 A 
HETATM    8  N4  UNL     1       4.341   0.514   0.329  1.00  0.00    -0.175 N 
ATOM      9  H4  UNL     1       5.289   0.573   0.700  1.00  0.00     0.186 HD
HETATM   10  C13 UNL     1       3.592  -0.622   0.509  1.00  0.00     0.145 A 
HETATM   11  C14 UNL     1       2.304  -0.673  -0.006  1.00  0.00     0.123 A 
HETATM   12  N6  UNL     1       1.546  -1.797   0.168  1.00  0.00    -0.335 N 
ATOM     13  H6  UNL     1       1.924  -2.598   0.673  1.00  0.00     0.168 HD
HETATM   14  C15 UNL     1       0.299  -1.838  -0.332  1.00  0.00     0.125 A 
ENDROOT
BRANCH   1  15
HETATM   15  C7  UNL     1      -1.603  -0.846  -1.537  1.00  0.00     0.061 C 
BRANCH  15  16
HETATM   16  C6  UNL     1      -2.632  -0.653  -0.471  1.00  0.00     0.006 C 
BRANCH  16  17
HETATM   17  C5  UNL     1      -4.011  -0.787  -1.072  1.00  0.00     0.000 C 
BRANCH  17  18
HETATM   18  C4  UNL     1      -5.077  -0.588   0.015  1.00  0.00     0.000 C 
BRANCH  18  19
HETATM   19  C3  UNL     1      -4.947   0.786   0.642  1.00  0.00    -0.000 C 
BRANCH  19  20
HETATM   20  C2  UNL     1      -5.119   1.864  -0.401  1.00  0.00    -0.005 C 
HETATM   21  C1  UNL     1      -4.976   3.203   0.283  1.00  0.00     0.005 C 
ENDBRANCH  19  20
ENDBRANCH  18  19
ENDBRANCH  17  18
ENDBRANCH  16  17
ENDBRANCH  15  16
ENDBRANCH   1  15
BRANCH  14  22
HETATM   22  N7  UNL     1      -0.434  -2.826  -0.214  1.00  0.00    -0.370 N 
ATOM     23  H7  UNL     1      -1.325  -2.635  -0.672  1.00  0.00     0.161 HD
BRANCH  22  24
HETATM   24  C16 UNL     1      -0.468  -4.101   0.323  1.00  0.00     0.083 A 
HETATM   25  C17 UNL     1       0.702  -5.073   0.215  1.00  0.00     0.027 A 
HETATM   26  C18 UNL     1       0.164  -4.577   1.570  1.00  0.00     0.027 A 
ENDBRANCH  22  24
ENDBRANCH  14  22
BRANCH   7  27
HETATM   27  N3  UNL     1       4.501   2.605  -0.510  1.00  0.00    -0.224 N 
ATOM     28  H3  UNL     1       4.028   3.345  -1.028  1.00  0.00     0.177 HD
BRANCH  27  29
HETATM   29  C11 UNL     1       5.816   2.908  -0.092  1.00  0.00     0.164 C 
BRANCH  29  30
HETATM   30  C12 UNL     1       5.751   4.264   0.627  1.00  0.00     0.184 C 
BRANCH  30  31
HETATM   31  O1  UNL     1       5.279   5.214  -0.259  1.00  0.00    -0.399 OA
ATOM     32  H1  UNL     1       5.239   6.053   0.186  1.00  0.00     0.209 HD
ENDBRANCH  30  31
ENDBRANCH  29  30
ENDBRANCH  27  29
ENDBRANCH   7  27
BRANCH  10  33
HETATM   33  N5  UNL     1       4.105  -1.602   1.149  1.00  0.00    -0.383 N 
ATOM     34  H52 UNL     1       5.051  -1.565   1.527  1.00  0.00     0.157 HD
ATOM     35  H51 UNL     1       3.548  -2.446   1.283  1.00  0.00     0.157 HD
ENDBRANCH  10  33
TORSDOF 13
