REMARK  11 active torsions:
REMARK  status: ('A' for Active; 'I' for Inactive)
REMARK    1  A    between atoms: O1_2  and  C2_3 
REMARK    2  A    between atoms: C2_3  and  C3_5 
REMARK    3  A    between atoms: C15_17  and  O3_18 
REMARK    4  A    between atoms: O3_18  and  C16_19 
REMARK    5  A    between atoms: C16_19  and  C17_21 
REMARK    6  A    between atoms: C17_21  and  C18_22 
REMARK    7  A    between atoms: C18_22  and  N1_23 
REMARK    8  A    between atoms: C18_22  and  C19_27 
REMARK       I    between atoms: C19_27  and  N2_29 
REMARK    9  A    between atoms: N2_29  and  C20_31 
REMARK   10  A    between atoms: C23_34  and  O6_35 
REMARK   11  A    between atoms: O6_35  and  C24_36 
ROOT
HETATM    1  C16 UNL     1       0.972   0.817   0.783  1.00  0.00     0.261 C 
HETATM    2  O4  UNL     1       0.565   2.005   0.750  1.00  0.00    -0.265 OA
ENDROOT
BRANCH   1   3
HETATM    3  O3  UNL     1       0.071  -0.192   0.958  1.00  0.00    -0.315 OA
BRANCH   3   4
HETATM    4  C15 UNL     1      -1.324   0.054   1.103  1.00  0.00     0.141 C 
HETATM    5  C14 UNL     1      -1.587  -0.174   2.605  1.00  0.00     0.034 C 
HETATM    6  C13 UNL     1      -1.424  -1.600   2.990  1.00  0.00     0.007 C 
HETATM    7  C11 UNL     1      -2.254  -2.445   2.084  1.00  0.00    -0.014 C 
HETATM    8  C10 UNL     1      -3.114  -1.567   1.159  1.00  0.00     0.000 C 
HETATM    9  C12 UNL     1      -3.216  -3.304   2.919  1.00  0.00     0.010 C 
HETATM   10  C9  UNL     1      -4.023  -2.514   0.447  1.00  0.00     0.006 C 
HETATM   11  C27 UNL     1      -2.173  -0.810   0.235  1.00  0.00    -0.009 C 
HETATM   12  C8  UNL     1      -4.430  -2.117  -0.909  1.00  0.00     0.010 C 
HETATM   13  C6  UNL     1      -4.247  -0.643  -1.210  1.00  0.00    -0.040 C 
HETATM   14  C5  UNL     1      -5.339   0.106  -0.544  1.00  0.00     0.010 C 
HETATM   15  C7  UNL     1      -4.535  -0.557  -2.720  1.00  0.00     0.015 C 
HETATM   16  C29 UNL     1      -2.848  -0.178  -0.924  1.00  0.00     0.005 C 
HETATM   17  C4  UNL     1      -5.211   1.563  -0.844  1.00  0.00     0.015 C 
HETATM   18  C3  UNL     1      -3.881   2.023  -0.258  1.00  0.00     0.086 C 
HETATM   19  C30 UNL     1      -2.801   1.326  -1.007  1.00  0.00     0.020 C 
HETATM   20  C28 UNL     1      -1.228  -1.924  -0.274  1.00  0.00     0.018 C 
BRANCH  18  21
HETATM   21  C2  UNL     1      -3.783   3.473  -0.528  1.00  0.00     0.262 C 
HETATM   22  O2  UNL     1      -2.825   3.893  -1.217  1.00  0.00    -0.265 OA
BRANCH  21  23
HETATM   23  O1  UNL     1      -4.704   4.399  -0.054  1.00  0.00    -0.326 OA
HETATM   24  C1  UNL     1      -4.519   5.772  -0.370  1.00  0.00     0.213 C 
ENDBRANCH  21  23
ENDBRANCH  18  21
ENDBRANCH   3   4
ENDBRANCH   1   3
BRANCH   1  25
HETATM   25  C17 UNL     1       2.438   0.636   0.624  1.00  0.00     0.153 C 
BRANCH  25  26
HETATM   26  C18 UNL     1       2.842  -0.819   0.646  1.00  0.00     0.284 C 
BRANCH  26  27
HETATM   27  N1  UNL     1       2.485  -1.470   1.866  1.00  0.00    -0.066 N 
ATOM     28  H13 UNL     1       2.864  -0.972   2.671  1.00  0.00     0.275 HD
ATOM     29  H12 UNL     1       1.489  -1.363   2.060  1.00  0.00     0.275 HD
ATOM     30  H11 UNL     1       2.758  -2.453   1.881  1.00  0.00     0.275 HD
ENDBRANCH  26  27
BRANCH  26  31
HETATM   31  C19 UNL     1       4.367  -0.805   0.585  1.00  0.00     0.253 C 
HETATM   32  O5  UNL     1       5.001  -1.310   1.542  1.00  0.00    -0.271 OA
HETATM   33  N2  UNL     1       4.951  -0.227  -0.542  1.00  0.00    -0.325 N 
ATOM     34  H2  UNL     1       4.317   0.144  -1.249  1.00  0.00     0.169 HD
BRANCH  33  35
HETATM   35  C20 UNL     1       6.338  -0.105  -0.801  1.00  0.00     0.035 A 
HETATM   36  C21 UNL     1       6.725   0.422  -2.044  1.00  0.00     0.032 A 
HETATM   37  C22 UNL     1       8.036   0.594  -2.407  1.00  0.00     0.039 A 
HETATM   38  C23 UNL     1       9.037   0.251  -1.554  1.00  0.00     0.078 A 
HETATM   39  C25 UNL     1       8.683  -0.268  -0.331  1.00  0.00     0.039 A 
HETATM   40  C26 UNL     1       7.341  -0.444   0.041  1.00  0.00     0.032 A 
BRANCH  38  41
HETATM   41  O6  UNL     1      10.381   0.385  -1.826  1.00  0.00    -0.255 OA
BRANCH  41  42
HETATM   42  C24 UNL     1      11.116   1.555  -1.518  1.00  0.00     0.530 C 
HETATM   43  F1  UNL     1      12.425   1.433  -1.887  1.00  0.00    -0.144 F 
HETATM   44  F2  UNL     1      11.014   1.727  -0.135  1.00  0.00    -0.144 F 
HETATM   45  F3  UNL     1      10.531   2.640  -2.104  1.00  0.00    -0.144 F 
ENDBRANCH  41  42
ENDBRANCH  38  41
ENDBRANCH  33  35
ENDBRANCH  26  31
ENDBRANCH  25  26
ENDBRANCH   1  25
TORSDOF 11
