REMARK  12 active torsions:
REMARK  status: ('A' for Active; 'I' for Inactive)
REMARK    1  A    between atoms: N1_1  and  C1_4 
REMARK    2  A    between atoms: C4_7  and  C5_8 
REMARK    3  A    between atoms: C6_9  and  C7_10 
REMARK    4  A    between atoms: N2_15  and  C12_16 
REMARK    5  A    between atoms: C12_16  and  O1_17 
REMARK    6  A    between atoms: O1_17  and  C13_18 
REMARK    7  A    between atoms: C13_18  and  C14_19 
REMARK    8  A    between atoms: C15_20  and  C16_21 
REMARK    9  A    between atoms: C17_22  and  C18_23 
REMARK   10  A    between atoms: C18_23  and  N3_24 
REMARK   11  A    between atoms: N4_27  and  O2_28 
REMARK   12  A    between atoms: C22_31  and  C23_32 
ROOT
HETATM    1  C7  UNL     1       3.228  -2.431  -0.545  1.00  0.00     0.090 A 
HETATM    2  C8  UNL     1       3.665  -3.712  -0.815  1.00  0.00     0.039 A 
HETATM    3  C9  UNL     1       2.802  -4.767  -1.011  1.00  0.00     0.004 A 
HETATM    4  C10 UNL     1       1.446  -4.545  -0.937  1.00  0.00     0.017 A 
HETATM    5  C11 UNL     1       1.015  -3.266  -0.668  1.00  0.00     0.094 A 
HETATM    6  N2  UNL     1       1.889  -2.268  -0.483  1.00  0.00    -0.328 N 
ENDROOT
BRANCH   6   7
HETATM    7  C12 UNL     1       1.438  -0.899  -0.195  1.00  0.00     0.299 C 
BRANCH   7   8
HETATM    8  O1  UNL     1       1.293  -0.276  -1.440  1.00  0.00    -0.360 OA
BRANCH   8   9
HETATM    9  C13 UNL     1       0.862   1.049  -1.273  1.00  0.00     0.264 C 
BRANCH   9  10
HETATM   10  C14 UNL     1      -0.441   1.023  -0.571  1.00  0.00    -0.066 C 
HETATM   11  C15 UNL     1      -1.510   0.985  -0.009  1.00  0.00    -0.013 C 
BRANCH  11  12
HETATM   12  C16 UNL     1      -2.769   0.917   0.644  1.00  0.00    -0.013 C 
HETATM   13  C17 UNL     1      -3.831   0.843   1.208  1.00  0.00    -0.072 C 
BRANCH  13  14
HETATM   14  C18 UNL     1      -5.104   0.777   1.901  1.00  0.00     0.223 C 
BRANCH  14  15
HETATM   15  N3  UNL     1      -6.252   1.004   1.078  1.00  0.00    -0.346 N 
HETATM   16  C19 UNL     1      -6.736   2.267   0.887  1.00  0.00     0.111 A 
HETATM   17  C20 UNL     1      -7.823   2.548   0.117  1.00  0.00     0.139 A 
HETATM   18  N4  UNL     1      -8.454   1.527  -0.490  1.00  0.00    -0.244 N 
HETATM   19  C21 UNL     1      -7.999   0.266  -0.320  1.00  0.00     0.148 A 
HETATM   20  C22 UNL     1      -6.882  -0.006   0.474  1.00  0.00     0.040 A 
BRANCH  18  21
HETATM   21  O2  UNL     1      -9.558   1.812  -1.272  1.00  0.00    -0.284 OA
ATOM     22  H2  UNL     1     -10.004   1.091  -1.701  1.00  0.00     0.245 HD
ENDBRANCH  18  21
BRANCH  20  23
HETATM   23  C23 UNL     1      -6.486  -1.409   0.580  1.00  0.00     0.144 C 
HETATM   24 BR1  UNL     1      -5.272  -1.854  -0.857  1.00  0.00    -0.090 Br
ENDBRANCH  20  23
ENDBRANCH  14  15
ENDBRANCH  13  14
ENDBRANCH  11  12
ENDBRANCH   9  10
ENDBRANCH   8   9
ENDBRANCH   7   8
ENDBRANCH   6   7
BRANCH   1  25
HETATM   25  C6  UNL     1       4.154  -1.350  -0.344  1.00  0.00    -0.043 C 
HETATM   26  C5  UNL     1       4.949  -0.453  -0.182  1.00  0.00    -0.059 C 
BRANCH  26  27
HETATM   27  C4  UNL     1       5.910   0.595   0.002  1.00  0.00     0.033 A 
HETATM   28  C3  UNL     1       5.530   1.920  -0.018  1.00  0.00     0.026 A 
HETATM   29  C2  UNL     1       6.428   2.943   0.156  1.00  0.00     0.049 A 
HETATM   30  C1  UNL     1       7.754   2.638   0.358  1.00  0.00     0.098 A 
HETATM   31  N5  UNL     1       8.142   1.358   0.381  1.00  0.00    -0.351 N 
HETATM   32  C24 UNL     1       7.263   0.371   0.211  1.00  0.00     0.110 A 
ATOM     33  H5  UNL     1       9.126   1.134   0.531  1.00  0.00     0.166 HD
BRANCH  30  34
HETATM   34  N1  UNL     1       8.632   3.603   0.527  1.00  0.00    -0.385 N 
ATOM     35  H12 UNL     1       8.336   4.579   0.509  1.00  0.00     0.157 HD
ATOM     36  H11 UNL     1       9.615   3.377   0.677  1.00  0.00     0.157 HD
ENDBRANCH  30  34
ENDBRANCH  26  27
ENDBRANCH   1  25
TORSDOF 12
