REMARK  4 active torsions:
REMARK  status: ('A' for Active; 'I' for Inactive)
REMARK    1  A    between atoms: O1_2  and  C2_3 
REMARK       I    between atoms: C2_3  and  N1_5 
REMARK    2  A    between atoms: C9_20  and  N5_21 
REMARK    3  A    between atoms: N5_21  and  O5_23 
REMARK    4  A    between atoms: C10_25  and  N6_26 
ROOT
HETATM    1  C2  UNL     1       4.345  -0.139  -0.582  1.00  0.00     0.364 C 
HETATM    2  O2  UNL     1       4.882   0.624  -1.430  1.00  0.00    -0.238 OA
HETATM    3  N1  UNL     1       2.957  -0.433  -0.584  1.00  0.00    -0.295 N 
ATOM      4  H1  UNL     1       2.617  -1.319  -0.957  1.00  0.00     0.171 HD
HETATM    5  C3  UNL     1       2.135   0.432  -0.109  1.00  0.00     0.143 A 
HETATM    6  C4  UNL     1       2.446   1.737   0.460  1.00  0.00     0.318 A 
HETATM    7  O3  UNL     1       3.602   2.252   0.586  1.00  0.00    -0.257 OA
HETATM    8  O4  UNL     1       1.234   2.334   0.850  1.00  0.00    -0.265 OA
HETATM    9  C5  UNL     1       0.179   1.466   0.552  1.00  0.00     0.178 A 
HETATM   10  C6  UNL     1       0.676   0.320  -0.022  1.00  0.00     0.121 A 
HETATM   11  N2  UNL     1      -0.150  -0.667  -0.396  1.00  0.00    -0.185 N 
ATOM     12  H2  UNL     1       0.216  -1.518  -0.822  1.00  0.00     0.184 HD
HETATM   13  C7  UNL     1      -1.475  -0.512  -0.198  1.00  0.00     0.695 A 
HETATM   14  N3  UNL     1      -2.300  -1.518  -0.581  1.00  0.00    -0.175 N 
ATOM     15  H3  UNL     1      -1.904  -2.358  -1.004  1.00  0.00     0.185 HD
HETATM   16  C8  UNL     1      -3.625  -1.427  -0.413  1.00  0.00     0.164 A 
HETATM   17  N4  UNL     1      -4.467  -2.510  -0.830  1.00  0.00    -0.080 NA
HETATM   18  C9  UNL     1      -4.143  -0.312   0.148  1.00  0.00     0.140 A 
HETATM   19  C10 UNL     1      -3.328   0.764   0.564  1.00  0.00     0.158 A 
HETATM   20  N7  UNL     1      -1.998   0.608   0.366  1.00  0.00    -0.091 N 
HETATM   21  C11 UNL     1      -1.187   1.610   0.748  1.00  0.00     0.304 A 
HETATM   22  O6  UNL     1      -1.610   2.686   1.282  1.00  0.00    -0.264 OA
ENDROOT
BRANCH   1  23
HETATM   23  O1  UNL     1       5.201  -0.692   0.380  1.00  0.00    -0.309 OA
HETATM   24  C1  UNL     1       6.568  -0.397   0.376  1.00  0.00     0.215 C 
ENDBRANCH   1  23
BRANCH  19  25
HETATM   25  N6  UNL     1      -3.926   1.729   1.064  1.00  0.00    -0.383 N 
ATOM     26  H62 UNL     1      -4.928   1.847   1.213  1.00  0.00     0.157 HD
ATOM     27  H61 UNL     1      -3.337   2.506   1.364  1.00  0.00     0.157 HD
ENDBRANCH  19  25
BRANCH  18  28
HETATM   28  N5  UNL     1      -5.559  -0.236   0.318  1.00  0.00    -0.262 N 
ATOM     29  H5  UNL     1      -6.081   0.551  -0.068  1.00  0.00     0.194 HD
BRANCH  28  30
HETATM   30  O5  UNL     1      -6.160  -1.148   0.949  1.00  0.00    -0.289 OA
ATOM     31  H5  UNL     1      -7.102  -1.097   1.062  1.00  0.00     0.244 HD
ENDBRANCH  28  30
ENDBRANCH  18  28
TORSDOF 4
