REMARK  4 active torsions:
REMARK  status: ('A' for Active; 'I' for Inactive)
REMARK    1  A    between atoms: N2_5  and  C3_6 
REMARK    2  A    between atoms: C10_14  and  C11_15 
REMARK    3  A    between atoms: C11_15  and  C12_16 
REMARK    4  A    between atoms: C14_22  and  N5_23 
ROOT
HETATM    1  C1  UNL     1       1.152   0.104   2.035  1.00  0.00     0.045 C 
HETATM    2  C2  UNL     1       0.395   0.078   0.957  1.00  0.00     0.055 A 
HETATM    3  N1  UNL     1      -0.957  -0.065   0.957  1.00  0.00    -0.291 N 
ATOM      4  H1  UNL     1      -1.510  -0.167   1.808  1.00  0.00     0.187 HD
HETATM    5  N2  UNL     1      -1.476  -0.059  -0.241  1.00  0.00    -0.220 N 
HETATM    6  C9  UNL     1      -0.470   0.089  -1.066  1.00  0.00     0.279 A 
HETATM    7  O1  UNL     1      -0.538   0.145  -2.299  1.00  0.00    -0.265 OA
HETATM    8  C10 UNL     1       0.763   0.184  -0.365  1.00  0.00     0.062 A 
ENDROOT
BRANCH   8   9
HETATM    9  C11 UNL     1       1.922   0.337  -0.947  1.00  0.00     0.036 C 
BRANCH   9  10
HETATM   10  C12 UNL     1       3.203   0.442  -0.341  1.00  0.00     0.027 A 
HETATM   11  C13 UNL     1       3.854   1.623   0.049  1.00  0.00     0.122 A 
HETATM   12  N3  UNL     1       5.051   1.286   0.531  1.00  0.00    -0.309 N 
HETATM   13  N4  UNL     1       5.227  -0.012   0.484  1.00  0.00    -0.285 N 
ATOM     14  H3  UNL     1       5.738   1.950   0.889  1.00  0.00     0.186 HD
HETATM   15  C14 UNL     1       4.127  -0.569  -0.040  1.00  0.00     0.125 A 
ATOM     16  H4  UNL     1       6.060  -0.513   0.794  1.00  0.00     0.188 HD
BRANCH  15  17
HETATM   17  N5  UNL     1       3.907  -1.809  -0.250  1.00  0.00    -0.384 N 
ATOM     18  H52 UNL     1       3.070  -2.233  -0.649  1.00  0.00     0.157 HD
ATOM     19  H51 UNL     1       4.579  -2.544  -0.031  1.00  0.00     0.157 HD
ENDBRANCH  15  17
ENDBRANCH   9  10
ENDBRANCH   8   9
BRANCH   5  20
HETATM   20  C3  UNL     1      -2.873  -0.194  -0.499  1.00  0.00     0.060 A 
HETATM   21  C4  UNL     1      -3.358  -0.850  -1.609  1.00  0.00     0.031 A 
HETATM   22  C5  UNL     1      -4.695  -0.989  -1.872  1.00  0.00     0.002 A 
HETATM   23  C6  UNL     1      -5.593  -0.439  -0.974  1.00  0.00     0.000 A 
HETATM   24  C7  UNL     1      -5.163   0.228   0.152  1.00  0.00     0.002 A 
HETATM   25  C8  UNL     1      -3.806   0.340   0.371  1.00  0.00     0.031 A 
ENDBRANCH   5  20
TORSDOF 4
