REMARK  4 active torsions:
REMARK  status: ('A' for Active; 'I' for Inactive)
REMARK    1  A    between atoms: O1_2  and  C2_3 
REMARK    2  A    between atoms: C5_7  and  O2_8 
REMARK    3  A    between atoms: C7_11  and  C8_12 
REMARK    4  A    between atoms: C10_18  and  N1_19 
ROOT
HETATM    1  C2  UNL     1      -1.505   0.765   0.062  1.00  0.00     0.178 C 
HETATM    2 BR1  UNL     1      -2.826   0.327   1.401  1.00  0.00    -0.046 Br
HETATM    3  C3  UNL     1      -0.876   2.028   0.456  1.00  0.00     0.026 C 
HETATM    4  C4  UNL     1       0.350   1.776   0.863  1.00  0.00     0.019 C 
HETATM    5  C5  UNL     1       0.668   0.332   0.786  1.00  0.00     0.144 C 
HETATM    6  C6  UNL     1       1.993   0.246   0.156  1.00  0.00    -0.022 C 
HETATM    7  C7  UNL     1       3.104   0.465   0.843  1.00  0.00     0.048 C 
HETATM    8  C9  UNL     1       1.992  -0.088  -1.260  1.00  0.00     0.181 C 
HETATM    9  S1  UNL     1       0.276  -0.227  -1.667  1.00  0.00     0.182 S 
HETATM   10  O4  UNL     1       0.091  -1.522  -2.368  1.00  0.00    -0.225 OA
HETATM   11  O5  UNL     1      -0.137   0.960  -2.428  1.00  0.00    -0.225 OA
HETATM   12  C10 UNL     1      -0.387  -0.233   0.006  1.00  0.00     0.216 C 
ENDROOT
BRANCH   1  13
HETATM   13  O1  UNL     1      -2.179   0.891  -1.135  1.00  0.00    -0.366 OA
HETATM   14  C1  UNL     1      -3.142   1.846  -1.071  1.00  0.00     0.204 C 
ENDBRANCH   1  13
BRANCH  12  15
HETATM   15  N1  UNL     1      -0.830  -1.535   0.234  1.00  0.00    -0.394 N 
HETATM   16  C11 UNL     1      -1.747  -2.127  -0.654  1.00  0.00     0.144 C 
HETATM   17  C12 UNL     1      -0.773  -2.165   1.454  1.00  0.00     0.144 C 
ENDBRANCH  12  15
BRANCH   5  18
HETATM   18  O2  UNL     1       0.824  -0.117   2.093  1.00  0.00    -0.377 OA
ATOM     19  H2  UNL     1       1.028  -1.044   2.044  1.00  0.00     0.211 HD
ENDBRANCH   5  18
BRANCH   7  20
HETATM   20  C8  UNL     1       4.440   0.393   0.269  1.00  0.00     0.259 C 
HETATM   21  O3  UNL     1       4.614   0.116  -0.922  1.00  0.00    -0.302 OA
ENDBRANCH   7  20
TORSDOF 4
