REMARK  10 active torsions:
REMARK  status: ('A' for Active; 'I' for Inactive)
REMARK    1  A    between atoms: N1_2  and  C2_4 
REMARK    2  A    between atoms: C3_7  and  N3_8 
REMARK    3  A    between atoms: N3_8  and  N4_10 
REMARK    4  A    between atoms: C4_12  and  C5_13 
REMARK    5  A    between atoms: C8_16  and  N5_17 
REMARK    6  A    between atoms: C13_24  and  N7_25 
REMARK    7  A    between atoms: N7_25  and  C14_27 
REMARK    8  A    between atoms: C14_27  and  C15_28 
REMARK    9  A    between atoms: C14_27  and  C22_35 
REMARK   10  A    between atoms: C15_28  and  C16_29 
ROOT
HETATM    1  C2  UNL     1       0.328  -2.271  -0.020  1.00  0.00     0.706 A 
HETATM    2  N2  UNL     1       1.309  -1.344   0.126  1.00  0.00    -0.020 N 
ATOM      3  H2  UNL     1       2.286  -1.638   0.134  1.00  0.00     0.203 HD
HETATM    4  C3  UNL     1       1.005  -0.042   0.260  1.00  0.00     0.726 A 
HETATM    5  N6  UNL     1      -0.297   0.349   0.251  1.00  0.00    -0.020 N 
ATOM      6  H6  UNL     1      -0.522   1.338   0.355  1.00  0.00     0.203 HD
HETATM    7  C13 UNL     1      -1.317  -0.563   0.105  1.00  0.00     0.707 A 
HETATM    8  N9  UNL     1      -0.936  -1.833  -0.022  1.00  0.00    -0.022 N 
ATOM      9  H9  UNL     1      -1.671  -2.532  -0.130  1.00  0.00     0.203 HD
ENDROOT
BRANCH   7  10
HETATM   10  N7  UNL     1      -2.439  -0.151   0.094  1.00  0.00    -0.216 N 
ATOM     11  H7  UNL     1      -2.316   0.855   0.207  1.00  0.00     0.178 HD
BRANCH  10  12
HETATM   12  C14 UNL     1      -3.816  -0.290   0.012  1.00  0.00     0.139 C 
BRANCH  12  13
HETATM   13  C15 UNL     1      -4.351  -1.621   0.520  1.00  0.00     0.069 C 
BRANCH  13  14
HETATM   14  C16 UNL     1      -5.815  -1.700   0.303  1.00  0.00    -0.056 A 
HETATM   15  C17 UNL     1      -6.262  -1.902  -1.015  1.00  0.00     0.007 A 
HETATM   16  C18 UNL     1      -7.587  -2.037  -1.329  1.00  0.00     0.001 A 
HETATM   17  C19 UNL     1      -8.521  -1.975  -0.333  1.00  0.00     0.000 A 
HETATM   18  C20 UNL     1      -8.137  -1.779   0.983  1.00  0.00     0.001 A 
HETATM   19  C21 UNL     1      -6.771  -1.647   1.261  1.00  0.00     0.007 A 
ENDBRANCH  13  14
ENDBRANCH  12  13
BRANCH  12  20
HETATM   20  C22 UNL     1      -4.459   0.880   0.739  1.00  0.00    -0.007 A 
HETATM   21  C23 UNL     1      -4.920   0.990   2.013  1.00  0.00     0.098 A 
HETATM   22  N8  UNL     1      -5.309   2.285   2.243  1.00  0.00    -0.365 N 
HETATM   23  C24 UNL     1      -5.106   3.009   1.138  1.00  0.00     0.043 A 
ATOM     24  H8  UNL     1      -5.693   2.640   3.119  1.00  0.00     0.165 HD
HETATM   25  C25 UNL     1      -5.319   4.337   0.811  1.00  0.00     0.030 A 
HETATM   26  C29 UNL     1      -4.584   2.159   0.207  1.00  0.00     0.000 A 
HETATM   27  C26 UNL     1      -5.006   4.824  -0.464  1.00  0.00     0.002 A 
HETATM   28  C27 UNL     1      -4.479   3.943  -1.388  1.00  0.00     0.001 A 
HETATM   29  C28 UNL     1      -4.266   2.602  -1.053  1.00  0.00     0.014 A 
ENDBRANCH  12  20
ENDBRANCH  10  12
ENDBRANCH   7  10
BRANCH   4  30
HETATM   30  N3  UNL     1       1.935   0.809   0.383  1.00  0.00    -0.131 N 
ATOM     31  H3  UNL     1       1.572   1.757   0.477  1.00  0.00     0.205 HD
BRANCH  30  32
HETATM   32  N4  UNL     1       3.264   0.782   0.421  1.00  0.00    -0.297 N 
HETATM   33  C4  UNL     1       4.118   0.528  -0.493  1.00  0.00     0.119 C 
ATOM     34  H4  UNL     1       3.668   1.001   1.332  1.00  0.00     0.186 HD
BRANCH  33  35
HETATM   35  C5  UNL     1       5.560   0.535  -0.316  1.00  0.00    -0.019 A 
HETATM   36  C6  UNL     1       6.411   0.247  -1.386  1.00  0.00     0.015 A 
HETATM   37  C7  UNL     1       7.784   0.262  -1.260  1.00  0.00     0.030 A 
HETATM   38  C8  UNL     1       8.381   0.571  -0.042  1.00  0.00     0.029 A 
HETATM   39  C11 UNL     1       7.556   0.855   1.020  1.00  0.00     0.030 A 
HETATM   40  C12 UNL     1       6.162   0.838   0.885  1.00  0.00     0.015 A 
BRANCH  38  41
HETATM   41  N5  UNL     1       9.804   0.588   0.041  1.00  0.00    -0.390 N 
HETATM   42  C9  UNL     1      10.516   1.817   0.391  1.00  0.00     0.149 C 
HETATM   43  C10 UNL     1      10.575  -0.604  -0.238  1.00  0.00     0.149 C 
ENDBRANCH  38  41
ENDBRANCH  33  35
ENDBRANCH  30  32
ENDBRANCH   4  30
BRANCH   1  44
HETATM   44  N1  UNL     1       0.684  -3.490  -0.145  1.00  0.00    -0.229 N 
HETATM   45  C1  UNL     1      -0.212  -4.596  -0.307  1.00  0.00     0.165 C 
ATOM     46  H1  UNL     1       1.684  -3.693  -0.128  1.00  0.00     0.177 HD
ENDBRANCH   1  44
TORSDOF 10
