REMARK  8 active torsions:
REMARK  status: ('A' for Active; 'I' for Inactive)
REMARK    1  A    between atoms: C1_4  and  C2_6 
REMARK    2  A    between atoms: C9_13  and  C10_14 
REMARK    3  A    between atoms: N3_15  and  C11_17 
REMARK    4  A    between atoms: C14_20  and  C15_21 
REMARK    5  A    between atoms: C15_21  and  C16_22 
REMARK    6  A    between atoms: C16_22  and  N4_23 
REMARK    7  A    between atoms: N4_23  and  C17_25 
REMARK    8  A    between atoms: C18_28  and  N6_29 
ROOT
HETATM    1  C11 UNL     1      -1.596  -1.024   1.181  1.00  0.00     0.031 A 
HETATM    2  C12 UNL     1      -1.217  -0.638   2.475  1.00  0.00     0.030 A 
HETATM    3  C13 UNL     1       0.045  -0.198   2.786  1.00  0.00     0.009 A 
HETATM    4  C14 UNL     1       1.028  -0.109   1.823  1.00  0.00    -0.057 A 
HETATM    5  C25 UNL     1       0.679  -0.483   0.543  1.00  0.00     0.009 A 
HETATM    6  C26 UNL     1      -0.580  -0.925   0.220  1.00  0.00     0.030 A 
ENDROOT
BRANCH   4   7
HETATM    7  C15 UNL     1       2.402   0.369   2.137  1.00  0.00     0.058 C 
BRANCH   7   8
HETATM    8  C16 UNL     1       3.303  -0.780   2.553  1.00  0.00     0.142 C 
BRANCH   8   9
HETATM    9  N4  UNL     1       3.431  -1.762   1.543  1.00  0.00    -0.226 N 
ATOM     10  H4  UNL     1       2.832  -2.585   1.615  1.00  0.00     0.177 HD
BRANCH   9  11
HETATM   11  C17 UNL     1       4.226  -1.709   0.555  1.00  0.00     0.682 A 
HETATM   12  N5  UNL     1       5.049  -0.678   0.370  1.00  0.00    -0.176 N 
HETATM   13  C18 UNL     1       5.898  -0.634  -0.691  1.00  0.00     0.131 A 
ATOM     14  H5  UNL     1       5.042   0.093   1.037  1.00  0.00     0.186 HD
HETATM   15  C23 UNL     1       5.871  -1.698  -1.565  1.00  0.00     0.124 A 
HETATM   16  C24 UNL     1       5.014  -2.757  -1.361  1.00  0.00     0.263 A 
HETATM   17  O2  UNL     1       4.966  -3.746  -2.143  1.00  0.00    -0.268 OA
HETATM   18  N7  UNL     1       4.202  -2.758  -0.311  1.00  0.00    -0.156 N 
ATOM     19  H7  UNL     1       3.565  -3.539  -0.155  1.00  0.00     0.187 HD
BRANCH  13  20
HETATM   20  N6  UNL     1       6.785   0.477  -0.890  1.00  0.00    -0.303 N 
HETATM   21  C19 UNL     1       8.125   0.568  -0.300  1.00  0.00     0.134 C 
HETATM   22  C20 UNL     1       8.862   1.261  -1.453  1.00  0.00     0.029 C 
HETATM   23  C21 UNL     1       7.870   2.392  -1.747  1.00  0.00     0.105 C 
HETATM   24  C22 UNL     1       6.577   1.659  -1.651  1.00  0.00     0.225 C 
HETATM   25  O1  UNL     1       5.450   1.970  -2.135  1.00  0.00    -0.273 OA
ENDBRANCH  13  20
ENDBRANCH   9  11
ENDBRANCH   8   9
ENDBRANCH   7   8
ENDBRANCH   4   7
BRANCH   1  26
HETATM   26  N3  UNL     1      -2.864  -1.476   0.902  1.00  0.00    -0.365 N 
HETATM   27  C10 UNL     1      -3.967  -1.022   0.554  1.00  0.00     0.100 C 
ATOM     28  H3  UNL     1      -2.914  -2.489   1.015  1.00  0.00     0.165 HD
BRANCH  27  29
HETATM   29  C9  UNL     1      -4.442   0.285   0.266  1.00  0.00    -0.010 A 
HETATM   30  C8  UNL     1      -3.634   1.387   0.330  1.00  0.00     0.013 A 
HETATM   31  C7  UNL     1      -4.083   2.687   0.044  1.00  0.00     0.002 A 
HETATM   32  C6  UNL     1      -5.376   2.879  -0.315  1.00  0.00     0.012 A 
HETATM   33  C5  UNL     1      -6.213   1.779  -0.387  1.00  0.00    -0.025 A 
HETATM   34  C4  UNL     1      -7.516   2.045  -0.756  1.00  0.00     0.013 A 
HETATM   35  C27 UNL     1      -5.777   0.499  -0.107  1.00  0.00    -0.013 A 
HETATM   36  C3  UNL     1      -8.414   1.019  -0.852  1.00  0.00     0.015 A 
HETATM   37  C2  UNL     1      -7.984  -0.279  -0.571  1.00  0.00     0.005 A 
HETATM   38  C28 UNL     1      -6.684  -0.544  -0.202  1.00  0.00     0.028 A 
BRANCH  37  39
HETATM   39  C1  UNL     1      -8.959  -1.352  -0.678  1.00  0.00     0.120 C 
HETATM   40  N1  UNL     1      -8.686  -2.575  -0.448  1.00  0.00    -0.387 N 
ATOM     41  H12 UNL     1      -9.370  -3.328  -0.523  1.00  0.00     0.157 HD
ATOM     42  H11 UNL     1      -7.728  -2.793  -0.175  1.00  0.00     0.157 HD
HETATM   43  N2  UNL     1     -10.303  -1.046  -1.061  1.00  0.00    -0.082 NA
ENDBRANCH  37  39
ENDBRANCH  27  29
ENDBRANCH   1  26
TORSDOF 8
