REMARK  16 active torsions:
REMARK  status: ('A' for Active; 'I' for Inactive)
REMARK       I    between atoms: N1_2  and  C2_4 
REMARK       I    between atoms: C2_4  and  N2_6 
REMARK    1  A    between atoms: N2_6  and  C3_8 
REMARK    2  A    between atoms: C3_8  and  O2_9 
REMARK    3  A    between atoms: C3_8  and  C4_11 
REMARK    4  A    between atoms: C6_15  and  N4_16 
REMARK    5  A    between atoms: C7_21  and  C8_22 
REMARK    6  A    between atoms: C9_25  and  N7_26 
REMARK    7  A    between atoms: C10_31  and  N9_32 
REMARK    8  A    between atoms: N12_40  and  C12_41 
REMARK    9  A    between atoms: C12_41  and  C13_42 
REMARK       I    between atoms: C13_42  and  N13_44 
REMARK   10  A    between atoms: N13_44  and  C14_46 
REMARK   11  A    between atoms: C14_46  and  C15_47 
REMARK   12  A    between atoms: C14_46  and  C23_55 
REMARK   13  A    between atoms: C15_47  and  C16_48 
REMARK   14  A    between atoms: C16_48  and  C17_49 
REMARK       I    between atoms: C23_55  and  N14_57 
REMARK   15  A    between atoms: N14_57  and  C24_58 
REMARK   16  A    between atoms: C24_58  and  C25_59 
ROOT
HETATM    1  C4  UNL     1      -3.141   2.313   0.504  1.00  0.00     0.136 A 
HETATM    2  N3  UNL     1      -4.125   2.502   1.426  1.00  0.00    -0.336 N 
ATOM      3  H3  UNL     1      -4.390   3.397   1.837  1.00  0.00     0.167 HD
HETATM    4  C5  UNL     1      -4.683   1.330   1.702  1.00  0.00     0.122 A 
HETATM    5  C6  UNL     1      -5.710   0.951   2.536  1.00  0.00     0.131 A 
HETATM    6  N5  UNL     1      -6.061  -0.328   2.587  1.00  0.00    -0.324 N 
ATOM      7  H5  UNL     1      -6.823  -0.605   3.206  1.00  0.00     0.169 HD
HETATM    8  C7  UNL     1      -5.447  -1.269   1.852  1.00  0.00     0.154 A 
HETATM    9  N11 UNL     1      -4.454  -0.887   1.053  1.00  0.00    -0.323 N 
ATOM     10  H11 UNL     1      -3.981  -1.596   0.492  1.00  0.00     0.169 HD
HETATM   11  C11 UNL     1      -4.050   0.371   0.951  1.00  0.00     0.142 A 
HETATM   12  N12 UNL     1      -3.090   1.003   0.212  1.00  0.00    -0.308 N 
ENDROOT
BRANCH  12  13
HETATM   13  C12 UNL     1      -2.177   0.308  -0.654  1.00  0.00     0.234 C 
BRANCH  13  14
HETATM   14  C13 UNL     1      -1.006  -0.223   0.108  1.00  0.00     0.236 C 
HETATM   15  O3  UNL     1      -1.149  -0.369   1.329  1.00  0.00    -0.272 OA
HETATM   16  N13 UNL     1       0.202  -0.533  -0.555  1.00  0.00    -0.345 N 
ATOM     17  H13 UNL     1       0.268  -0.381  -1.561  1.00  0.00     0.163 HD
BRANCH  16  18
HETATM   18  C14 UNL     1       1.366  -1.068   0.163  1.00  0.00     0.192 C 
BRANCH  18  19
HETATM   19  C15 UNL     1       2.235  -1.933  -0.642  1.00  0.00     0.041 C 
BRANCH  19  20
HETATM   20  C16 UNL     1       2.833  -1.293  -1.866  1.00  0.00     0.041 C 
BRANCH  20  21
HETATM   21  C17 UNL     1       3.659  -2.187  -2.666  1.00  0.00    -0.058 A 
HETATM   22  C18 UNL     1       3.039  -2.917  -3.693  1.00  0.00     0.007 A 
HETATM   23  C19 UNL     1       3.825  -3.768  -4.448  1.00  0.00     0.001 A 
HETATM   24  C20 UNL     1       5.180  -3.933  -4.243  1.00  0.00     0.000 A 
HETATM   25  C21 UNL     1       5.796  -3.206  -3.221  1.00  0.00     0.001 A 
HETATM   26  C22 UNL     1       4.994  -2.348  -2.462  1.00  0.00     0.007 A 
ENDBRANCH  20  21
ENDBRANCH  19  20
ENDBRANCH  18  19
BRANCH  18  27
HETATM   27  C23 UNL     1       1.973   0.079   0.863  1.00  0.00     0.313 C 
HETATM   28  O4  UNL     1       1.424   1.186   0.734  1.00  0.00    -0.255 OA
HETATM   29  N14 UNL     1       3.174  -0.054   1.696  1.00  0.00    -0.386 NA
BRANCH  29  30
HETATM   30  C24 UNL     1       4.192  -0.157   2.405  1.00  0.00     0.165 C 
BRANCH  30  31
HETATM   31  C25 UNL     1       5.413   0.709   2.003  1.00  0.00     0.064 C 
HETATM   32  C26 UNL     1       5.874   0.314   0.604  1.00  0.00     0.014 C 
HETATM   33  C27 UNL     1       6.971   1.269   0.157  1.00  0.00     0.028 C 
HETATM   34  C28 UNL     1       7.209   2.320   1.223  1.00  0.00     0.232 C 
HETATM   35  N15 UNL     1       6.038   3.007   1.612  1.00  0.00    -0.074 N 
HETATM   36  C29 UNL     1       4.946   2.128   1.897  1.00  0.00     0.243 C 
ATOM     37 2H15 UNL     1       6.223   3.626   2.401  1.00  0.00     0.277 HD
ATOM     38 1H15 UNL     1       5.774   3.702   0.914  1.00  0.00     0.277 HD
ENDBRANCH  30  31
ENDBRANCH  29  30
ENDBRANCH  18  27
ENDBRANCH  16  18
ENDBRANCH  13  14
ENDBRANCH  12  13
BRANCH   1  39
HETATM   39  C3  UNL     1      -2.352   3.418  -0.025  1.00  0.00     0.290 C 
BRANCH  39  40
HETATM   40  N2  UNL     1      -2.519   3.639  -1.452  1.00  0.00    -0.310 N 
HETATM   41  C2  UNL     1      -3.320   4.702  -1.938  1.00  0.00     0.318 C 
HETATM   42  N1  UNL     1      -3.553   5.005  -3.297  1.00  0.00    -0.347 N 
HETATM   43  O1  UNL     1      -3.883   5.448  -1.081  1.00  0.00    -0.247 OA
HETATM   44  C1  UNL     1      -4.419   6.115  -3.700  1.00  0.00     0.151 C 
ATOM     45  H1  UNL     1      -3.107   4.436  -4.017  1.00  0.00     0.163 HD
ATOM     46  H2  UNL     1      -2.052   3.019  -2.114  1.00  0.00     0.167 HD
ENDBRANCH  39  40
BRANCH  39  47
HETATM   47  O2  UNL     1      -1.004   3.388   0.281  1.00  0.00    -0.369 OA
ATOM     48  H2  UNL     1      -0.895   3.244   1.214  1.00  0.00     0.212 HD
ENDBRANCH  39  47
ENDBRANCH   1  39
BRANCH   5  49
HETATM   49  N4  UNL     1      -6.328   1.847   3.254  1.00  0.00    -0.383 N 
ATOM     50  H42 UNL     1      -6.058   2.830   3.215  1.00  0.00     0.157 HD
ATOM     51  H41 UNL     1      -7.089   1.566   3.872  1.00  0.00     0.157 HD
ENDBRANCH   5  49
BRANCH   8  52
HETATM   52  C8  UNL     1      -5.941  -2.649   1.967  1.00  0.00     0.180 A 
HETATM   53  N6  UNL     1      -6.988  -2.886   2.798  1.00  0.00    -0.172 N 
HETATM   54  C9  UNL     1      -7.516  -4.111   2.961  1.00  0.00     0.692 A 
ATOM     55  H6  UNL     1      -7.389  -2.105   3.318  1.00  0.00     0.186 HD
HETATM   56  N8  UNL     1      -7.004  -5.162   2.283  1.00  0.00    -0.023 N 
HETATM   57  C10 UNL     1      -5.961  -4.929   1.455  1.00  0.00     0.692 A 
ATOM     58  H8  UNL     1      -7.391  -6.099   2.392  1.00  0.00     0.203 HD
HETATM   59  N10 UNL     1      -5.452  -3.694   1.311  1.00  0.00    -0.172 N 
ATOM     60  H10 UNL     1      -4.665  -3.555   0.677  1.00  0.00     0.186 HD
BRANCH  54  61
HETATM   61  N7  UNL     1      -8.504  -4.313   3.766  1.00  0.00    -0.234 N 
ATOM     62  H72 UNL     1      -8.890  -3.520   4.278  1.00  0.00     0.174 HD
ATOM     63  H71 UNL     1      -8.905  -5.243   3.890  1.00  0.00     0.174 HD
ENDBRANCH  54  61
BRANCH  57  64
HETATM   64  N9  UNL     1      -5.490  -5.955   0.819  1.00  0.00    -0.234 N 
ATOM     65  H92 UNL     1      -5.876  -6.893   0.928  1.00  0.00     0.174 HD
ATOM     66  H91 UNL     1      -4.703  -5.779   0.194  1.00  0.00     0.174 HD
ENDBRANCH  57  64
ENDBRANCH   8  52
TORSDOF 16
