REMARK  4 active torsions:
REMARK  status: ('A' for Active; 'I' for Inactive)
REMARK    1  A    between atoms: C2_2  and  C3_3 
REMARK    2  A    between atoms: C2_2  and  N5_11 
REMARK    3  A    between atoms: C4_4  and  N1_5 
REMARK    4  A    between atoms: N5_11  and  N6_12 
ROOT
HETATM    1  C3  UNL     1      -0.260  -0.014   0.071  1.00  0.00    -0.010 C 
HETATM    2  C4  UNL     1       0.951   0.015   0.005  1.00  0.00     0.063 C 
ENDROOT
BRANCH   1   3
HETATM    3  C2  UNL     1      -1.695  -0.069   0.163  1.00  0.00     0.159 C 
HETATM    4  C1  UNL     1      -2.453   0.962   0.922  1.00  0.00     0.098 C 
BRANCH   3   5
HETATM    5  N5  UNL     1      -2.361  -0.978  -0.387  1.00  0.00    -0.329 NA
BRANCH   5   6
HETATM    6  N6  UNL     1      -2.919  -1.876  -1.047  1.00  0.00    -0.280 N 
ATOM      7  H62 UNL     1      -2.159  -1.723  -1.710  1.00  0.00     0.191 HD
ATOM      8  H61 UNL     1      -3.461  -2.615  -1.494  1.00  0.00     0.191 HD
ENDBRANCH   5   6
ENDBRANCH   3   5
ENDBRANCH   1   3
BRANCH   2   9
HETATM    9  N1  UNL     1       2.342   0.041  -0.048  1.00  0.00    -0.124 N 
HETATM   10  N2  UNL     1       3.261   0.957   0.085  1.00  0.00    -0.195 N 
HETATM   11  N3  UNL     1       4.243   0.063  -0.123  1.00  0.00     0.014 NA
ATOM     12  H2  UNL     1       3.242   1.959   0.273  1.00  0.00     0.208 HD
HETATM   13  N4  UNL     1       3.284  -0.858  -0.255  1.00  0.00    -0.195 N 
ATOM     14  H4  UNL     1       3.282  -1.861  -0.442  1.00  0.00     0.208 HD
ENDBRANCH   2   9
TORSDOF 4
