REMARK  14 active torsions:
REMARK  status: ('A' for Active; 'I' for Inactive)
REMARK    1  A    between atoms: C3_3  and  C4_4 
REMARK    2  A    between atoms: C4_4  and  N1_5 
REMARK    3  A    between atoms: C5_6  and  O1_7 
REMARK    4  A    between atoms: C7_12  and  C8_13 
REMARK    5  A    between atoms: C13_21  and  C14_22 
REMARK    6  A    between atoms: C14_22  and  C15_23 
REMARK    7  A    between atoms: C18_26  and  O3_27 
REMARK    8  A    between atoms: C19_31  and  C20_32 
REMARK    9  A    between atoms: C20_32  and  C21_33 
REMARK   10  A    between atoms: C25_40  and  C26_41 
REMARK   11  A    between atoms: C26_41  and  C27_42 
REMARK   12  A    between atoms: C27_42  and  C28_43 
REMARK   13  A    between atoms: C31_49  and  C32_50 
REMARK   14  A    between atoms: C32_50  and  C33_51 
ROOT
HETATM    1  C1  UNL     1      -4.727   3.445  -4.073  1.00  0.00     0.097 C 
HETATM    2  C2  UNL     1      -3.979   3.918  -3.088  1.00  0.00    -0.186 C 
HETATM    3  C3  UNL     1      -3.298   4.309  -2.053  1.00  0.00     0.100 C 
ENDROOT
BRANCH   3   4
HETATM    4  C4  UNL     1      -3.544   3.614  -0.782  1.00  0.00     0.147 C 
BRANCH   4   5
HETATM    5  N1  UNL     1      -2.401   2.806  -0.357  1.00  0.00    -0.281 N 
HETATM    6  C5  UNL     1      -2.337   1.453  -0.793  1.00  0.00     0.226 C 
HETATM    7  N2  UNL     1      -2.242   0.228  -0.155  1.00  0.00    -0.318 N 
HETATM    8  C6  UNL     1      -3.117  -0.727   0.452  1.00  0.00     0.100 C 
ATOM      9  H2  UNL     1      -1.272  -0.082  -0.103  1.00  0.00     0.169 HD
HETATM   10  C7  UNL     1      -4.069  -0.347   1.466  1.00  0.00     0.017 C 
HETATM   11  C12 UNL     1      -2.425  -2.064   0.668  1.00  0.00     0.268 C 
HETATM   12  O2  UNL     1      -2.939  -2.742   1.644  1.00  0.00    -0.266 OA
HETATM   13  N3  UNL     1      -1.354  -2.577  -0.060  1.00  0.00    -0.344 N 
HETATM   14  C13 UNL     1      -1.262  -2.942  -1.482  1.00  0.00     0.159 C 
ATOM     15  H3  UNL     1      -0.499  -2.722   0.477  1.00  0.00     0.163 HD
HETATM   16  C18 UNL     1      -0.329  -2.098  -2.243  1.00  0.00     0.135 C 
HETATM   17  N4  UNL     1       1.045  -1.930  -2.145  1.00  0.00    -0.359 N 
HETATM   18  C19 UNL     1       1.895  -1.665  -0.988  1.00  0.00     0.176 C 
ATOM     19  H4  UNL     1       1.545  -2.004  -3.031  1.00  0.00     0.162 HD
HETATM   20  C24 UNL     1       2.842  -0.552  -1.362  1.00  0.00     0.244 C 
HETATM   21  O4  UNL     1       3.908  -0.980  -1.947  1.00  0.00    -0.271 OA
HETATM   22  N5  UNL     1       2.699   0.816  -1.161  1.00  0.00    -0.324 N 
HETATM   23  C25 UNL     1       2.695   1.660  -0.019  1.00  0.00     0.080 C 
ATOM     24  H5  UNL     1       2.567   1.331  -2.032  1.00  0.00     0.169 HD
HETATM   25  C30 UNL     1       1.652   1.454   1.005  1.00  0.00     0.264 C 
HETATM   26  O5  UNL     1       1.866   0.571   1.890  1.00  0.00    -0.266 OA
HETATM   27  N6  UNL     1       0.425   2.147   1.107  1.00  0.00    -0.342 N 
HETATM   28  C31 UNL     1       0.047   3.323   0.351  1.00  0.00     0.186 C 
ATOM     29  H6  UNL     1      -0.257   1.786   1.774  1.00  0.00     0.163 HD
HETATM   30  C34 UNL     1      -1.444   3.497   0.444  1.00  0.00     0.250 C 
HETATM   31  O7  UNL     1      -1.868   4.314   1.295  1.00  0.00    -0.271 OA
BRANCH   6  32
HETATM   32  O1  UNL     1      -2.377   1.445  -2.124  1.00  0.00    -0.332 OA
ATOM     33  H1  UNL     1      -2.334   0.542  -2.415  1.00  0.00     0.221 HD
ENDBRANCH   6  32
BRANCH  10  34
HETATM   34  C8  UNL     1      -3.959   0.228   2.767  1.00  0.00    -0.031 C 
HETATM   35  C9  UNL     1      -5.449   0.353   3.292  1.00  0.00     0.019 C 
HETATM   36  C10 UNL     1      -3.376  -0.687   3.860  1.00  0.00     0.019 C 
HETATM   37  C11 UNL     1      -3.421   1.575   3.041  1.00  0.00     0.019 C 
ENDBRANCH  10  34
BRANCH  14  38
HETATM   38  C14 UNL     1      -0.996  -4.428  -1.530  1.00  0.00     0.037 C 
BRANCH  38  39
HETATM   39  C15 UNL     1      -0.880  -5.074  -2.847  1.00  0.00    -0.020 C 
HETATM   40  C16 UNL     1       0.196  -4.648  -3.769  1.00  0.00     0.009 C 
HETATM   41  C17 UNL     1      -2.257  -5.011  -3.528  1.00  0.00     0.009 C 
ENDBRANCH  38  39
ENDBRANCH  14  38
BRANCH  16  42
HETATM   42  O3  UNL     1      -0.936  -1.392  -3.166  1.00  0.00    -0.348 OA
ATOM     43  H3  UNL     1      -0.333  -0.847  -3.658  1.00  0.00     0.219 HD
ENDBRANCH  16  42
BRANCH  18  44
HETATM   44  C20 UNL     1       2.706  -2.950  -0.835  1.00  0.00     0.038 C 
BRANCH  44  45
HETATM   45  C21 UNL     1       3.666  -2.981   0.282  1.00  0.00    -0.020 C 
HETATM   46  C22 UNL     1       2.949  -2.820   1.595  1.00  0.00     0.009 C 
HETATM   47  C23 UNL     1       4.320  -4.370   0.323  1.00  0.00     0.009 C 
ENDBRANCH  44  45
ENDBRANCH  18  44
BRANCH  23  48
HETATM   48  C26 UNL     1       4.047   1.947   0.591  1.00  0.00     0.063 C 
BRANCH  48  49
HETATM   49  C27 UNL     1       4.831   0.809   1.089  1.00  0.00     0.006 C 
BRANCH  49  50
HETATM   50  C28 UNL     1       6.144   1.380   1.664  1.00  0.00    -0.004 C 
HETATM   51  C29 UNL     1       5.884   2.337   2.781  1.00  0.00     0.005 C 
ENDBRANCH  49  50
ENDBRANCH  48  49
ENDBRANCH  23  48
BRANCH  28  52
HETATM   52  C32 UNL     1       0.680   4.582   0.873  1.00  0.00     0.134 C 
BRANCH  52  53
HETATM   53  C33 UNL     1       0.342   5.795   0.093  1.00  0.00     0.233 C 
HETATM   54  N7  UNL     1       1.197   6.110  -1.030  1.00  0.00    -0.062 NA
HETATM   55  O6  UNL     1      -0.599   6.574   0.299  1.00  0.00    -0.277 OA
ENDBRANCH  52  53
ENDBRANCH  28  52
ENDBRANCH   4   5
ENDBRANCH   3   4
TORSDOF 14
