REMARK  14 active torsions:
REMARK  status: ('A' for Active; 'I' for Inactive)
REMARK    1  A    between atoms: O1_2  and  C2_3 
REMARK    2  A    between atoms: C4_5  and  N1_6 
REMARK    3  A    between atoms: C7_9  and  C8_10 
REMARK    4  A    between atoms: C8_10  and  C9_11 
REMARK    5  A    between atoms: C9_11  and  N2_12 
REMARK    6  A    between atoms: C17_24  and  N5_25 
REMARK    7  A    between atoms: N5_25  and  C18_27 
REMARK    8  A    between atoms: C20_31  and  O3_32 
REMARK    9  A    between atoms: O3_32  and  C21_33 
REMARK   10  A    between atoms: C21_33  and  C22_34 
REMARK   11  A    between atoms: C25_37  and  N7_38 
REMARK   12  A    between atoms: N7_38  and  C26_40 
REMARK   13  A    between atoms: C26_40  and  C28_42 
REMARK   14  A    between atoms: C28_42  and  O4_43 
ROOT
HETATM    1  C2  UNL     1      -0.442   1.281  -0.078  1.00  0.00     0.115 A 
HETATM    2  C3  UNL     1       0.701   0.578  -0.372  1.00  0.00     0.071 A 
HETATM    3  C4  UNL     1       1.431  -0.011   0.633  1.00  0.00     0.048 A 
HETATM    4  C16 UNL     1       1.006   0.109   1.943  1.00  0.00     0.119 A 
HETATM    5  N4  UNL     1      -0.117   0.808   2.174  1.00  0.00    -0.347 N 
ATOM      6  H4  UNL     1      -0.426   0.895   3.142  1.00  0.00     0.167 HD
HETATM    7  C17 UNL     1      -0.864   1.401   1.232  1.00  0.00     0.154 A 
ENDROOT
BRANCH   7   8
HETATM    8  N5  UNL     1      -2.022   2.143   1.490  1.00  0.00    -0.174 N 
ATOM      9  H5  UNL     1      -1.883   3.049   1.938  1.00  0.00     0.186 HD
BRANCH   8  10
HETATM   10  C18 UNL     1      -3.234   1.823   1.232  1.00  0.00     0.685 A 
HETATM   11  N6  UNL     1      -4.187   2.710   1.577  1.00  0.00    -0.199 N 
HETATM   12  C19 UNL     1      -5.494   2.484   1.352  1.00  0.00     0.146 A 
ATOM     13  H6  UNL     1      -3.908   3.583   2.024  1.00  0.00     0.183 HD
HETATM   14  C20 UNL     1      -5.850   1.278   0.736  1.00  0.00     0.129 A 
HETATM   15  C25 UNL     1      -4.868   0.361   0.379  1.00  0.00     0.152 A 
HETATM   16  N8  UNL     1      -3.584   0.657   0.636  1.00  0.00    -0.174 N 
ATOM     17  H8  UNL     1      -2.857  -0.010   0.377  1.00  0.00     0.186 HD
BRANCH  14  18
HETATM   18  O3  UNL     1      -7.180   0.982   0.474  1.00  0.00    -0.346 OA
BRANCH  18  19
HETATM   19  C21 UNL     1      -8.149   1.931   0.848  1.00  0.00     0.179 C 
BRANCH  19  20
HETATM   20  C22 UNL     1      -9.553   1.533   0.527  1.00  0.00     0.002 C 
HETATM   21  C23 UNL     1      -9.962   0.251   1.220  1.00  0.00     0.011 C 
HETATM   22  C24 UNL     1      -9.766   1.494  -0.948  1.00  0.00     0.011 C 
ENDBRANCH  19  20
ENDBRANCH  18  19
ENDBRANCH  14  18
BRANCH  15  23
HETATM   23  N7  UNL     1      -5.228  -0.714  -0.174  1.00  0.00    -0.367 N 
ATOM     24  H7  UNL     1      -6.234  -0.815  -0.312  1.00  0.00     0.161 HD
BRANCH  23  25
HETATM   25  C26 UNL     1      -4.441  -1.807  -0.634  1.00  0.00     0.102 C 
HETATM   26  C27 UNL     1      -4.324  -2.923   0.384  1.00  0.00     0.034 C 
BRANCH  25  27
HETATM   27  C28 UNL     1      -5.127  -2.363  -1.889  1.00  0.00     0.188 C 
BRANCH  27  28
HETATM   28  O4  UNL     1      -6.409  -2.779  -1.537  1.00  0.00    -0.399 OA
ATOM     29  H4  UNL     1      -6.834  -3.123  -2.314  1.00  0.00     0.209 HD
ENDBRANCH  27  28
ENDBRANCH  25  27
ENDBRANCH  23  25
ENDBRANCH  15  23
ENDBRANCH   8  10
ENDBRANCH   7   8
BRANCH   1  30
HETATM   30  O1  UNL     1      -1.139   1.853  -1.136  1.00  0.00    -0.352 OA
HETATM   31  C1  UNL     1      -0.707   1.727  -2.476  1.00  0.00     0.210 C 
ENDBRANCH   1  30
BRANCH   3  32
HETATM   32  N1  UNL     1       2.615  -0.710   0.280  1.00  0.00    -0.380 N 
HETATM   33  C5  UNL     1       2.970  -0.817  -1.099  1.00  0.00     0.123 C 
HETATM   34  C6  UNL     1       4.269  -1.492  -1.394  1.00  0.00     0.024 C 
HETATM   35  C7  UNL     1       5.305  -1.221  -0.304  1.00  0.00    -0.010 C 
HETATM   36  C14 UNL     1       4.749  -1.785   0.972  1.00  0.00     0.024 C 
HETATM   37  C15 UNL     1       3.405  -1.267   1.336  1.00  0.00     0.123 C 
BRANCH  35  38
HETATM   38  C8  UNL     1       5.536   0.244  -0.272  1.00  0.00     0.024 C 
BRANCH  38  39
HETATM   39  C9  UNL     1       6.548   0.684   0.744  1.00  0.00     0.128 C 
BRANCH  39  40
HETATM   40  N2  UNL     1       7.869   0.137   0.512  1.00  0.00    -0.333 N 
HETATM   41  C10 UNL     1       8.521  -1.048   1.012  1.00  0.00     0.147 C 
HETATM   42  C11 UNL     1       9.556  -1.393  -0.045  1.00  0.00     0.147 C 
HETATM   43  N3  UNL     1       9.908  -0.056  -0.546  1.00  0.00    -0.337 N 
HETATM   44  C12 UNL     1      11.156   0.337  -1.155  1.00  0.00     0.154 C 
HETATM   45  C13 UNL     1       8.820   0.820  -0.342  1.00  0.00     0.320 C 
HETATM   46  O2  UNL     1       8.708   1.978  -0.818  1.00  0.00    -0.247 OA
ENDBRANCH  39  40
ENDBRANCH  38  39
ENDBRANCH  35  38
ENDBRANCH   3  32
TORSDOF 14
