REMARK  2 active torsions:
REMARK  status: ('A' for Active; 'I' for Inactive)
REMARK    1  A    between atoms: C4_5  and  N1_6 
REMARK    2  A    between atoms: C8_10  and  O2_11 
ROOT
HETATM    1  N1  UNL     1      -0.726   0.429  -0.014  1.00  0.00     0.120 N 
HETATM    2  C5  UNL     1      -1.050  -0.628  -0.939  1.00  0.00     0.276 C 
HETATM    3  C6  UNL     1      -2.391  -0.326  -1.551  1.00  0.00     0.033 C 
HETATM    4  C7  UNL     1      -3.451  -0.112  -0.508  1.00  0.00     0.035 C 
HETATM    5  C8  UNL     1      -2.924  -0.206   0.897  1.00  0.00     0.146 C 
HETATM    6  C9  UNL     1      -1.623   0.498   1.104  1.00  0.00     0.307 C 
ENDROOT
BRANCH   1   7
HETATM    7  C4  UNL     1       0.631   0.239   0.492  1.00  0.00     0.369 C 
HETATM    8  O1  UNL     1       1.472   0.258  -0.568  1.00  0.00    -0.335 OA
HETATM    9  C2  UNL     1       2.780   0.233  -0.204  1.00  0.00     0.104 C 
HETATM   10  C1  UNL     1       3.655   0.834  -1.272  1.00  0.00     0.058 C 
HETATM   11  C3  UNL     1       3.321  -1.102   0.175  1.00  0.00     0.058 C 
HETATM   12  S1  UNL     1       2.775   1.397   1.223  1.00  0.00    -0.128 SA
HETATM   13  C10 UNL     1       0.940   1.451   1.384  1.00  0.00     0.141 C 
ENDBRANCH   1   7
BRANCH   5  14
HETATM   14  O2  UNL     1      -2.783  -1.540   1.260  1.00  0.00    -0.394 OA
ATOM     15  H2  UNL     1      -2.450  -1.599   2.148  1.00  0.00     0.210 HD
ENDBRANCH   5  14
TORSDOF 2
