REMARK  14 active torsions:
REMARK  status: ('A' for Active; 'I' for Inactive)
REMARK    1  A    between atoms: N1_1  and  N2_4 
REMARK    2  A    between atoms: N2_4  and  N3_5 
REMARK    3  A    between atoms: N3_5  and  C1_7 
REMARK    4  A    between atoms: C2_14  and  C3_15 
REMARK    5  A    between atoms: C3_15  and  C4_16 
REMARK    6  A    between atoms: C4_16  and  N7_17 
REMARK    7  A    between atoms: C8_26  and  C9_27 
REMARK    8  A    between atoms: N11_29  and  N12_31 
REMARK       I    between atoms: N12_31  and  C10_33 
REMARK    9  A    between atoms: C11_38  and  C12_39 
REMARK   10  A    between atoms: C12_39  and  O2_40 
REMARK   11  A    between atoms: C12_39  and  C13_42 
REMARK   12  A    between atoms: C13_42  and  N15_43 
REMARK   13  A    between atoms: C16_46  and  C17_47 
REMARK   14  A    between atoms: C17_47  and  O3_48 
ROOT
HETATM    1  N7  UNL     1       1.898   0.034   1.133  1.00  0.00    -0.225 N 
ATOM      2  H7  UNL     1       1.529  -0.139   0.198  1.00  0.00     0.177 HD
HETATM    3  C5  UNL     1       1.290   0.898   1.824  1.00  0.00     0.688 A 
HETATM    4  N8  UNL     1       1.648   1.247   3.080  1.00  0.00    -0.187 N 
ATOM      5  H8  UNL     1       2.459   0.792   3.499  1.00  0.00     0.185 HD
HETATM    6  C6  UNL     1       0.983   2.168   3.804  1.00  0.00     0.199 A 
HETATM    7  N9  UNL     1      -0.079   2.763   3.252  1.00  0.00    -0.335 N 
ATOM      8  H9  UNL     1      -0.605   3.465   3.773  1.00  0.00     0.168 HD
HETATM    9  C7  UNL     1      -0.449   2.426   1.998  1.00  0.00     0.161 A 
HETATM   10  C8  UNL     1      -1.520   2.920   1.240  1.00  0.00     0.122 A 
HETATM   11  N14 UNL     1      -1.443   2.263   0.086  1.00  0.00    -0.337 N 
ATOM     12  H14 UNL     1      -2.084   2.389  -0.697  1.00  0.00     0.167 HD
HETATM   13  C11 UNL     1      -0.385   1.394   0.094  1.00  0.00     0.138 A 
HETATM   14  N16 UNL     1       0.200   1.516   1.271  1.00  0.00    -0.116 N 
ENDROOT
BRANCH   1  15
HETATM   15  C4  UNL     1       3.030  -0.719   1.507  1.00  0.00     0.144 C 
BRANCH  15  16
HETATM   16  C3  UNL     1       2.752  -2.236   1.443  1.00  0.00     0.083 C 
BRANCH  16  17
HETATM   17  C2  UNL     1       3.950  -3.001   1.833  1.00  0.00     0.076 A 
HETATM   18  C1  UNL     1       5.103  -3.254   1.125  1.00  0.00     0.172 A 
HETATM   19  N4  UNL     1       5.915  -3.998   1.883  1.00  0.00    -0.268 N 
HETATM   20  N5  UNL     1       5.300  -4.208   3.024  1.00  0.00    -0.241 N 
ATOM     21  H4  UNL     1       6.840  -4.339   1.623  1.00  0.00     0.190 HD
HETATM   22  N6  UNL     1       4.128  -3.622   3.013  1.00  0.00    -0.287 N 
ATOM     23  H5  UNL     1       5.678  -4.747   3.803  1.00  0.00     0.208 HD
ATOM     24  H6  UNL     1       3.455  -3.635   3.780  1.00  0.00     0.188 HD
BRANCH  18  25
HETATM   25  N3  UNL     1       5.379  -2.797  -0.192  1.00  0.00    -0.197 N 
ATOM     26  H3  UNL     1       4.679  -2.835  -0.933  1.00  0.00     0.205 HD
BRANCH  25  27
HETATM   27  N2  UNL     1       6.523  -2.348  -0.390  1.00  0.00    -0.242 NA
BRANCH  27  28
HETATM   28  N1  UNL     1       7.478  -1.621  -0.598  1.00  0.00    -0.260 N 
ATOM     29  H12 UNL     1       6.910  -0.774  -0.629  1.00  0.00     0.193 HD
ATOM     30  H11 UNL     1       8.415  -1.253  -0.760  1.00  0.00     0.193 HD
ENDBRANCH  27  28
ENDBRANCH  25  27
ENDBRANCH  18  25
ENDBRANCH  16  17
ENDBRANCH  15  16
ENDBRANCH   1  15
BRANCH  13  31
HETATM   31  C12 UNL     1      -0.089   0.530  -1.093  1.00  0.00     0.205 C 
BRANCH  31  32
HETATM   32  O2  UNL     1      -0.283   1.370  -2.218  1.00  0.00    -0.386 OA
ATOM     33  H2  UNL     1      -0.095   0.822  -2.971  1.00  0.00     0.210 HD
ENDBRANCH  31  32
BRANCH  31  34
HETATM   34  C13 UNL     1      -1.117  -0.567  -1.168  1.00  0.00     0.167 C 
BRANCH  34  35
HETATM   35  N15 UNL     1      -1.046  -1.389  -2.343  1.00  0.00    -0.325 N 
HETATM   36  C14 UNL     1      -0.187  -2.576  -2.415  1.00  0.00     0.131 C 
HETATM   37  C15 UNL     1      -1.079  -3.748  -2.749  1.00  0.00     0.055 C 
HETATM   38  C16 UNL     1      -2.127  -3.453  -3.771  1.00  0.00     0.158 C 
HETATM   39  O4  UNL     1      -1.989  -2.183  -4.383  1.00  0.00    -0.296 OA
HETATM   40  C18 UNL     1      -1.798  -1.096  -3.505  1.00  0.00     0.363 C 
HETATM   41  O5  UNL     1      -2.252   0.031  -3.728  1.00  0.00    -0.238 OA
BRANCH  38  42
HETATM   42  C17 UNL     1      -2.173  -4.563  -4.801  1.00  0.00     0.196 C 
BRANCH  42  43
HETATM   43  O3  UNL     1      -3.247  -4.400  -5.672  1.00  0.00    -0.398 OA
ATOM     44  H3  UNL     1      -3.276  -5.096  -6.318  1.00  0.00     0.209 HD
ENDBRANCH  42  43
ENDBRANCH  38  42
ENDBRANCH  34  35
ENDBRANCH  31  34
ENDBRANCH  13  31
BRANCH  10  45
HETATM   45  C9  UNL     1      -2.479   3.929   1.659  1.00  0.00     0.161 C 
HETATM   46  N10 UNL     1      -3.502   4.324   0.773  1.00  0.00    -0.079 NA
HETATM   47  N11 UNL     1      -2.376   4.444   2.827  1.00  0.00    -0.282 N 
ATOM     48  H11 UNL     1      -1.620   4.131   3.436  1.00  0.00     0.188 HD
BRANCH  47  49
HETATM   49  N12 UNL     1      -3.259   5.419   3.301  1.00  0.00    -0.253 N 
HETATM   50  C10 UNL     1      -3.166   6.733   2.809  1.00  0.00     0.347 C 
HETATM   51  N13 UNL     1      -4.052   7.726   3.279  1.00  0.00    -0.038 NA
HETATM   52  O1  UNL     1      -2.305   7.029   1.959  1.00  0.00    -0.249 OA
ATOM     53  H12 UNL     1      -3.964   5.179   3.998  1.00  0.00     0.191 HD
ENDBRANCH  47  49
ENDBRANCH  10  45
TORSDOF 14
