REMARK  2 active torsions:
REMARK  status: ('A' for Active; 'I' for Inactive)
REMARK    1  A    between atoms: C4_4  and  C5_5 
REMARK    2  A    between atoms: N3_15  and  C11_16 
ROOT
HETATM    1  C5  UNL     1       0.947   0.903   0.015  1.00  0.00     0.120 A 
HETATM    2  N1  UNL     1       0.836   2.285   0.118  1.00  0.00    -0.339 N 
ATOM      3  H1  UNL     1       1.625   2.930   0.171  1.00  0.00     0.167 HD
HETATM    4  C6  UNL     1      -0.439   2.647   0.138  1.00  0.00     0.078 A 
HETATM    5  C7  UNL     1      -1.053   3.894   0.216  1.00  0.00     0.035 A 
HETATM    6  C8  UNL     1      -2.426   3.958   0.201  1.00  0.00     0.019 A 
HETATM    7  C9  UNL     1      -3.117   2.755   0.108  1.00  0.00     0.090 A 
HETATM    8  N2  UNL     1      -2.477   1.580   0.035  1.00  0.00    -0.350 N 
ATOM      9  H2  UNL     1      -3.031   0.727  -0.033  1.00  0.00     0.166 HD
HETATM   10  C10 UNL     1      -1.151   1.477   0.047  1.00  0.00     0.136 A 
HETATM   11  N3  UNL     1      -0.279   0.397  -0.026  1.00  0.00    -0.312 N 
ENDROOT
BRANCH   1  12
HETATM   12  C4  UNL     1       2.240   0.235   0.008  1.00  0.00     0.008 A 
HETATM   13  C3  UNL     1       2.486  -0.989  -0.492  1.00  0.00     0.015 A 
HETATM   14  C2  UNL     1       3.725  -1.604  -0.407  1.00  0.00     0.001 A 
HETATM   15  C1  UNL     1       4.744  -0.927   0.215  1.00  0.00     0.000 A 
HETATM   16  C17 UNL     1       4.524   0.331   0.735  1.00  0.00     0.001 A 
HETATM   17  C16 UNL     1       3.300   0.913   0.640  1.00  0.00     0.015 A 
ENDBRANCH   1  12
BRANCH  11  18
HETATM   18  C11 UNL     1      -0.740  -0.960  -0.069  1.00  0.00     0.093 C 
HETATM   19  C12 UNL     1      -1.818  -1.288   0.969  1.00  0.00     0.026 C 
HETATM   20  C13 UNL     1      -2.231  -2.679   0.494  1.00  0.00     0.002 C 
HETATM   21  C14 UNL     1      -2.097  -2.648  -1.010  1.00  0.00     0.002 C 
HETATM   22  C15 UNL     1      -1.316  -1.405  -1.377  1.00  0.00     0.026 C 
ENDBRANCH  11  18
TORSDOF 2
