REMARK  5 active torsions:
REMARK  status: ('A' for Active; 'I' for Inactive)
REMARK    1  A    between atoms: O1_1  and  C1_3 
REMARK    2  A    between atoms: C1_3  and  C2_4 
REMARK    3  A    between atoms: C1_3  and  C11_15 
REMARK    4  A    between atoms: C2_4  and  C3_5 
REMARK    5  A    between atoms: C2_4  and  N1_10 
ROOT
HETATM    1  C2  UNL     1      -0.058   0.418  -0.420  1.00  0.00     0.300 C 
ENDROOT
BRANCH   1   2
HETATM    2  C1  UNL     1      -0.067   1.855  -0.047  1.00  0.00     0.264 C 
BRANCH   2   3
HETATM    3  O1  UNL     1       0.116   2.017   1.327  1.00  0.00    -0.384 OA
ATOM      4  H1  UNL     1       0.110   2.937   1.566  1.00  0.00     0.210 HD
ENDBRANCH   2   3
BRANCH   2   5
HETATM    5  C11 UNL     1       0.932   2.705  -0.773  1.00  0.00     0.415 C 
HETATM    6  F1  UNL     1       0.762   4.037  -0.442  1.00  0.00    -0.168 F 
HETATM    7  F2  UNL     1       2.218   2.369  -0.395  1.00  0.00    -0.168 F 
HETATM    8  F3  UNL     1       0.813   2.628  -2.141  1.00  0.00    -0.168 F 
ENDBRANCH   2   5
ENDBRANCH   1   2
BRANCH   1   9
HETATM    9  C3  UNL     1       1.183  -0.292  -0.005  1.00  0.00     0.018 A 
HETATM   10  C4  UNL     1       2.198  -0.729  -0.823  1.00  0.00     0.017 A 
HETATM   11  C5  UNL     1       3.224  -1.345  -0.241  1.00  0.00     0.008 A 
HETATM   12  C6  UNL     1       3.195  -1.499   1.118  1.00  0.00     0.050 A 
HETATM   13  S1  UNL     1       1.714  -0.767   1.545  1.00  0.00    -0.104 SA
ENDBRANCH   1   9
BRANCH   1  14
HETATM   14  N1  UNL     1      -1.158  -0.230   0.310  1.00  0.00     0.107 N 
HETATM   15  C7  UNL     1      -1.170  -1.670   0.040  1.00  0.00     0.301 C 
HETATM   16  C8  UNL     1      -2.581  -2.017   0.400  1.00  0.00     0.001 C 
HETATM   17  C9  UNL     1      -3.325  -0.929   0.236  1.00  0.00     0.001 C 
HETATM   18  C10 UNL     1      -2.440   0.171  -0.235  1.00  0.00     0.301 C 
ENDBRANCH   1  14
TORSDOF 5
