REMARK  11 active torsions:
REMARK  status: ('A' for Active; 'I' for Inactive)
REMARK    1  A    between atoms: O1_2  and  C2_3 
REMARK    2  A    between atoms: C2_3  and  C3_4 
REMARK    3  A    between atoms: C3_4  and  N1_5 
REMARK    4  A    between atoms: N1_5  and  C4_8 
REMARK    5  A    between atoms: C4_8  and  C5_9 
REMARK    6  A    between atoms: C5_9  and  O2_10 
REMARK    7  A    between atoms: C5_9  and  C6_12 
REMARK    8  A    between atoms: C6_12  and  O3_13 
REMARK    9  A    between atoms: O3_13  and  C7_14 
REMARK   10  A    between atoms: C10_17  and  C11_18 
REMARK   11  A    between atoms: C11_18  and  C12_19 
ROOT
HETATM    1  C7  UNL     1      -0.837   0.517   0.405  1.00  0.00     0.110 A 
HETATM    2  C8  UNL     1      -1.236   0.345  -0.892  1.00  0.00     0.045 A 
HETATM    3  C9  UNL     1      -2.418  -0.280  -1.090  1.00  0.00     0.018 A 
HETATM    4  C10 UNL     1      -3.113  -0.687   0.007  1.00  0.00    -0.011 A 
HETATM    5  S1  UNL     1      -2.095  -0.185   1.302  1.00  0.00    -0.070 SA
ENDROOT
BRANCH   1   6
HETATM    6  O3  UNL     1       0.339   1.130   0.888  1.00  0.00    -0.341 OA
BRANCH   6   7
HETATM    7  C6  UNL     1       1.565   0.415   1.008  1.00  0.00     0.209 C 
BRANCH   7   8
HETATM    8  C5  UNL     1       2.016  -0.100  -0.324  1.00  0.00     0.168 C 
BRANCH   8   9
HETATM    9  C4  UNL     1       3.277  -0.914  -0.205  1.00  0.00     0.266 C 
BRANCH   9  10
HETATM   10  N1  UNL     1       4.348  -0.082   0.230  1.00  0.00    -0.071 N 
ATOM     11  H12 UNL     1       4.112   0.392   1.102  1.00  0.00     0.277 HD
ATOM     12  H11 UNL     1       4.449   0.731  -0.378  1.00  0.00     0.277 HD
BRANCH  10  13
HETATM   13  C3  UNL     1       5.606  -0.802   0.352  1.00  0.00     0.258 C 
BRANCH  13  14
HETATM   14  C2  UNL     1       6.642   0.198   0.816  1.00  0.00     0.194 C 
BRANCH  14  15
HETATM   15  O1  UNL     1       6.740   1.206  -0.113  1.00  0.00    -0.394 OA
HETATM   16  C1  UNL     1       7.114   0.808  -1.375  1.00  0.00     0.201 C 
ENDBRANCH  14  15
ENDBRANCH  13  14
ENDBRANCH  10  13
ENDBRANCH   9  10
ENDBRANCH   8   9
BRANCH   8  17
HETATM   17  O2  UNL     1       2.247   0.915  -1.243  1.00  0.00    -0.392 OA
ATOM     18  H2  UNL     1       1.451   1.429  -1.318  1.00  0.00     0.210 HD
ENDBRANCH   8  17
ENDBRANCH   7   8
ENDBRANCH   6   7
ENDBRANCH   1   6
BRANCH   4  19
HETATM   19  C11 UNL     1      -4.443  -1.401   0.114  1.00  0.00     0.088 C 
BRANCH  19  20
HETATM   20  C12 UNL     1      -5.551  -0.451   0.303  1.00  0.00    -0.010 A 
HETATM   21  C13 UNL     1      -5.991  -0.171   1.607  1.00  0.00     0.012 A 
HETATM   22  C14 UNL     1      -6.988   0.747   1.828  1.00  0.00     0.018 A 
HETATM   23  C15 UNL     1      -7.578   1.412   0.778  1.00  0.00     0.089 A 
HETATM   24  N2  UNL     1      -7.142   1.127  -0.454  1.00  0.00    -0.352 N 
HETATM   25  C16 UNL     1      -6.155   0.222  -0.721  1.00  0.00     0.105 A 
ATOM     26  H2  UNL     1      -7.572   1.614  -1.240  1.00  0.00     0.166 HD
HETATM   27  N3  UNL     1      -5.859  -0.001  -1.962  1.00  0.00    -0.385 N 
ATOM     28  H32 UNL     1      -5.122  -0.677  -2.161  1.00  0.00     0.157 HD
ATOM     29  H31 UNL     1      -6.310   0.501  -2.727  1.00  0.00     0.157 HD
ENDBRANCH  19  20
ENDBRANCH   4  19
TORSDOF 11
