REMARK  1 active torsions:
REMARK  status: ('A' for Active; 'I' for Inactive)
REMARK    1  A    between atoms: C7_16  and  N5_17 
ROOT
HETATM    1  N1  UNL     1       2.648  -1.769   0.736  1.00  0.00    -0.080 NA
HETATM    2  C1  UNL     1       1.513  -0.965   0.473  1.00  0.00     0.151 A 
HETATM    3  N2  UNL     1       0.272  -1.473   0.418  1.00  0.00    -0.327 N 
ATOM      4  H2  UNL     1       0.138  -2.473   0.570  1.00  0.00     0.168 HD
HETATM    5  C2  UNL     1      -0.816  -0.689   0.164  1.00  0.00     0.137 A 
HETATM    6  N3  UNL     1      -2.050  -1.228   0.115  1.00  0.00    -0.303 N 
ATOM      7  H3  UNL     1      -2.146  -2.231   0.273  1.00  0.00     0.171 HD
HETATM    8  C3  UNL     1      -3.139  -0.527  -0.126  1.00  0.00     0.315 A 
HETATM    9  O1  UNL     1      -4.255  -1.071  -0.161  1.00  0.00    -0.262 OA
HETATM   10  C4  UNL     1      -3.019   0.843  -0.341  1.00  0.00     0.314 A 
HETATM   11  O2  UNL     1      -4.060   1.476  -0.565  1.00  0.00    -0.262 OA
HETATM   12  N4  UNL     1      -1.787   1.394  -0.295  1.00  0.00    -0.316 N 
ATOM     13  H4  UNL     1      -1.686   2.397  -0.452  1.00  0.00     0.169 HD
HETATM   14  C5  UNL     1      -0.702   0.665  -0.050  1.00  0.00     0.082 A 
HETATM   15  C6  UNL     1       0.568   1.231  -0.001  1.00  0.00     0.073 A 
HETATM   16  C7  UNL     1       1.643   0.409   0.258  1.00  0.00     0.146 A 
ENDROOT
BRANCH  16  17
HETATM   17  N5  UNL     1       2.962   0.960   0.315  1.00  0.00    -0.112 N 
HETATM   18  O3  UNL     1       3.262   1.996  -0.328  1.00  0.00    -0.532 OA
HETATM   19  O4  UNL     1       3.966   0.397   1.064  1.00  0.00    -0.532 OA
ENDBRANCH  16  17
TORSDOF 1
