REMARK  9 active torsions:
REMARK  status: ('A' for Active; 'I' for Inactive)
REMARK    1  A    between atoms: C2_2  and  C4_4 
REMARK    2  A    between atoms: C2_2  and  C25_33 
REMARK    3  A    between atoms: C4_4  and  C5_5 
REMARK    4  A    between atoms: C5_5  and  C6_6 
REMARK    5  A    between atoms: C6_6  and  N1_7 
REMARK    6  A    between atoms: C6_6  and  C18_22 
REMARK       I    between atoms: N1_7  and  C7_9 
REMARK    7  A    between atoms: C7_9  and  O2_11 
REMARK    8  A    between atoms: O2_11  and  C8_12 
REMARK       I    between atoms: C18_22  and  N2_24 
REMARK    9  A    between atoms: C21_27  and  C22_28 
ROOT
HETATM    1  C6  UNL     1      -0.849  -0.755  -0.239  1.00  0.00     0.082 C 
ENDROOT
BRANCH   1   2
HETATM    2  C5  UNL     1      -1.339  -1.700   0.834  1.00  0.00     0.064 C 
BRANCH   2   3
HETATM    3  C4  UNL     1      -2.338  -2.669   0.218  1.00  0.00     0.026 C 
BRANCH   3   4
HETATM    4  C2  UNL     1      -3.033  -3.614   1.100  1.00  0.00     0.041 C 
HETATM    5  C1  UNL     1      -3.889  -2.992   2.144  1.00  0.00     0.026 C 
HETATM    6  C3  UNL     1      -2.088  -4.608   1.808  1.00  0.00     0.026 C 
BRANCH   4   7
HETATM    7  C25 UNL     1      -3.942  -4.498   0.282  1.00  0.00     0.181 C 
HETATM    8  O5  UNL     1      -4.668  -5.352   0.828  1.00  0.00    -0.647 OA
HETATM    9  O6  UNL     1      -4.019  -4.390  -1.094  1.00  0.00    -0.647 OA
ENDBRANCH   4   7
ENDBRANCH   3   4
ENDBRANCH   2   3
ENDBRANCH   1   2
BRANCH   1  10
HETATM   10  N1  UNL     1       0.272  -0.002   0.135  1.00  0.00    -0.301 N 
HETATM   11  C7  UNL     1       1.473  -0.083  -0.596  1.00  0.00     0.365 C 
HETATM   12  O1  UNL     1       1.615  -0.766  -1.580  1.00  0.00    -0.238 OA
ATOM     13  H1  UNL     1       0.217   0.613   0.947  1.00  0.00     0.171 HD
BRANCH  11  14
HETATM   14  O2  UNL     1       2.583   0.653  -0.154  1.00  0.00    -0.298 OA
BRANCH  14  15
HETATM   15  C8  UNL     1       3.770   0.572  -0.858  1.00  0.00     0.142 C 
HETATM   16  C9  UNL     1       4.615  -0.595  -0.248  1.00  0.00     0.016 C 
HETATM   17  C10 UNL     1       5.821  -0.740  -1.172  1.00  0.00     0.012 C 
HETATM   18  C14 UNL     1       5.070  -0.313   1.118  1.00  0.00     0.012 C 
HETATM   19  C11 UNL     1       6.604   0.547  -1.198  1.00  0.00    -0.013 C 
HETATM   20  C12 UNL     1       7.050   0.887   0.188  1.00  0.00     0.009 C 
HETATM   21  C17 UNL     1       5.748   1.705  -1.684  1.00  0.00     0.012 C 
HETATM   22  C13 UNL     1       5.889   0.962   1.138  1.00  0.00    -0.013 C 
HETATM   23  C15 UNL     1       4.982   2.076   0.656  1.00  0.00     0.012 C 
HETATM   24  C16 UNL     1       4.564   1.812  -0.769  1.00  0.00     0.016 C 
ENDBRANCH  14  15
ENDBRANCH  11  14
ENDBRANCH   1  10
BRANCH   1  25
HETATM   25  C18 UNL     1      -1.901  -0.095  -1.043  1.00  0.00     0.266 C 
HETATM   26  O3  UNL     1      -1.803  -0.148  -2.329  1.00  0.00    -0.266 OA
HETATM   27  N2  UNL     1      -3.014   0.597  -0.499  1.00  0.00    -0.347 N 
HETATM   28  C19 UNL     1      -4.210   0.740  -1.321  1.00  0.00     0.127 C 
HETATM   29  C24 UNL     1      -3.048   1.353   0.725  1.00  0.00     0.127 C 
HETATM   30  C20 UNL     1      -4.261   2.178  -1.766  1.00  0.00     0.034 C 
HETATM   31  C21 UNL     1      -4.155   3.120  -0.584  1.00  0.00     0.078 C 
HETATM   32  C23 UNL     1      -4.209   2.349   0.687  1.00  0.00     0.034 C 
BRANCH  31  33
HETATM   33  C22 UNL     1      -5.232   4.154  -0.661  1.00  0.00     0.235 C 
HETATM   34  N3  UNL     1      -5.333   5.189   0.275  1.00  0.00    -0.062 NA
HETATM   35  O4  UNL     1      -6.067   4.079  -1.596  1.00  0.00    -0.277 OA
ENDBRANCH  31  33
ENDBRANCH   1  25
TORSDOF 9
