REMARK  9 active torsions:
REMARK  status: ('A' for Active; 'I' for Inactive)
REMARK    1  A    between atoms: C2_2  and  C4_4 
REMARK    2  A    between atoms: C4_4  and  C5_5 
REMARK    3  A    between atoms: C7_10  and  C8_11 
REMARK    4  A    between atoms: C14_19  and  C15_20 
REMARK    5  A    between atoms: C15_20  and  C16_21 
REMARK    6  A    between atoms: C16_21  and  C17_22 
REMARK    7  A    between atoms: C17_22  and  N3_23 
REMARK    8  A    between atoms: N5_31  and  C19_32 
REMARK    9  A    between atoms: C19_32  and  C23_36 
ROOT
HETATM    1  C5  UNL     1       1.481  -0.488   0.735  1.00  0.00     0.200 C 
HETATM    2  C6  UNL     1       0.539  -1.662   0.892  1.00  0.00     0.243 C 
HETATM    3  O1  UNL     1       1.067  -2.751   1.361  1.00  0.00    -0.271 OA
HETATM    4  N1  UNL     1      -0.813  -1.744   0.608  1.00  0.00    -0.345 N 
ATOM      5  H1  UNL     1      -1.402  -1.750   1.441  1.00  0.00     0.163 HD
HETATM    6  C7  UNL     1      -1.549  -1.821  -0.604  1.00  0.00     0.184 C 
HETATM    7  C12 UNL     1      -2.691  -0.877  -0.573  1.00  0.00     0.243 C 
HETATM    8  O2  UNL     1      -3.894  -1.331  -0.690  1.00  0.00    -0.271 OA
HETATM    9  N2  UNL     1      -2.636   0.517  -0.426  1.00  0.00    -0.341 N 
HETATM   10  C13 UNL     1      -3.475   1.363  -1.280  1.00  0.00     0.153 C 
HETATM   11  C14 UNL     1      -1.809   1.241   0.528  1.00  0.00     0.180 C 
HETATM   12  C18 UNL     1      -0.642   1.907  -0.092  1.00  0.00     0.259 C 
HETATM   13  O3  UNL     1      -0.920   3.108  -0.501  1.00  0.00    -0.269 OA
HETATM   14  N4  UNL     1       0.650   1.486  -0.303  1.00  0.00    -0.265 N 
ATOM     15  H4  UNL     1       1.322   2.252  -0.350  1.00  0.00     0.190 HD
HETATM   16  N5  UNL     1       1.229   0.235  -0.465  1.00  0.00    -0.276 N 
ENDROOT
BRANCH  11  17
HETATM   17  C15 UNL     1      -2.768   2.245   1.190  1.00  0.00     0.036 C 
BRANCH  17  18
HETATM   18  C16 UNL     1      -2.057   3.071   2.235  1.00  0.00     0.030 C 
BRANCH  18  19
HETATM   19  C17 UNL     1      -3.058   4.034   2.853  1.00  0.00     0.230 C 
BRANCH  19  20
HETATM   20  N3  UNL     1      -3.565   4.873   1.786  1.00  0.00    -0.079 N 
ATOM     21  H33 UNL     1      -2.826   5.346   1.265  1.00  0.00     0.274 HD
ATOM     22  H32 UNL     1      -3.953   4.339   1.009  1.00  0.00     0.274 HD
ATOM     23  H31 UNL     1      -4.237   5.519   2.201  1.00  0.00     0.274 HD
ENDBRANCH  19  20
ENDBRANCH  18  19
ENDBRANCH  17  18
ENDBRANCH  11  17
BRANCH   6  24
HETATM   24  C8  UNL     1      -2.135  -3.243  -0.694  1.00  0.00    -0.022 C 
HETATM   25  C9  UNL     1      -0.978  -4.218  -0.692  1.00  0.00     0.017 C 
HETATM   26  C10 UNL     1      -3.041  -3.530   0.460  1.00  0.00     0.017 C 
HETATM   27  C11 UNL     1      -2.863  -3.429  -2.009  1.00  0.00     0.017 C 
ENDBRANCH   6  24
BRANCH  16  28
HETATM   28  C19 UNL     1       2.196   0.182  -1.519  1.00  0.00     0.055 C 
HETATM   29  C20 UNL     1       3.504   0.777  -1.410  1.00  0.00    -0.059 C 
HETATM   30  C21 UNL     1       4.473   0.267  -0.395  1.00  0.00     0.045 C 
HETATM   31  C22 UNL     1       4.293   1.120  -2.633  1.00  0.00     0.045 C 
BRANCH  28  32
HETATM   32  C23 UNL     1       1.490   0.227  -2.846  1.00  0.00    -0.059 C 
HETATM   33  C24 UNL     1       0.705   1.416  -3.192  1.00  0.00     0.045 C 
HETATM   34  C25 UNL     1       2.235  -0.438  -3.983  1.00  0.00     0.045 C 
ENDBRANCH  28  32
ENDBRANCH  16  28
BRANCH   1  35
HETATM   35  C4  UNL     1       1.623   0.321   1.959  1.00  0.00     0.041 C 
BRANCH  35  36
HETATM   36  C2  UNL     1       2.121  -0.287   3.209  1.00  0.00    -0.020 C 
HETATM   37  C1  UNL     1       3.460  -0.926   3.209  1.00  0.00     0.009 C 
HETATM   38  C3  UNL     1       1.110  -1.121   3.951  1.00  0.00     0.009 C 
ENDBRANCH  35  36
ENDBRANCH   1  35
TORSDOF 9
