REMARK  2 active torsions:
REMARK  status: ('A' for Active; 'I' for Inactive)
REMARK    1  A    between atoms: C1_4  and  O1_5 
REMARK    2  A    between atoms: C1_4  and  N2_7 
ROOT
HETATM    1  N2  UNL     1       1.244   0.196   0.131  1.00  0.00    -0.348 N 
HETATM    2  C2  UNL     1       0.802   1.458  -0.371  1.00  0.00     0.126 C 
HETATM    3  C3  UNL     1      -0.604   1.451  -0.908  1.00  0.00     0.020 C 
HETATM    4  C4  UNL     1      -1.641   1.103   0.116  1.00  0.00     0.002 C 
HETATM    5  C5  UNL     1      -2.347  -0.206  -0.250  1.00  0.00     0.000 C 
HETATM    6  C6  UNL     1      -1.723  -1.285   0.583  1.00  0.00     0.002 C 
HETATM    7  C7  UNL     1      -0.377  -1.654  -0.004  1.00  0.00     0.020 C 
HETATM    8  C8  UNL     1       0.699  -0.971   0.797  1.00  0.00     0.126 C 
ENDROOT
BRANCH   1   9
HETATM    9  C1  UNL     1       2.641   0.032  -0.084  1.00  0.00     0.212 C 
HETATM   10  N1  UNL     1       3.162  -0.748  -0.937  1.00  0.00    -0.365 N 
ATOM     11  H12 UNL     1       4.163  -0.866  -1.091  1.00  0.00     0.159 HD
ATOM     12  H11 UNL     1       2.540  -1.308  -1.520  1.00  0.00     0.159 HD
BRANCH   9  13
HETATM   13  O1  UNL     1       3.491   0.798   0.713  1.00  0.00    -0.333 OA
ATOM     14  H1  UNL     1       3.101   1.382   1.352  1.00  0.00     0.220 HD
ENDBRANCH   9  13
ENDBRANCH   1   9
TORSDOF 2
