REMARK  12 active torsions:
REMARK  status: ('A' for Active; 'I' for Inactive)
REMARK    1  A    between atoms: C1_2  and  N1_3 
REMARK    2  A    between atoms: N1_3  and  C2_5 
REMARK    3  A    between atoms: C2_5  and  C3_6 
REMARK    4  A    between atoms: C3_6  and  N2_7 
REMARK    5  A    between atoms: N2_7  and  C4_10 
REMARK    6  A    between atoms: C4_10  and  C5_11 
REMARK    7  A    between atoms: C5_11  and  C6_12 
REMARK    8  A    between atoms: C6_12  and  N3_13 
REMARK       I    between atoms: N3_13  and  C7_15 
REMARK    9  A    between atoms: C7_15  and  C8_17 
REMARK   10  A    between atoms: C10_22  and  C11_23 
REMARK   11  A    between atoms: C11_23  and  O4_24 
REMARK   12  A    between atoms: C12_29  and  O5_30 
ROOT
HETATM    1  N3  UNL     1      -0.429  -0.078  -1.129  1.00  0.00    -0.359 N 
ATOM      2  H3  UNL     1      -0.772   0.745  -1.624  1.00  0.00     0.162 HD
HETATM    3  C7  UNL     1      -1.369  -0.917  -0.498  1.00  0.00     0.244 C 
HETATM    4  O2  UNL     1      -0.999  -1.922   0.149  1.00  0.00    -0.271 OA
ENDROOT
BRANCH   3   5
HETATM    5  C8  UNL     1      -2.792  -0.583  -0.621  1.00  0.00     0.233 C 
HETATM    6  N4  UNL     1      -3.675  -1.554   0.014  1.00  0.00    -0.342 N 
HETATM    7  C9  UNL     1      -5.080  -1.278   0.039  1.00  0.00     0.251 C 
ATOM      8  H4  UNL     1      -3.302  -2.407   0.430  1.00  0.00     0.163 HD
HETATM    9  O3  UNL     1      -5.907  -2.158   0.229  1.00  0.00    -0.271 OA
HETATM   10  C10 UNL     1      -5.404   0.171  -0.192  1.00  0.00     0.303 C 
HETATM   11  N5  UNL     1      -4.383   0.904   0.546  1.00  0.00    -0.032 N 
HETATM   12  C12 UNL     1      -3.104   0.806  -0.178  1.00  0.00     0.352 C 
ATOM     13  H52 UNL     1      -4.654   1.871   0.727  1.00  0.00     0.281 HD
ATOM     14  H51 UNL     1      -4.306   0.593   1.514  1.00  0.00     0.281 HD
BRANCH  10  15
HETATM   15  C11 UNL     1      -6.743   0.564   0.335  1.00  0.00     0.207 C 
BRANCH  15  16
HETATM   16  O4  UNL     1      -7.808  -0.078  -0.304  1.00  0.00    -0.398 OA
ATOM     17  H4  UNL     1      -8.661   0.172   0.032  1.00  0.00     0.209 HD
ENDBRANCH  15  16
ENDBRANCH  10  15
BRANCH  12  18
HETATM   18  O5  UNL     1      -3.094   1.693  -1.247  1.00  0.00    -0.368 OA
ATOM     19  H5  UNL     1      -3.293   2.578  -0.965  1.00  0.00     0.212 HD
ENDBRANCH  12  18
ENDBRANCH   3   5
BRANCH   1  20
HETATM   20  C6  UNL     1       0.971  -0.317  -1.112  1.00  0.00     0.124 C 
BRANCH  20  21
HETATM   21  C5  UNL     1       1.558  -0.292   0.253  1.00  0.00     0.047 C 
BRANCH  21  22
HETATM   22  C4  UNL     1       3.042  -0.622   0.207  1.00  0.00     0.234 C 
BRANCH  22  23
HETATM   23  N2  UNL     1       3.741   0.364  -0.585  1.00  0.00    -0.074 N 
ATOM     24  H22 UNL     1       3.791   1.254  -0.089  1.00  0.00     0.277 HD
ATOM     25  H21 UNL     1       3.178   0.646  -1.387  1.00  0.00     0.277 HD
BRANCH  23  26
HETATM   26  C3  UNL     1       5.035  -0.051  -1.002  1.00  0.00     0.251 C 
BRANCH  26  27
HETATM   27  C2  UNL     1       5.995  -0.194   0.110  1.00  0.00     0.149 C 
BRANCH  27  28
HETATM   28  N1  UNL     1       6.277   0.988   0.869  1.00  0.00    -0.367 N 
ATOM     29  H1  UNL     1       5.806   1.864   0.643  1.00  0.00     0.161 HD
BRANCH  28  30
HETATM   30  C1  UNL     1       7.226   0.939   1.951  1.00  0.00     0.348 C 
HETATM   31  O1  UNL     1       7.775  -0.144   2.184  1.00  0.00    -0.284 OA
ENDBRANCH  28  30
ENDBRANCH  27  28
ENDBRANCH  26  27
ENDBRANCH  23  26
ENDBRANCH  22  23
ENDBRANCH  21  22
ENDBRANCH  20  21
ENDBRANCH   1  20
TORSDOF 12
