REMARK  13 active torsions:
REMARK  status: ('A' for Active; 'I' for Inactive)
REMARK    1  A    between atoms: C2_2  and  N1_3 
REMARK    2  A    between atoms: N1_3  and  C3_6 
REMARK    3  A    between atoms: C3_6  and  C4_7 
REMARK    4  A    between atoms: C4_7  and  N2_8 
REMARK    5  A    between atoms: N2_8  and  C5_11 
REMARK    6  A    between atoms: C5_11  and  C6_12 
REMARK    7  A    between atoms: C6_12  and  N3_13 
REMARK    8  A    between atoms: C6_12  and  C10_24 
REMARK    9  A    between atoms: N3_13  and  C7_15 
REMARK   10  A    between atoms: C8_16  and  N4_17 
REMARK   11  A    between atoms: C9_21  and  O1_22 
REMARK       I    between atoms: C10_24  and  N5_26 
REMARK   12  A    between atoms: N5_26  and  C11_28 
REMARK   13  A    between atoms: C11_28  and  C12_29 
REMARK       I    between atoms: C12_29  and  N6_31 
ROOT
HETATM    1  C6  UNL     1       0.646   0.419   0.818  1.00  0.00     0.196 C 
ENDROOT
BRANCH   1   2
HETATM    2  C5  UNL     1      -0.451  -0.681   0.694  1.00  0.00     0.266 C 
BRANCH   2   3
HETATM    3  N2  UNL     1      -1.418  -0.375  -0.316  1.00  0.00    -0.071 N 
ATOM      4  H22 UNL     1      -1.004  -0.002  -1.170  1.00  0.00     0.277 HD
ATOM      5  H21 UNL     1      -1.995   0.435  -0.089  1.00  0.00     0.277 HD
BRANCH   3   6
HETATM    6  C4  UNL     1      -2.201  -1.604  -0.537  1.00  0.00     0.259 C 
BRANCH   6   7
HETATM    7  C3  UNL     1      -3.394  -1.361  -1.388  1.00  0.00     0.259 C 
BRANCH   7   8
HETATM    8  N1  UNL     1      -4.325  -0.456  -0.703  1.00  0.00    -0.074 N 
ATOM      9  H12 UNL     1      -5.036  -0.062  -1.318  1.00  0.00     0.277 HD
ATOM     10  H11 UNL     1      -3.901   0.428  -0.422  1.00  0.00     0.277 HD
BRANCH   8  11
HETATM   11  C2  UNL     1      -4.883  -1.225   0.424  1.00  0.00     0.228 C 
HETATM   12  C1  UNL     1      -5.862  -0.308   1.135  1.00  0.00     0.034 C 
ENDBRANCH   8  11
ENDBRANCH   7   8
ENDBRANCH   6   7
ENDBRANCH   3   6
ENDBRANCH   2   3
ENDBRANCH   1   2
BRANCH   1  13
HETATM   13  N3  UNL     1       0.134   1.657   1.081  1.00  0.00    -0.399 N 
ATOM     14  H3  UNL     1       0.312   1.992   2.028  1.00  0.00     0.154 HD
BRANCH  13  15
HETATM   15  C7  UNL     1      -0.574   2.527   0.301  1.00  0.00     0.141 A 
HETATM   16  C8  UNL     1      -0.052   3.381  -0.786  1.00  0.00     0.238 A 
HETATM   17  C9  UNL     1      -0.531   4.023   0.502  1.00  0.00     0.175 A 
BRANCH  16  18
HETATM   18  N4  UNL     1       1.348   3.690  -1.012  1.00  0.00    -0.070 N 
ATOM     19  H43 UNL     1       1.706   4.078  -0.139  1.00  0.00     0.274 HD
ATOM     20  H42 UNL     1       1.836   2.797  -1.083  1.00  0.00     0.274 HD
ATOM     21  H41 UNL     1       1.708   4.280  -1.762  1.00  0.00     0.274 HD
ENDBRANCH  16  18
BRANCH  17  22
HETATM   22  O1  UNL     1       0.406   4.586   1.323  1.00  0.00    -0.391 OA
ATOM     23  H1  UNL     1       0.433   5.527   1.449  1.00  0.00     0.210 HD
ENDBRANCH  17  22
ENDBRANCH  13  15
ENDBRANCH   1  13
BRANCH   1  24
HETATM   24  C10 UNL     1       1.559   0.119  -0.284  1.00  0.00     0.242 C 
HETATM   25  O2  UNL     1       1.408   0.554  -1.426  1.00  0.00    -0.271 OA
HETATM   26  N5  UNL     1       2.724  -0.730  -0.065  1.00  0.00    -0.351 N 
ATOM     27  H5  UNL     1       2.910  -1.132   0.854  1.00  0.00     0.163 HD
BRANCH  26  28
HETATM   28  C11 UNL     1       3.601  -0.988  -1.164  1.00  0.00     0.225 C 
BRANCH  28  29
HETATM   29  C12 UNL     1       4.723  -1.874  -0.851  1.00  0.00     0.234 C 
HETATM   30  O3  UNL     1       5.591  -2.150  -1.767  1.00  0.00    -0.272 OA
HETATM   31  N6  UNL     1       4.938  -2.467   0.400  1.00  0.00    -0.364 N 
HETATM   32  C13 UNL     1       6.099  -3.342   0.597  1.00  0.00     0.149 C 
ATOM     33  H6  UNL     1       4.291  -2.291   1.169  1.00  0.00     0.161 HD
ENDBRANCH  28  29
ENDBRANCH  26  28
ENDBRANCH   1  24
TORSDOF 13
