REMARK  9 active torsions:
REMARK  status: ('A' for Active; 'I' for Inactive)
REMARK    1  A    between atoms: C2_2  and  C3_3 
REMARK    2  A    between atoms: C3_3  and  C4_4 
REMARK    3  A    between atoms: C4_4  and  C5_5 
REMARK    4  A    between atoms: C5_5  and  N2_10 
REMARK    5  A    between atoms: N1_6  and  O1_8 
REMARK    6  A    between atoms: C10_18  and  S1_19 
REMARK    7  A    between atoms: S1_19  and  C11_20 
REMARK    8  A    between atoms: C11_20  and  C12_21 
REMARK       I    between atoms: C12_21  and  N3_23 
REMARK    9  A    between atoms: N3_23  and  C14_25 
ROOT
HETATM    1  C4  UNL     1      -3.140  -0.194   0.006  1.00  0.00     0.040 C 
HETATM    2  C7  UNL     1      -2.980  -0.880  -1.306  1.00  0.00     0.025 C 
HETATM    3  C8  UNL     1      -1.784  -1.743  -1.500  1.00  0.00     0.081 C 
HETATM    4  C9  UNL     1      -1.228  -2.291  -0.261  1.00  0.00     0.140 C 
HETATM    5  O2  UNL     1      -0.930  -3.474  -0.137  1.00  0.00    -0.297 OA
HETATM    6  C10 UNL     1      -1.029  -1.359   0.869  1.00  0.00     0.118 C 
HETATM    7  C20 UNL     1      -2.005  -0.262   0.970  1.00  0.00     0.040 C 
ENDROOT
BRANCH   6   8
HETATM    8  S1  UNL     1       0.649  -0.655   0.628  1.00  0.00    -0.147 SA
BRANCH   8   9
HETATM    9  C11 UNL     1       1.944  -1.868   0.701  1.00  0.00     0.177 C 
BRANCH   9  10
HETATM   10  C12 UNL     1       3.283  -1.303   0.522  1.00  0.00     0.233 C 
HETATM   11  O3  UNL     1       4.212  -2.182   0.335  1.00  0.00    -0.272 OA
HETATM   12  N3  UNL     1       3.707   0.018   0.519  1.00  0.00    -0.320 N 
HETATM   13  C13 UNL     1       2.865   1.099   0.948  1.00  0.00     0.159 C 
BRANCH  12  14
HETATM   14  C14 UNL     1       5.042   0.382   0.124  1.00  0.00     0.058 A 
HETATM   15  C15 UNL     1       5.960   0.859   0.997  1.00  0.00     0.033 A 
HETATM   16  C16 UNL     1       7.250   1.213   0.615  1.00  0.00     0.026 A 
HETATM   17  C17 UNL     1       7.607   1.072  -0.701  1.00  0.00     0.035 A 
HETATM   18 CL1  UNL     1       9.213   1.483  -1.313  1.00  0.00    -0.084 Cl
HETATM   19  C18 UNL     1       6.685   0.584  -1.622  1.00  0.00     0.050 A 
HETATM   20  C19 UNL     1       5.427   0.246  -1.216  1.00  0.00     0.062 A 
HETATM   21 CL2  UNL     1       4.216  -0.372  -2.319  1.00  0.00    -0.082 Cl
ENDBRANCH  12  14
ENDBRANCH   9  10
ENDBRANCH   8   9
ENDBRANCH   6   8
BRANCH   1  22
HETATM   22  C3  UNL     1      -4.417  -0.726   0.671  1.00  0.00     0.044 C 
BRANCH  22  23
HETATM   23  C2  UNL     1      -4.415  -2.144   0.980  1.00  0.00    -0.036 C 
HETATM   24  C1  UNL     1      -5.328  -2.942   0.445  1.00  0.00     0.007 C 
ENDBRANCH  22  23
ENDBRANCH   1  22
BRANCH   1  25
HETATM   25  C5  UNL     1      -3.387   1.260  -0.211  1.00  0.00     0.290 C 
HETATM   26  N1  UNL     1      -4.461   1.728   0.310  1.00  0.00    -0.244 N 
ATOM     27  H1  UNL     1      -5.038   1.059   0.820  1.00  0.00     0.195 HD
BRANCH  26  28
HETATM   28  O1  UNL     1      -4.923   2.993   0.268  1.00  0.00    -0.288 OA
ATOM     29  H1  UNL     1      -5.719   3.340   0.654  1.00  0.00     0.244 HD
ENDBRANCH  26  28
BRANCH  25  30
HETATM   30  N2  UNL     1      -2.571   2.160  -0.920  1.00  0.00     0.296 N 
HETATM   31  C6  UNL     1      -2.123   3.278  -0.121  1.00  0.00     0.375 C 
HETATM   32  F1  UNL     1      -3.267   2.729  -1.967  1.00  0.00     0.020 F 
HETATM   33  F2  UNL     1      -1.439   1.586  -1.412  1.00  0.00     0.020 F 
ENDBRANCH  25  30
ENDBRANCH   1  25
TORSDOF 9
