REMARK  13 active torsions:
REMARK  status: ('A' for Active; 'I' for Inactive)
REMARK    1  A    between atoms: C5_5  and  O1_6 
REMARK    2  A    between atoms: C5_5  and  O2_8 
REMARK    3  A    between atoms: O2_8  and  C6_9 
REMARK    4  A    between atoms: C6_9  and  C7_10 
REMARK    5  A    between atoms: C8_12  and  O4_13 
REMARK    6  A    between atoms: O4_13  and  C9_14 
REMARK    7  A    between atoms: C9_14  and  C10_15 
REMARK    8  A    between atoms: C11_17  and  C12_18 
REMARK    9  A    between atoms: C12_18  and  O6_19 
REMARK   10  A    between atoms: C13_21  and  O7_22 
REMARK   11  A    between atoms: C14_24  and  O8_25 
REMARK   12  A    between atoms: C15_27  and  O9_28 
REMARK   13  A    between atoms: C21_35  and  O10_36 
ROOT
HETATM    1  C1  UNL     1       3.632   4.343  -0.517  1.00  0.00     0.017 C 
HETATM    2  C2  UNL     1       4.507   3.650  -0.055  1.00  0.00    -0.078 C 
HETATM    3  C3  UNL     1       5.536   2.814   0.487  1.00  0.00     0.048 C 
HETATM    4  C4  UNL     1       6.949   3.267   0.521  1.00  0.00     0.063 C 
HETATM    5  C5  UNL     1       5.253   1.622   0.969  1.00  0.00     0.193 C 
ENDROOT
BRANCH   5   6
HETATM    6  O1  UNL     1       6.215   0.776   1.504  1.00  0.00    -0.340 OA
ATOM      7  H1  UNL     1       6.011  -0.084   1.852  1.00  0.00     0.220 HD
ENDBRANCH   5   6
BRANCH   5   8
HETATM    8  O2  UNL     1       3.939   1.120   0.972  1.00  0.00    -0.327 OA
BRANCH   8   9
HETATM    9  C6  UNL     1       3.717  -0.277   0.722  1.00  0.00     0.210 C 
BRANCH   9  10
HETATM   10  C7  UNL     1       2.256  -0.505   0.789  1.00  0.00     0.156 C 
HETATM   11  O3  UNL     1       1.506   0.196  -0.106  1.00  0.00    -0.353 OA
HETATM   12  C8  UNL     1       0.184  -0.401  -0.022  1.00  0.00     0.268 C 
HETATM   13  C16 UNL     1       0.341  -1.695   0.595  1.00  0.00     0.078 C 
HETATM   14  C17 UNL     1      -0.349  -2.900   0.208  1.00  0.00    -0.080 C 
HETATM   15  C22 UNL     1       1.858  -1.944   0.358  1.00  0.00     0.058 C 
HETATM   16  C18 UNL     1      -1.530  -3.281   0.693  1.00  0.00     0.015 C 
HETATM   17  C19 UNL     1       0.275  -3.843  -0.757  1.00  0.00     0.036 C 
HETATM   18  C20 UNL     1       1.129  -3.075  -1.717  1.00  0.00     0.036 C 
HETATM   19  C21 UNL     1       2.063  -2.103  -1.103  1.00  0.00     0.126 C 
BRANCH  12  20
HETATM   20  O4  UNL     1      -0.427  -0.218  -1.230  1.00  0.00    -0.358 OA
BRANCH  20  21
HETATM   21  C9  UNL     1      -1.287   0.863  -1.180  1.00  0.00     0.205 C 
BRANCH  21  22
HETATM   22  C10 UNL     1      -2.499   0.725  -0.347  1.00  0.00     0.177 C 
HETATM   23  O5  UNL     1      -3.190   1.975  -0.237  1.00  0.00    -0.371 OA
HETATM   24  C11 UNL     1      -4.027   1.836   0.845  1.00  0.00     0.177 C 
HETATM   25  C13 UNL     1      -4.817   0.591   0.934  1.00  0.00     0.180 C 
HETATM   26  C14 UNL     1      -4.732  -0.322  -0.255  1.00  0.00     0.180 C 
HETATM   27  C15 UNL     1      -3.561  -0.086  -1.126  1.00  0.00     0.180 C 
BRANCH  24  28
HETATM   28  C12 UNL     1      -4.928   3.077   0.894  1.00  0.00     0.198 C 
BRANCH  28  29
HETATM   29  O6  UNL     1      -5.810   2.980   1.995  1.00  0.00    -0.398 OA
ATOM     30  H6  UNL     1      -6.368   3.748   2.025  1.00  0.00     0.209 HD
ENDBRANCH  28  29
ENDBRANCH  24  28
BRANCH  25  31
HETATM   31  O7  UNL     1      -4.476  -0.127   2.105  1.00  0.00    -0.390 OA
ATOM     32  H7  UNL     1      -4.984  -0.928   2.162  1.00  0.00     0.210 HD
ENDBRANCH  25  31
BRANCH  26  33
HETATM   33  O8  UNL     1      -4.717  -1.634   0.197  1.00  0.00    -0.390 OA
ATOM     34  H8  UNL     1      -4.663  -2.212  -0.555  1.00  0.00     0.210 HD
ENDBRANCH  26  33
BRANCH  27  35
HETATM   35  O9  UNL     1      -2.959  -1.153  -1.709  1.00  0.00    -0.390 OA
ATOM     36  H9  UNL     1      -3.611  -1.651  -2.187  1.00  0.00     0.210 HD
ENDBRANCH  27  35
ENDBRANCH  21  22
ENDBRANCH  20  21
ENDBRANCH  12  20
BRANCH  19  37
HETATM   37  O10 UNL     1       3.384  -2.476  -1.408  1.00  0.00    -0.395 OA
ATOM     38  H10 UNL     1       3.983  -1.853  -1.014  1.00  0.00     0.210 HD
ENDBRANCH  19  37
ENDBRANCH   9  10
ENDBRANCH   8   9
ENDBRANCH   5   8
TORSDOF 13
