REMARK  7 active torsions:
REMARK  status: ('A' for Active; 'I' for Inactive)
REMARK    1  A    between atoms: C2_2  and  C3_3 
REMARK    2  A    between atoms: C3_3  and  O1_4 
REMARK    3  A    between atoms: C3_3  and  C5_6 
REMARK       I    between atoms: C5_6  and  N1_8 
REMARK    4  A    between atoms: N1_8  and  C6_10 
REMARK    5  A    between atoms: C11_16  and  C12_17 
REMARK    6  A    between atoms: C12_17  and  O4_19 
REMARK    7  A    between atoms: O4_19  and  C13_20 
ROOT
HETATM    1  C13 UNL     1      -3.389   2.287  -0.056  1.00  0.00     0.234 C 
HETATM    2  C14 UNL     1      -3.389   3.276   1.087  1.00  0.00     0.056 C 
HETATM    3  C15 UNL     1      -3.039   2.996  -1.291  1.00  0.00     0.091 C 
HETATM    4  N2  UNL     1      -2.757   3.560  -2.279  1.00  0.00    -0.195 NA
ENDROOT
BRANCH   1   5
HETATM    5  O4  UNL     1      -2.425   1.258   0.165  1.00  0.00    -0.301 OA
BRANCH   5   6
HETATM    6  C12 UNL     1      -2.825  -0.077   0.232  1.00  0.00     0.266 C 
HETATM    7  O3  UNL     1      -4.054  -0.296   0.087  1.00  0.00    -0.265 OA
BRANCH   6   8
HETATM    8  C11 UNL     1      -1.834  -1.167   0.462  1.00  0.00     0.110 C 
HETATM    9  C8  UNL     1      -2.513  -2.485   0.488  1.00  0.00     0.014 C 
HETATM   10  S1  UNL     1      -1.083  -3.598   0.190  1.00  0.00    -0.151 SA
HETATM   11  C9  UNL     1      -3.117  -2.731   1.845  1.00  0.00     0.027 C 
HETATM   12  C10 UNL     1      -3.508  -2.718  -0.590  1.00  0.00     0.027 C 
HETATM   13  C7  UNL     1      -0.057  -2.382  -0.708  1.00  0.00     0.078 A 
HETATM   14  C6  UNL     1       0.655  -1.330   0.040  1.00  0.00     0.104 A 
HETATM   15  C16 UNL     1      -0.760  -1.126  -0.537  1.00  0.00     0.040 A 
BRANCH  14  16
HETATM   16  N1  UNL     1       1.737  -0.632  -0.570  1.00  0.00    -0.353 N 
HETATM   17  C5  UNL     1       2.853  -0.189   0.193  1.00  0.00     0.247 C 
HETATM   18  O2  UNL     1       2.890  -0.415   1.432  1.00  0.00    -0.271 OA
ATOM     19  H1  UNL     1       1.711  -0.446  -1.573  1.00  0.00     0.163 HD
BRANCH  17  20
HETATM   20  C3  UNL     1       3.995   0.539  -0.411  1.00  0.00     0.212 C 
BRANCH  20  21
HETATM   21  C2  UNL     1       4.027   1.944   0.202  1.00  0.00     0.037 C 
HETATM   22  C1  UNL     1       4.227   1.884   1.699  1.00  0.00     0.008 C 
ENDBRANCH  20  21
BRANCH  20  23
HETATM   23  O1  UNL     1       3.809   0.709  -1.769  1.00  0.00    -0.381 OA
HETATM   24  C4  UNL     1       4.845   0.143  -2.502  1.00  0.00     0.202 C 
ENDBRANCH  20  23
ENDBRANCH  17  20
ENDBRANCH  14  16
ENDBRANCH   6   8
ENDBRANCH   5   6
ENDBRANCH   1   5
TORSDOF 7
