REMARK  7 active torsions:
REMARK  status: ('A' for Active; 'I' for Inactive)
REMARK       I    between atoms: C2_2  and  N1_4 
REMARK    1  A    between atoms: N1_4  and  C3_6 
REMARK    2  A    between atoms: C6_9  and  O2_10 
REMARK    3  A    between atoms: O2_10  and  C7_11 
REMARK    4  A    between atoms: C9_14  and  O4_15 
REMARK    5  A    between atoms: O4_15  and  C10_16 
REMARK    6  A    between atoms: C12_19  and  S1_20 
REMARK    7  A    between atoms: S1_20  and  C13_21 
ROOT
HETATM    1  C3  UNL     1      -0.298   1.764  -0.724  1.00  0.00     0.100 C 
HETATM    2  C4  UNL     1       0.615   1.390  -1.877  1.00  0.00     0.029 C 
HETATM    3  C5  UNL     1       1.982   1.160  -1.235  1.00  0.00     0.037 C 
HETATM    4  C6  UNL     1       1.943   0.017  -0.263  1.00  0.00     0.162 C 
HETATM    5  C9  UNL     1       0.750  -0.045   0.608  1.00  0.00     0.177 C 
HETATM    6  C12 UNL     1      -0.524   0.478   0.051  1.00  0.00     0.102 C 
ENDROOT
BRANCH   1   7
HETATM    7  N1  UNL     1      -1.508   2.381  -1.154  1.00  0.00    -0.356 N 
HETATM    8  C2  UNL     1      -1.855   3.704  -0.783  1.00  0.00     0.213 C 
HETATM    9  C1  UNL     1      -3.129   4.341  -1.243  1.00  0.00     0.117 C 
HETATM   10  O1  UNL     1      -1.062   4.347  -0.048  1.00  0.00    -0.274 OA
ATOM     11  H1  UNL     1      -2.146   1.853  -1.749  1.00  0.00     0.162 HD
ENDBRANCH   1   7
BRANCH   6  12
HETATM   12  S1  UNL     1      -1.435  -0.718  -0.948  1.00  0.00    -0.155 SA
BRANCH  12  13
HETATM   13  C13 UNL     1      -1.682  -2.209   0.025  1.00  0.00     0.039 C 
HETATM   14  C14 UNL     1      -2.607  -1.906   1.203  1.00  0.00     0.021 C 
HETATM   15  C15 UNL     1      -2.350  -3.287  -0.800  1.00  0.00     0.021 C 
ENDBRANCH  12  13
ENDBRANCH   6  12
BRANCH   5  16
HETATM   16  O4  UNL     1       0.976   0.643   1.850  1.00  0.00    -0.312 OA
BRANCH  16  17
HETATM   17  C10 UNL     1       0.959  -0.035   3.039  1.00  0.00     0.255 C 
HETATM   18  C11 UNL     1       1.196   0.699   4.309  1.00  0.00     0.126 C 
HETATM   19  O5  UNL     1       0.738  -1.284   3.004  1.00  0.00    -0.266 OA
ENDBRANCH  16  17
ENDBRANCH   5  16
BRANCH   4  20
HETATM   20  O2  UNL     1       2.156  -1.169  -1.044  1.00  0.00    -0.314 OA
BRANCH  20  21
HETATM   21  C7  UNL     1       3.283  -1.937  -0.923  1.00  0.00     0.255 C 
HETATM   22  C8  UNL     1       3.585  -3.168  -1.683  1.00  0.00     0.126 C 
HETATM   23  O3  UNL     1       4.148  -1.554  -0.078  1.00  0.00    -0.266 OA
ENDBRANCH  20  21
ENDBRANCH   4  20
TORSDOF 7
