REMARK  8 active torsions:
REMARK  status: ('A' for Active; 'I' for Inactive)
REMARK    1  A    between atoms: C2_2  and  O1_4 
REMARK    2  A    between atoms: O1_4  and  C4_5 
REMARK    3  A    between atoms: C4_5  and  C5_6 
REMARK    4  A    between atoms: C5_6  and  O3_8 
REMARK    5  A    between atoms: O3_8  and  C6_9 
REMARK    6  A    between atoms: C9_12  and  C10_13 
REMARK    7  A    between atoms: C13_17  and  C14_18 
REMARK    8  A    between atoms: C14_18  and  O5_21 
ROOT
HETATM    1  C6  UNL     1       0.851  -0.482  -0.263  1.00  0.00     0.270 C 
HETATM    2  C7  UNL     1      -0.215  -1.016   0.723  1.00  0.00     0.071 C 
HETATM    3  C8  UNL     1      -1.309  -1.298  -0.213  1.00  0.00     0.051 C 
HETATM    4  C9  UNL     1      -2.707  -1.170   0.176  1.00  0.00     0.132 C 
HETATM    5  O4  UNL     1      -3.071   0.172   0.078  1.00  0.00    -0.374 OA
HETATM    6  C13 UNL     1      -2.245   0.755  -0.863  1.00  0.00     0.185 C 
HETATM    7  C17 UNL     1      -1.154  -0.186  -1.246  1.00  0.00     0.163 C 
HETATM    8  O6  UNL     1       0.108   0.328  -1.117  1.00  0.00    -0.352 OA
ENDROOT
BRANCH   1   9
HETATM    9  O3  UNL     1       1.775   0.351   0.411  1.00  0.00    -0.288 OA
BRANCH   9  10
HETATM   10  C5  UNL     1       3.140   0.121   0.400  1.00  0.00     0.285 C 
HETATM   11  O2  UNL     1       3.526  -0.879  -0.249  1.00  0.00    -0.263 OA
BRANCH  10  12
HETATM   12  C4  UNL     1       4.111   0.987   1.102  1.00  0.00     0.279 C 
BRANCH  12  13
HETATM   13  O1  UNL     1       5.420   0.631   0.991  1.00  0.00    -0.377 OA
BRANCH  13  14
HETATM   14  C2  UNL     1       5.962   0.594  -0.263  1.00  0.00     0.114 C 
HETATM   15  C1  UNL     1       7.082   1.625  -0.432  1.00  0.00     0.039 C 
HETATM   16  C3  UNL     1       6.583  -0.755  -0.503  1.00  0.00     0.039 C 
ENDBRANCH  13  14
ENDBRANCH  12  13
ENDBRANCH  10  12
ENDBRANCH   9  10
ENDBRANCH   1   9
BRANCH   4  17
HETATM   17  C10 UNL     1      -3.204  -1.748   1.434  1.00  0.00     0.007 C 
HETATM   18  C11 UNL     1      -2.535  -1.187   2.665  1.00  0.00     0.012 C 
HETATM   19  C12 UNL     1      -4.695  -1.400   1.595  1.00  0.00     0.012 C 
ENDBRANCH   4  17
BRANCH   6  20
HETATM   20  C14 UNL     1      -3.088   1.196  -2.034  1.00  0.00     0.079 C 
HETATM   21  C15 UNL     1      -3.812   0.071  -2.708  1.00  0.00     0.048 C 
HETATM   22  C16 UNL     1      -4.103   2.225  -1.583  1.00  0.00     0.048 C 
BRANCH  20  23
HETATM   23  O5  UNL     1      -2.226   1.780  -2.974  1.00  0.00    -0.388 OA
ATOM     24  H5  UNL     1      -2.757   2.058  -3.711  1.00  0.00     0.210 HD
ENDBRANCH  20  23
ENDBRANCH   6  20
TORSDOF 8
