REMARK  8 active torsions:
REMARK  status: ('A' for Active; 'I' for Inactive)
REMARK    1  A    between atoms: C2_2  and  C3_3 
REMARK    2  A    between atoms: C3_3  and  O1_4 
REMARK    3  A    between atoms: O1_4  and  C4_5 
REMARK       I    between atoms: C4_5  and  N1_7 
REMARK    4  A    between atoms: N1_7  and  N2_8 
REMARK    5  A    between atoms: N1_7  and  C12_21 
REMARK    6  A    between atoms: N2_8  and  C5_10 
REMARK    7  A    between atoms: C5_10  and  N3_12 
REMARK    8  A    between atoms: N3_12  and  C6_14 
ROOT
HETATM    1  N2  UNL     1       0.223  -0.220   0.355  1.00  0.00    -0.262 N 
ATOM      2  H2  UNL     1       0.024   0.779   0.296  1.00  0.00     0.190 HD
ENDROOT
BRANCH   1   3
HETATM    3  N1  UNL     1      -0.897  -0.964   0.573  1.00  0.00    -0.135 N 
HETATM    4  C4  UNL     1      -2.168  -0.257   0.264  1.00  0.00     0.389 C 
HETATM    5  O2  UNL     1      -2.138   0.929  -0.157  1.00  0.00    -0.236 OA
BRANCH   4   6
HETATM    6  O1  UNL     1      -3.399  -0.849   0.420  1.00  0.00    -0.302 OA
BRANCH   6   7
HETATM    7  C3  UNL     1      -4.643  -0.282   0.172  1.00  0.00     0.180 C 
BRANCH   7   8
HETATM    8  C2  UNL     1      -4.877   0.195  -1.240  1.00  0.00     0.022 C 
HETATM    9  C1  UNL     1      -6.304   0.779  -1.215  1.00  0.00     0.007 C 
ENDBRANCH   7   8
ENDBRANCH   6   7
ENDBRANCH   4   6
BRANCH   3  10
HETATM   10  C12 UNL     1      -1.127  -2.281   1.065  1.00  0.00     0.509 C 
HETATM   11  F1  UNL     1      -0.138  -2.982   1.621  1.00  0.00    -0.149 F 
HETATM   12  F2  UNL     1      -2.218  -2.165   1.948  1.00  0.00    -0.149 F 
HETATM   13  F3  UNL     1      -1.640  -3.045  -0.010  1.00  0.00    -0.149 F 
ENDBRANCH   3  10
ENDBRANCH   1   3
BRANCH   1  14
HETATM   14  C5  UNL     1       1.577  -0.506   0.194  1.00  0.00     0.191 C 
HETATM   15  S1  UNL     1       2.166  -1.998   0.293  1.00  0.00    -0.039 SA
BRANCH  14  16
HETATM   16  N3  UNL     1       2.490   0.583  -0.025  1.00  0.00    -0.331 N 
ATOM     17  H3  UNL     1       2.068   1.512  -0.036  1.00  0.00     0.168 HD
BRANCH  16  18
HETATM   18  C6  UNL     1       3.863   0.552  -0.224  1.00  0.00     0.051 A 
HETATM   19  C7  UNL     1       4.591  -0.498  -0.689  1.00  0.00     0.031 A 
HETATM   20  C8  UNL     1       5.969  -0.458  -0.900  1.00  0.00     0.002 A 
HETATM   21  C9  UNL     1       6.639   0.729  -0.624  1.00  0.00     0.002 A 
HETATM   22  C10 UNL     1       5.955   1.828  -0.158  1.00  0.00     0.021 A 
HETATM   23  C11 UNL     1       4.578   1.708   0.031  1.00  0.00     0.037 A 
HETATM   24 BR1  UNL     1       3.671   3.274   0.683  1.00  0.00    -0.049 Br
ENDBRANCH  16  18
ENDBRANCH  14  16
ENDBRANCH   1  14
TORSDOF 8
