REMARK  6 active torsions:
REMARK  status: ('A' for Active; 'I' for Inactive)
REMARK    1  A    between atoms: N1_2  and  C3_4 
REMARK    2  A    between atoms: C3_4  and  C4_5 
REMARK    3  A    between atoms: C4_5  and  O1_6 
REMARK    4  A    between atoms: C4_5  and  C5_8 
REMARK    5  A    between atoms: C9_12  and  C10_13 
REMARK    6  A    between atoms: C10_13  and  O2_16 
ROOT
HETATM    1  C5  UNL     1       0.409   0.099  -0.425  1.00  0.00     0.016 C 
HETATM    2  C6  UNL     1       0.561  -1.189   0.300  1.00  0.00     0.007 C 
HETATM    3  C7  UNL     1      -0.828  -1.836   0.412  1.00  0.00     0.001 C 
HETATM    4  C8  UNL     1      -1.675  -1.417  -0.765  1.00  0.00     0.007 C 
HETATM    5  C9  UNL     1      -1.996   0.044  -0.758  1.00  0.00     0.019 C 
HETATM    6  C13 UNL     1      -0.912   0.736   0.032  1.00  0.00     0.014 C 
ENDROOT
BRANCH   1   7
HETATM    7  C4  UNL     1       1.526   1.072  -0.320  1.00  0.00     0.150 C 
BRANCH   7   8
HETATM    8  C3  UNL     1       2.805   0.531  -0.849  1.00  0.00     0.303 C 
BRANCH   8   9
HETATM    9  N1  UNL     1       3.402  -0.538  -0.116  1.00  0.00     0.082 N 
HETATM   10  C1  UNL     1       4.611  -0.919  -0.882  1.00  0.00     0.309 C 
HETATM   11  C2  UNL     1       3.909  -0.100   1.183  1.00  0.00     0.309 C 
ENDBRANCH   8   9
ENDBRANCH   7   8
BRANCH   7  12
HETATM   12  O1  UNL     1       1.619   1.555   0.973  1.00  0.00    -0.393 OA
ATOM     13  H1  UNL     1       0.801   1.901   1.311  1.00  0.00     0.210 HD
ENDBRANCH   7  12
ENDBRANCH   1   7
BRANCH   5  14
HETATM   14  C10 UNL     1      -3.374   0.346  -0.234  1.00  0.00     0.054 C 
HETATM   15  C11 UNL     1      -3.582  -0.120   1.184  1.00  0.00     0.045 C 
HETATM   16  C12 UNL     1      -3.742   1.790  -0.353  1.00  0.00     0.045 C 
BRANCH  14  17
HETATM   17  O2  UNL     1      -4.304  -0.373  -1.020  1.00  0.00    -0.390 OA
ATOM     18  H2  UNL     1      -5.174  -0.182  -0.689  1.00  0.00     0.210 HD
ENDBRANCH  14  17
ENDBRANCH   5  14
TORSDOF 6
