REMARK  8 active torsions:
REMARK  status: ('A' for Active; 'I' for Inactive)
REMARK    1  A    between atoms: C1_2  and  C2_3 
REMARK       I    between atoms: C1_2  and  N3_24 
REMARK    2  A    between atoms: C3_4  and  C4_5 
REMARK    3  A    between atoms: C4_5  and  N1_6 
REMARK    4  A    between atoms: C10_12  and  O2_13 
REMARK    5  A    between atoms: O2_13  and  C11_14 
REMARK    6  A    between atoms: C11_14  and  C12_15 
REMARK    7  A    between atoms: C12_15  and  N2_16 
REMARK    8  A    between atoms: N4_27  and  O3_29 
ROOT
HETATM    1  O1  UNL     1       5.358  -1.793   3.477  1.00  0.00    -0.268 OA
HETATM    2  C1  UNL     1       5.139  -1.281   2.314  1.00  0.00     0.248 C 
HETATM    3  N3  UNL     1       6.090  -1.535   1.345  1.00  0.00    -0.304 N 
HETATM    4  C20 UNL     1       6.724  -2.890   1.222  1.00  0.00     0.219 C 
HETATM    5  C21 UNL     1       6.277  -3.286  -0.176  1.00  0.00     0.162 C 
HETATM    6  N4  UNL     1       5.628  -4.357  -0.416  1.00  0.00    -0.249 N 
ATOM      7  H4  UNL     1       5.343  -4.591  -1.367  1.00  0.00     0.196 HD
HETATM    8  O4  UNL     1       6.638  -2.369  -1.186  1.00  0.00    -0.292 OA
HETATM    9  C22 UNL     1       6.731  -1.005  -0.928  1.00  0.00     0.106 A 
HETATM   10  C23 UNL     1       7.081  -0.059  -1.840  1.00  0.00     0.071 A 
HETATM   11  C24 UNL     1       7.166   1.294  -1.506  1.00  0.00     0.066 A 
HETATM   12  N5  UNL     1       7.486   2.390  -2.213  1.00  0.00    -0.306 N 
ATOM     13  H5  UNL     1       7.739   2.396  -3.201  1.00  0.00     0.170 HD
HETATM   14  C25 UNL     1       7.423   3.492  -1.416  1.00  0.00     0.325 A 
HETATM   15  O5  UNL     1       7.668   4.681  -1.781  1.00  0.00    -0.247 OA
HETATM   16  N6  UNL     1       7.058   3.046  -0.212  1.00  0.00    -0.306 N 
ATOM     17  H6  UNL     1       6.923   3.637   0.608  1.00  0.00     0.170 HD
HETATM   18  C26 UNL     1       6.893   1.712  -0.228  1.00  0.00     0.065 A 
HETATM   19  C27 UNL     1       6.535   0.765   0.703  1.00  0.00     0.064 A 
HETATM   20  C28 UNL     1       6.452  -0.581   0.358  1.00  0.00     0.074 A 
ENDROOT
BRANCH   2  21
HETATM   21  C2  UNL     1       3.935  -0.523   2.184  1.00  0.00     0.076 C 
HETATM   22  C3  UNL     1       3.411   0.032   1.117  1.00  0.00     0.023 C 
BRANCH  22  23
HETATM   23  C4  UNL     1       2.123   0.796   1.222  1.00  0.00     0.095 C 
BRANCH  23  24
HETATM   24  N1  UNL     1       1.063   0.266   0.461  1.00  0.00    -0.346 N 
HETATM   25  C5  UNL     1       1.110   0.295  -0.937  1.00  0.00     0.073 C 
HETATM   26  C6  UNL     1       0.075  -0.588  -1.610  1.00  0.00     0.084 C 
HETATM   27  C7  UNL     1      -1.231  -0.204  -1.020  1.00  0.00    -0.042 A 
HETATM   28  C8  UNL     1      -2.362  -0.001  -1.805  1.00  0.00     0.011 A 
HETATM   29  C18 UNL     1      -1.280  -0.044   0.345  1.00  0.00    -0.011 A 
HETATM   30  C9  UNL     1      -3.535   0.365  -1.189  1.00  0.00     0.037 A 
HETATM   31  C10 UNL     1      -3.623   0.535   0.169  1.00  0.00     0.069 A 
HETATM   32  C17 UNL     1      -2.472   0.324   0.923  1.00  0.00     0.050 A 
HETATM   33  C19 UNL     1      -0.045  -0.286   1.128  1.00  0.00     0.107 C 
BRANCH  31  34
HETATM   34  O2  UNL     1      -4.726   0.893   0.873  1.00  0.00    -0.349 OA
BRANCH  34  35
HETATM   35  C11 UNL     1      -6.020   1.175   0.533  1.00  0.00     0.206 C 
BRANCH  35  36
HETATM   36  C12 UNL     1      -6.830   0.106  -0.104  1.00  0.00     0.299 C 
BRANCH  36  37
HETATM   37  N2  UNL     1      -8.171   0.645  -0.372  1.00  0.00     0.090 N 
HETATM   38  C13 UNL     1      -8.887   0.890   0.864  1.00  0.00     0.272 C 
HETATM   39  C14 UNL     1     -10.314   1.109   0.343  1.00  0.00     0.032 C 
HETATM   40  C15 UNL     1     -10.413   0.014  -0.696  1.00  0.00     0.032 C 
HETATM   41  C16 UNL     1      -8.986  -0.354  -1.045  1.00  0.00     0.272 C 
ENDBRANCH  36  37
ENDBRANCH  35  36
ENDBRANCH  34  35
ENDBRANCH  31  34
ENDBRANCH  23  24
ENDBRANCH  22  23
ENDBRANCH   2  21
BRANCH   6  42
HETATM   42  O3  UNL     1       5.324  -5.178   0.619  1.00  0.00    -0.288 OA
ATOM     43  H3  UNL     1       4.840  -5.976   0.440  1.00  0.00     0.244 HD
ENDBRANCH   6  42
TORSDOF 8
