REMARK  8 active torsions:
REMARK  status: ('A' for Active; 'I' for Inactive)
REMARK    1  A    between atoms: C2_2  and  C3_3 
REMARK    2  A    between atoms: C5_9  and  O1_10 
REMARK    3  A    between atoms: C5_9  and  N3_12 
REMARK    4  A    between atoms: N3_12  and  C6_13 
REMARK    5  A    between atoms: N3_12  and  C11_21 
REMARK       I    between atoms: N6_28  and  C16_29 
REMARK    6  A    between atoms: C16_29  and  C17_31 
REMARK    7  A    between atoms: C17_31  and  C18_32 
REMARK    8  A    between atoms: C18_32  and  C19_33 
ROOT
HETATM    1  C3  UNL     1       1.259  -0.547   0.757  1.00  0.00     0.124 A 
HETATM    2  N1  UNL     1       0.747  -0.086   1.973  1.00  0.00    -0.285 N 
ATOM      3  H1  UNL     1       1.277   0.103   2.824  1.00  0.00     0.188 HD
HETATM    4  N2  UNL     1      -0.545   0.056   1.809  1.00  0.00    -0.281 N 
ATOM      5  H2  UNL     1      -1.172   0.380   2.545  1.00  0.00     0.188 HD
HETATM    6  C4  UNL     1      -0.956  -0.265   0.588  1.00  0.00     0.173 A 
HETATM    7  C5  UNL     1      -2.237  -0.194  -0.049  1.00  0.00     0.185 C 
HETATM    8  N5  UNL     1       0.229  -0.635  -0.021  1.00  0.00    -0.325 N 
ATOM      9  H5  UNL     1       0.286  -0.947  -0.990  1.00  0.00     0.169 HD
ENDROOT
BRANCH   7  10
HETATM   10  O1  UNL     1      -2.255  -0.802  -1.212  1.00  0.00    -0.343 OA
ATOM     11  H1  UNL     1      -3.105  -0.755  -1.634  1.00  0.00     0.219 HD
ENDBRANCH   7  10
BRANCH   7  12
HETATM   12  N3  UNL     1      -3.477   0.380   0.304  1.00  0.00    -0.349 N 
BRANCH  12  13
HETATM   13  C6  UNL     1      -4.597   0.040  -0.543  1.00  0.00     0.090 C 
HETATM   14  C7  UNL     1      -5.429  -0.999   0.243  1.00  0.00     0.052 C 
HETATM   15  C8  UNL     1      -6.408  -1.648  -0.699  1.00  0.00     0.234 C 
HETATM   16  N4  UNL     1      -7.254  -0.642  -1.325  1.00  0.00    -0.075 N 
HETATM   17  C9  UNL     1      -6.454   0.272  -2.100  1.00  0.00     0.234 C 
ATOM     18  H42 UNL     1      -7.998  -1.063  -1.882  1.00  0.00     0.277 HD
ATOM     19  H41 UNL     1      -7.835  -0.155  -0.642  1.00  0.00     0.277 HD
HETATM   20  C10 UNL     1      -5.495   1.007  -1.121  1.00  0.00     0.052 C 
ENDBRANCH  12  13
BRANCH  12  21
HETATM   21  C11 UNL     1      -3.541   1.297   1.388  1.00  0.00     0.087 A 
HETATM   22  C12 UNL     1      -4.703   1.766   2.112  1.00  0.00     0.027 A 
HETATM   23  C13 UNL     1      -4.076   2.715   1.054  1.00  0.00     0.027 A 
ENDBRANCH  12  21
ENDBRANCH   7  12
BRANCH   1  24
HETATM   24  C2  UNL     1       2.716  -0.778   0.683  1.00  0.00     0.108 C 
HETATM   25  C1  UNL     1       3.416   0.536   1.151  1.00  0.00     0.044 C 
HETATM   26  C14 UNL     1       3.188  -1.871   1.654  1.00  0.00     0.058 C 
HETATM   27  C15 UNL     1       4.217  -2.611   0.800  1.00  0.00     0.150 C 
HETATM   28  N6  UNL     1       4.576  -1.562  -0.145  1.00  0.00    -0.264 N 
HETATM   29  C16 UNL     1       5.861  -1.139  -0.440  1.00  0.00     0.235 C 
HETATM   30  N7  UNL     1       3.288  -1.125  -0.577  1.00  0.00    -0.118 NA
HETATM   31  O2  UNL     1       6.892  -1.674   0.137  1.00  0.00    -0.272 OA
BRANCH  29  32
HETATM   32  C17 UNL     1       6.249  -0.066  -1.409  1.00  0.00     0.113 C 
BRANCH  32  33
HETATM   33  C18 UNL     1       7.627   0.487  -1.026  1.00  0.00     0.126 C 
BRANCH  33  34
HETATM   34  C19 UNL     1       8.003   1.534  -2.017  1.00  0.00     0.388 C 
HETATM   35  F1  UNL     1       9.255   2.054  -1.650  1.00  0.00    -0.171 F 
HETATM   36  F2  UNL     1       8.203   0.903  -3.237  1.00  0.00    -0.171 F 
HETATM   37  F3  UNL     1       7.099   2.559  -2.129  1.00  0.00    -0.171 F 
ENDBRANCH  33  34
ENDBRANCH  32  33
ENDBRANCH  29  32
ENDBRANCH   1  24
TORSDOF 8
