REMARK  12 active torsions:
REMARK  status: ('A' for Active; 'I' for Inactive)
REMARK    1  A    between atoms: N1_1  and  C1_4 
REMARK    2  A    between atoms: C2_7  and  N3_8 
REMARK    3  A    between atoms: N3_8  and  O1_10 
REMARK    4  A    between atoms: C3_14  and  N5_15 
REMARK       I    between atoms: N5_15  and  C4_17 
REMARK    5  A    between atoms: C4_17  and  C5_19 
REMARK    6  A    between atoms: N8_24  and  C7_25 
REMARK    7  A    between atoms: C7_25  and  C8_26 
REMARK    8  A    between atoms: C8_26  and  N9_27 
REMARK    9  A    between atoms: C10_32  and  O3_33 
REMARK   10  A    between atoms: C11_35  and  C12_36 
REMARK   11  A    between atoms: C12_36  and  O4_37 
REMARK   12  A    between atoms: O4_37  and  N10_38 
ROOT
HETATM    1  C5  UNL     1      -0.033  -0.476  -0.839  1.00  0.00     0.185 C 
HETATM    2  N6  UNL     1      -0.169  -0.082   0.576  1.00  0.00    -0.351 N 
ATOM      3  H6  UNL     1       0.646  -0.124   1.188  1.00  0.00     0.163 HD
HETATM    4  C6  UNL     1      -1.319   0.322   1.063  1.00  0.00     0.187 C 
HETATM    5  N7  UNL     1      -1.318   0.676   2.453  1.00  0.00    -0.064 NA
HETATM    6  N8  UNL     1      -2.576   0.459   0.400  1.00  0.00    -0.352 N 
HETATM    7  C9  UNL     1      -2.770   0.379  -1.033  1.00  0.00     0.157 C 
HETATM    8  C10 UNL     1      -2.362  -0.902  -1.658  1.00  0.00     0.144 C 
HETATM    9  C11 UNL     1      -1.070  -1.492  -1.096  1.00  0.00     0.074 C 
ENDROOT
BRANCH   1  10
HETATM   10  C4  UNL     1       1.351  -0.803  -1.126  1.00  0.00     0.259 C 
HETATM   11  N5  UNL     1       2.307  -0.795  -0.075  1.00  0.00    -0.157 N 
ATOM     12  H5  UNL     1       2.287  -1.584   0.571  1.00  0.00     0.187 HD
HETATM   13  O2  UNL     1       1.779  -1.102  -2.270  1.00  0.00    -0.270 OA
BRANCH  11  14
HETATM   14  C3  UNL     1       3.181   0.096   0.138  1.00  0.00     0.714 A 
HETATM   15  N4  UNL     1       3.999  -0.093   1.206  1.00  0.00    -0.019 N 
HETATM   16  C2  UNL     1       4.953   0.784   1.518  1.00  0.00     0.731 A 
ATOM     17  H4  UNL     1       3.880  -0.926   1.783  1.00  0.00     0.203 HD
HETATM   18  N2  UNL     1       5.134   1.885   0.787  1.00  0.00    -0.020 N 
HETATM   19  C1  UNL     1       4.341   2.098  -0.273  1.00  0.00     0.705 A 
ATOM     20  H2  UNL     1       5.864   2.554   1.031  1.00  0.00     0.203 HD
HETATM   21  N11 UNL     1       3.380   1.209  -0.584  1.00  0.00    -0.021 N 
ATOM     22  H11 UNL     1       2.785   1.387  -1.393  1.00  0.00     0.203 HD
BRANCH  16  23
HETATM   23  N3  UNL     1       5.720   0.586   2.537  1.00  0.00    -0.098 N 
ATOM     24  H3  UNL     1       6.446   1.264   2.768  1.00  0.00     0.213 HD
BRANCH  23  25
HETATM   25  O1  UNL     1       5.560  -0.526   3.302  1.00  0.00    -0.276 OA
ATOM     26  H1  UNL     1       6.125  -0.672   4.052  1.00  0.00     0.245 HD
ENDBRANCH  23  25
ENDBRANCH  16  23
BRANCH  19  27
HETATM   27  N1  UNL     1       4.552   3.177  -0.952  1.00  0.00    -0.234 N 
ATOM     28  H12 UNL     1       5.280   3.851  -0.716  1.00  0.00     0.174 HD
ATOM     29  H11 UNL     1       3.949   3.339  -1.758  1.00  0.00     0.174 HD
ENDBRANCH  19  27
ENDBRANCH  11  14
ENDBRANCH   1  10
BRANCH   9  30
HETATM   30  C12 UNL     1      -0.713  -2.656  -1.951  1.00  0.00     0.210 C 
BRANCH  30  31
HETATM   31  O4  UNL     1       0.344  -3.417  -1.416  1.00  0.00    -0.287 OA
BRANCH  31  32
HETATM   32  N10 UNL     1       0.633  -4.462  -2.227  1.00  0.00    -0.311 N 
ATOM     33 2H10 UNL     1       0.144  -4.657  -3.101  1.00  0.00     0.184 HD
ATOM     34 1H10 UNL     1       1.399  -5.013  -1.839  1.00  0.00     0.184 HD
ENDBRANCH  31  32
ENDBRANCH  30  31
ENDBRANCH   9  30
BRANCH   8  35
HETATM   35  O3  UNL     1      -3.369  -1.869  -1.433  1.00  0.00    -0.393 OA
ATOM     36  H3  UNL     1      -3.108  -2.690  -1.833  1.00  0.00     0.210 HD
ENDBRANCH   8  35
BRANCH   6  37
HETATM   37  C7  UNL     1      -3.755   0.700   1.224  1.00  0.00     0.152 C 
BRANCH  37  38
HETATM   38  C8  UNL     1      -4.307   2.083   1.015  1.00  0.00     0.249 C 
BRANCH  38  39
HETATM   39  N9  UNL     1      -3.342   3.113   1.347  1.00  0.00    -0.078 N 
ATOM     40  H93 UNL     1      -2.989   2.996   2.297  1.00  0.00     0.274 HD
ATOM     41  H92 UNL     1      -2.471   2.982   0.833  1.00  0.00     0.274 HD
ATOM     42  H91 UNL     1      -3.716   4.051   1.205  1.00  0.00     0.274 HD
ENDBRANCH  38  39
ENDBRANCH  37  38
ENDBRANCH   6  37
TORSDOF 12
