REMARK  11 active torsions:
REMARK  status: ('A' for Active; 'I' for Inactive)
REMARK    1  A    between atoms: N1_2  and  C2_5 
REMARK       I    between atoms: N2_9  and  C6_10 
REMARK    2  A    between atoms: C6_10  and  C7_12 
REMARK    3  A    between atoms: C7_12  and  C8_13 
REMARK    4  A    between atoms: C8_13  and  C9_14 
REMARK    5  A    between atoms: C9_14  and  C10_15 
REMARK    6  A    between atoms: C10_15  and  C11_16 
REMARK    7  A    between atoms: C11_16  and  N3_17 
REMARK    8  A    between atoms: C13_22  and  C14_23 
REMARK    9  A    between atoms: C14_23  and  C15_24 
REMARK   10  A    between atoms: C16_25  and  C17_26 
REMARK   11  A    between atoms: C19_33  and  O3_34 
ROOT
HETATM    1  N3  UNL     1       0.121   0.304   1.414  1.00  0.00    -0.356 N 
ATOM      2  H3  UNL     1      -0.770  -0.047   1.063  1.00  0.00     0.163 HD
HETATM    3  C12 UNL     1       1.202  -0.093   0.843  1.00  0.00     0.215 C 
HETATM    4  N4  UNL     1       2.530   0.277   1.183  1.00  0.00    -0.349 N 
ATOM      5  H4  UNL     1       2.835   0.703   2.058  1.00  0.00     0.163 HD
HETATM    6  C13 UNL     1       3.365  -0.062   0.059  1.00  0.00     0.112 C 
HETATM    7  C20 UNL     1       2.469  -0.680  -0.952  1.00  0.00     0.204 C 
HETATM    8  O4  UNL     1       1.279  -0.987  -0.248  1.00  0.00    -0.320 OA
ENDROOT
BRANCH   1   9
HETATM    9  C11 UNL     1       0.107   1.213   2.517  1.00  0.00     0.123 C 
BRANCH   9  10
HETATM   10  C10 UNL     1      -1.249   1.624   3.007  1.00  0.00     0.020 C 
BRANCH  10  11
HETATM   11  C9  UNL     1      -2.125   0.550   3.515  1.00  0.00     0.002 C 
BRANCH  11  12
HETATM   12  C8  UNL     1      -2.549  -0.522   2.588  1.00  0.00     0.009 C 
BRANCH  12  13
HETATM   13  C7  UNL     1      -3.331  -0.105   1.391  1.00  0.00     0.103 C 
BRANCH  13  14
HETATM   14  C6  UNL     1      -4.620   0.555   1.682  1.00  0.00     0.221 C 
HETATM   15  N2  UNL     1      -5.425   1.079   0.647  1.00  0.00    -0.324 N 
HETATM   16  C2  UNL     1      -5.121   1.052  -0.770  1.00  0.00     0.288 C 
HETATM   17  C5  UNL     1      -6.700   1.733   0.839  1.00  0.00     0.128 C 
HETATM   18  C3  UNL     1      -6.226   1.816  -1.464  1.00  0.00     0.056 C 
HETATM   19  C4  UNL     1      -7.394   1.607  -0.524  1.00  0.00     0.024 C 
HETATM   20  O1  UNL     1      -5.007   0.652   2.865  1.00  0.00    -0.273 OA
BRANCH  16  21
HETATM   21  N1  UNL     1      -5.199  -0.335  -1.236  1.00  0.00    -0.058 N 
HETATM   22  C1  UNL     1      -4.972  -0.447  -2.645  1.00  0.00     0.269 C 
ATOM     23  H12 UNL     1      -6.085  -0.764  -0.970  1.00  0.00     0.279 HD
ATOM     24  H11 UNL     1      -4.564  -0.936  -0.711  1.00  0.00     0.279 HD
ENDBRANCH  16  21
ENDBRANCH  13  14
ENDBRANCH  12  13
ENDBRANCH  11  12
ENDBRANCH  10  11
ENDBRANCH   9  10
ENDBRANCH   1   9
BRANCH   6  25
HETATM   25  C14 UNL     1       4.454  -1.001   0.539  1.00  0.00     0.054 C 
BRANCH  25  26
HETATM   26  C15 UNL     1       5.352  -1.387  -0.601  1.00  0.00    -0.022 C 
HETATM   27  C16 UNL     1       6.619  -1.089  -0.522  1.00  0.00     0.030 C 
BRANCH  27  28
HETATM   28  C17 UNL     1       7.613  -1.392  -1.536  1.00  0.00     0.087 A 
HETATM   29  N5  UNL     1       8.925  -1.062  -1.412  1.00  0.00    -0.305 N 
HETATM   30  C18 UNL     1       9.607  -1.461  -2.493  1.00  0.00     0.326 A 
ATOM     31  H5  UNL     1       9.332  -0.580  -0.611  1.00  0.00     0.171 HD
HETATM   32  O2  UNL     1      10.855  -1.317  -2.716  1.00  0.00    -0.247 OA
HETATM   33  N6  UNL     1       8.743  -2.054  -3.323  1.00  0.00    -0.287 N 
HETATM   34  C19 UNL     1       7.522  -2.018  -2.749  1.00  0.00     0.171 A 
ATOM     35  H6  UNL     1       8.967  -2.462  -4.231  1.00  0.00     0.172 HD
BRANCH  34  36
HETATM   36  O3  UNL     1       6.342  -2.533  -3.296  1.00  0.00    -0.344 OA
ATOM     37  H3  UNL     1       6.279  -2.968  -4.138  1.00  0.00     0.219 HD
ENDBRANCH  34  36
ENDBRANCH  27  28
ENDBRANCH  25  26
ENDBRANCH   6  25
TORSDOF 11
