REMARK  5 active torsions:
REMARK  status: ('A' for Active; 'I' for Inactive)
REMARK    1  A    between atoms: C3_4  and  O2_5 
REMARK    2  A    between atoms: O2_5  and  C4_6 
REMARK    3  A    between atoms: C4_6  and  C5_7 
REMARK    4  A    between atoms: C12_14  and  C13_15 
REMARK    5  A    between atoms: C16_18  and  C17_19 
ROOT
HETATM    1  O1  UNL     1      -3.618  -3.425  -2.098  1.00  0.00    -0.293 OA
HETATM    2  C1  UNL     1      -3.027  -2.449  -1.627  1.00  0.00     0.159 C 
HETATM    3  C2  UNL     1      -3.338  -1.908  -0.315  1.00  0.00     0.088 C 
HETATM    4  C3  UNL     1      -2.410  -1.286   0.388  1.00  0.00     0.086 C 
HETATM    5  C11 UNL     1      -1.015  -1.113  -0.110  1.00  0.00     0.044 C 
HETATM    6  C12 UNL     1      -0.119  -0.521   0.626  1.00  0.00     0.029 C 
HETATM    7  C23 UNL     1      -0.769  -1.685  -1.408  1.00  0.00     0.169 C 
HETATM    8  O5  UNL     1       0.346  -2.136  -1.742  1.00  0.00    -0.292 OA
HETATM    9  C24 UNL     1      -1.925  -1.734  -2.384  1.00  0.00     0.167 C 
ENDROOT
BRANCH   4  10
HETATM   10  O2  UNL     1      -2.662  -0.751   1.644  1.00  0.00    -0.346 OA
BRANCH  10  11
HETATM   11  C4  UNL     1      -3.138   0.580   1.716  1.00  0.00     0.214 C 
BRANCH  11  12
HETATM   12  C5  UNL     1      -4.429   0.771   1.011  1.00  0.00    -0.034 A 
HETATM   13  C6  UNL     1      -4.453   1.272  -0.275  1.00  0.00     0.009 A 
HETATM   14  C7  UNL     1      -5.618   1.471  -0.990  1.00  0.00     0.001 A 
HETATM   15  C8  UNL     1      -6.793   1.138  -0.344  1.00  0.00     0.000 A 
HETATM   16  C9  UNL     1      -6.826   0.636   0.935  1.00  0.00     0.001 A 
HETATM   17  C10 UNL     1      -5.634   0.458   1.600  1.00  0.00     0.009 A 
ENDBRANCH  11  12
ENDBRANCH  10  11
ENDBRANCH   4  10
BRANCH   6  18
HETATM   18  C13 UNL     1       1.252  -0.293   0.239  1.00  0.00    -0.035 A 
HETATM   19  C14 UNL     1       1.619   0.347  -0.940  1.00  0.00     0.012 A 
HETATM   20  C15 UNL     1       2.932   0.552  -1.284  1.00  0.00     0.012 A 
HETATM   21  C16 UNL     1       3.963   0.122  -0.454  1.00  0.00    -0.035 A 
HETATM   22  C21 UNL     1       3.631  -0.508   0.707  1.00  0.00     0.012 A 
HETATM   23  C22 UNL     1       2.312  -0.702   1.030  1.00  0.00     0.012 A 
BRANCH  21  24
HETATM   24  C17 UNL     1       5.359   0.331  -0.824  1.00  0.00     0.036 C 
HETATM   25  C18 UNL     1       6.314   0.715  -0.037  1.00  0.00     0.079 A 
HETATM   26  S1  UNL     1       6.158   1.084   1.695  1.00  0.00    -0.024 SA
HETATM   27  C20 UNL     1       7.705   0.942  -0.337  1.00  0.00     0.266 A 
HETATM   28  C19 UNL     1       7.912   1.296   2.011  1.00  0.00     0.291 A 
HETATM   29  O3  UNL     1       8.439   1.454   3.146  1.00  0.00    -0.260 OA
HETATM   30  N1  UNL     1       8.520   1.242   0.739  1.00  0.00    -0.283 N 
ATOM     31  H1  UNL     1       9.518   1.417   0.618  1.00  0.00     0.172 HD
HETATM   32  O4  UNL     1       8.125   0.860  -1.550  1.00  0.00    -0.267 OA
ENDBRANCH  21  24
ENDBRANCH   6  18
TORSDOF 5
