REMARK  6 active torsions:
REMARK  status: ('A' for Active; 'I' for Inactive)
REMARK    1  A    between atoms: N1_2  and  C2_5 
REMARK    2  A    between atoms: C2_5  and  C3_6 
REMARK    3  A    between atoms: C3_6  and  C4_12 
REMARK    4  A    between atoms: N2_7  and  N3_9 
REMARK    5  A    between atoms: C6_19  and  C7_20 
REMARK    6  A    between atoms: C10_28  and  O3_29 
ROOT
HETATM    1  C4  UNL     1      -0.889  -1.220   0.726  1.00  0.00     0.438 C 
HETATM    2  N4  UNL     1       0.069  -0.161   0.554  1.00  0.00    -0.018 N 
ATOM      3  H41 UNL     1      -0.091   0.636   1.170  1.00  0.00     0.282 HD
ATOM      4  H42 UNL     1      -0.034   0.341  -0.328  1.00  0.00     0.282 HD
HETATM    5  C5  UNL     1       1.392  -0.777   0.725  1.00  0.00     0.312 C 
HETATM    6  N5  UNL     1       2.380   0.147   1.161  1.00  0.00    -0.374 N 
ATOM      7  H5  UNL     1       2.809   0.095   2.085  1.00  0.00     0.156 HD
HETATM    8  C6  UNL     1       2.728   1.152   0.212  1.00  0.00     0.261 C 
HETATM    9  C8  UNL     1       3.178   0.481  -1.038  1.00  0.00     0.249 C 
HETATM   10  O2  UNL     1       4.164   0.894  -1.701  1.00  0.00    -0.271 OA
HETATM   11  N7  UNL     1       2.440  -0.663  -1.462  1.00  0.00    -0.345 N 
ATOM     12  H7  UNL     1       2.429  -0.899  -2.454  1.00  0.00     0.163 HD
HETATM   13  C9  UNL     1       1.710  -1.497  -0.544  1.00  0.00     0.213 C 
HETATM   14  C10 UNL     1       0.405  -2.006  -1.139  1.00  0.00     0.340 C 
HETATM   15  C11 UNL     1       0.644  -3.239  -1.913  1.00  0.00     0.131 C 
HETATM   16  N8  UNL     1       0.839  -4.201  -2.529  1.00  0.00    -0.192 NA
HETATM   17  N9  UNL     1      -0.442  -2.374  -0.021  1.00  0.00     0.007 N 
ATOM     18  H91 UNL     1      -1.230  -2.944  -0.327  1.00  0.00     0.285 HD
ATOM     19  H92 UNL     1       0.021  -3.051   0.586  1.00  0.00     0.285 HD
ENDROOT
BRANCH  14  20
HETATM   20  O3  UNL     1      -0.121  -1.002  -1.918  1.00  0.00    -0.352 OA
ATOM     21  H3  UNL     1      -0.936  -1.320  -2.289  1.00  0.00     0.213 HD
ENDBRANCH  14  20
BRANCH   1  22
HETATM   22  C3  UNL     1      -2.254  -0.868   0.309  1.00  0.00     0.086 C 
HETATM   23  N2  UNL     1      -2.787  -1.561  -0.619  1.00  0.00    -0.310 N 
ATOM     24  H2  UNL     1      -2.264  -2.328  -1.042  1.00  0.00     0.185 HD
BRANCH  22  25
HETATM   25  C2  UNL     1      -3.044   0.229   0.891  1.00  0.00     0.289 C 
BRANCH  25  26
HETATM   26  N1  UNL     1      -2.420   1.522   0.743  1.00  0.00    -0.074 N 
HETATM   27  C1  UNL     1      -3.328   2.491   1.369  1.00  0.00     0.267 C 
ATOM     28  H12 UNL     1      -2.186   1.751  -0.223  1.00  0.00     0.277 HD
ATOM     29  H11 UNL     1      -1.470   1.558   1.114  1.00  0.00     0.277 HD
ENDBRANCH  25  26
ENDBRANCH  22  25
BRANCH  23  30
HETATM   30  N3  UNL     1      -4.065  -1.281  -1.054  1.00  0.00    -0.345 N 
ATOM     31  H32 UNL     1      -4.574  -0.511  -0.620  1.00  0.00     0.176 HD
ATOM     32  H31 UNL     1      -4.491  -1.835  -1.796  1.00  0.00     0.176 HD
ENDBRANCH  23  30
ENDBRANCH   1  22
BRANCH   8  33
HETATM   33  C7  UNL     1       3.782   2.031   0.770  1.00  0.00     0.263 C 
HETATM   34  N6  UNL     1       4.313   3.118   0.027  1.00  0.00    -0.060 NA
HETATM   35  O1  UNL     1       4.208   1.797   1.930  1.00  0.00    -0.274 OA
ENDBRANCH   8  33
TORSDOF 6
