REMARK  6 active torsions:
REMARK  status: ('A' for Active; 'I' for Inactive)
REMARK    1  A    between atoms: O1_2  and  C2_3 
REMARK    2  A    between atoms: C2_3  and  C3_5 
REMARK    3  A    between atoms: C3_5  and  C6_8 
REMARK    4  A    between atoms: C6_8  and  C7_9 
REMARK    5  A    between atoms: C7_9  and  N1_10 
REMARK    6  A    between atoms: N3_15  and  C8_17 
ROOT
HETATM    1  C6  UNL     1       0.738   0.581  -0.269  1.00  0.00     0.040 C 
HETATM    2  N3  UNL     1      -0.133  -0.337  -0.176  1.00  0.00    -0.384 N 
ATOM      3  H3  UNL     1       0.161  -1.238   0.200  1.00  0.00     0.160 HD
ENDROOT
BRANCH   1   4
HETATM    4  C3  UNL     1       2.146   0.494   0.109  1.00  0.00     0.084 C 
HETATM    5  C4  UNL     1       2.545   1.586   1.110  1.00  0.00     0.032 C 
HETATM    6  C5  UNL     1       2.962   0.766  -1.164  1.00  0.00     0.032 C 
BRANCH   4   7
HETATM    7  C2  UNL     1       2.551  -0.815   0.650  1.00  0.00     0.272 C 
HETATM    8  O2  UNL     1       1.665  -1.676   0.859  1.00  0.00    -0.264 OA
BRANCH   7   9
HETATM    9  O1  UNL     1       3.860  -1.153   0.945  1.00  0.00    -0.326 OA
HETATM   10  C1  UNL     1       4.205  -2.443   1.473  1.00  0.00     0.213 C 
ENDBRANCH   7   9
ENDBRANCH   4   7
ENDBRANCH   1   4
BRANCH   1  11
HETATM   11  C7  UNL     1       0.281   1.871  -0.817  1.00  0.00     0.132 C 
BRANCH  11  12
HETATM   12  N1  UNL     1       0.461   2.959  -0.225  1.00  0.00    -0.317 N 
HETATM   13  N2  UNL     1       0.222   3.970   0.441  1.00  0.00    -0.345 N 
ATOM     14  H22 UNL     1      -0.765   3.775   0.607  1.00  0.00     0.176 HD
ATOM     15  H21 UNL     1       0.369   4.857   0.923  1.00  0.00     0.176 HD
ATOM     16  H1  UNL     1       1.451   3.106  -0.421  1.00  0.00     0.185 HD
ENDBRANCH  11  12
ENDBRANCH   1  11
BRANCH   2  17
HETATM   17  C8  UNL     1      -1.520  -0.186  -0.570  1.00  0.00     0.115 C 
HETATM   18  C9  UNL     1      -2.264   0.811   0.224  1.00  0.00     0.028 C 
HETATM   19  C10 UNL     1      -3.564   0.410   0.788  1.00  0.00     0.002 C 
HETATM   20  C11 UNL     1      -4.310  -0.671   0.118  1.00  0.00     0.003 C 
HETATM   21  C12 UNL     1      -3.582  -1.342  -1.019  1.00  0.00     0.039 C 
HETATM   22  C13 UNL     1      -2.156  -1.572  -0.562  1.00  0.00     0.192 C 
HETATM   23  F1  UNL     1      -1.494  -2.323  -1.494  1.00  0.00    -0.247 F 
ENDBRANCH   2  17
TORSDOF 6
