REMARK  7 active torsions:
REMARK  status: ('A' for Active; 'I' for Inactive)
REMARK    1  A    between atoms: N1_1  and  C1_4 
REMARK       I    between atoms: N4_13  and  C5_14 
REMARK    2  A    between atoms: C5_14  and  C6_16 
REMARK    3  A    between atoms: C6_16  and  O3_17 
REMARK    4  A    between atoms: C6_16  and  C7_19 
REMARK    5  A    between atoms: C7_19  and  C8_21 
REMARK    6  A    between atoms: C8_21  and  N5_22 
REMARK    7  A    between atoms: C8_21  and  C9_26 
ROOT
HETATM    1  C1  UNL     1      -3.934  -0.046   1.415  1.00  0.00     0.680 A 
HETATM    2  N2  UNL     1      -4.625   0.774   0.618  1.00  0.00    -0.154 N 
ATOM      3  H2  UNL     1      -5.566   1.058   0.890  1.00  0.00     0.187 HD
HETATM    4  C2  UNL     1      -4.110   1.230  -0.529  1.00  0.00     0.290 A 
HETATM    5  O1  UNL     1      -4.702   2.000  -1.320  1.00  0.00    -0.265 OA
HETATM    6  C3  UNL     1      -2.820   0.831  -0.890  1.00  0.00     0.148 A 
HETATM    7  N3  UNL     1      -2.089   1.131  -1.954  1.00  0.00    -0.344 N 
ATOM      8  H3  UNL     1      -2.364   1.737  -2.727  1.00  0.00     0.167 HD
HETATM    9  C4  UNL     1      -0.901   0.478  -1.820  1.00  0.00     0.194 A 
HETATM   10  N4  UNL     1      -0.858  -0.238  -0.686  1.00  0.00    -0.259 N 
HETATM   11  C5  UNL     1       0.139  -1.055  -0.130  1.00  0.00     0.267 C 
HETATM   12  O2  UNL     1      -0.101  -1.631   0.989  1.00  0.00    -0.269 OA
HETATM   13  C10 UNL     1      -2.074  -0.022  -0.084  1.00  0.00     0.163 A 
HETATM   14  N6  UNL     1      -2.673  -0.428   1.049  1.00  0.00    -0.174 N 
ATOM     15  H6  UNL     1      -2.159  -1.054   1.669  1.00  0.00     0.186 HD
ENDROOT
BRANCH  11  16
HETATM   16  C6  UNL     1       1.445  -1.305  -0.735  1.00  0.00     0.282 C 
BRANCH  16  17
HETATM   17  O3  UNL     1       1.672  -0.625  -1.890  1.00  0.00    -0.379 OA
ATOM     18  H3  UNL     1       2.521  -0.788  -2.283  1.00  0.00     0.211 HD
ENDBRANCH  16  17
BRANCH  16  19
HETATM   19  C7  UNL     1       2.564  -1.101   0.228  1.00  0.00     0.205 C 
HETATM   20  O4  UNL     1       2.557  -1.716   1.279  1.00  0.00    -0.292 OA
BRANCH  19  21
HETATM   21  C8  UNL     1       3.653  -0.168  -0.103  1.00  0.00     0.355 C 
BRANCH  21  22
HETATM   22  N5  UNL     1       4.802  -0.392   0.785  1.00  0.00    -0.058 N 
ATOM     23  H53 UNL     1       4.539  -0.337   1.769  1.00  0.00     0.275 HD
ATOM     24  H52 UNL     1       5.114  -1.363   0.767  1.00  0.00     0.275 HD
ATOM     25  H51 UNL     1       5.557   0.255   0.556  1.00  0.00     0.275 HD
ENDBRANCH  21  22
BRANCH  21  26
HETATM   26  C9  UNL     1       3.306   1.258   0.052  1.00  0.00     0.212 C 
HETATM   27  O5  UNL     1       3.955   1.982   0.836  1.00  0.00    -0.646 OA
HETATM   28  O6  UNL     1       2.273   1.825  -0.649  1.00  0.00    -0.646 OA
ENDBRANCH  21  26
ENDBRANCH  19  21
ENDBRANCH  16  19
ENDBRANCH  11  16
BRANCH   1  29
HETATM   29  N1  UNL     1      -4.411  -0.505   2.538  1.00  0.00    -0.234 N 
ATOM     30  H12 UNL     1      -5.352  -0.220   2.811  1.00  0.00     0.174 HD
ATOM     31  H11 UNL     1      -3.883  -1.131   3.146  1.00  0.00     0.174 HD
ENDBRANCH   1  29
TORSDOF 7
