REMARK  6 active torsions:
REMARK  status: ('A' for Active; 'I' for Inactive)
REMARK    1  A    between atoms: N1_2  and  C2_4 
REMARK    2  A    between atoms: C3_7  and  N3_8 
REMARK    3  A    between atoms: N3_8  and  N4_10 
REMARK    4  A    between atoms: N4_10  and  S1_12 
REMARK    5  A    between atoms: S1_12  and  C4_15 
REMARK    6  A    between atoms: C6_22  and  O3_23 
ROOT
HETATM    1  C2  UNL     1      -2.795   1.418  -0.588  1.00  0.00     0.681 A 
HETATM    2  N2  UNL     1      -1.437   1.359  -0.629  1.00  0.00    -0.172 N 
ATOM      3  H2  UNL     1      -0.901   2.196  -0.856  1.00  0.00     0.186 HD
HETATM    4  C3  UNL     1      -0.802   0.217  -0.375  1.00  0.00     0.173 A 
HETATM    5  C6  UNL     1      -1.595  -0.912  -0.068  1.00  0.00     0.157 A 
HETATM    6  C7  UNL     1      -2.958  -0.873  -0.021  1.00  0.00     0.154 A 
HETATM    7  N8  UNL     1      -3.794  -1.754   0.246  1.00  0.00    -0.378 N 
ATOM      8  H8  UNL     1      -4.749  -1.400   0.189  1.00  0.00     0.160 HD
HETATM    9  C8  UNL     1      -3.761  -3.092   0.601  1.00  0.00     0.147 C 
HETATM   10  N9  UNL     1      -3.533   0.362  -0.300  1.00  0.00    -0.174 N 
ATOM     11  H9  UNL     1      -4.549   0.454  -0.282  1.00  0.00     0.186 HD
ENDROOT
BRANCH   4  12
HETATM   12  N3  UNL     1       0.633   0.143  -0.406  1.00  0.00    -0.273 N 
ATOM     13  H3  UNL     1       1.085  -0.382  -1.154  1.00  0.00     0.189 HD
BRANCH  12  14
HETATM   14  N4  UNL     1       1.421   0.764   0.550  1.00  0.00    -0.219 N 
ATOM     15  H4  UNL     1       1.302   1.753   0.767  1.00  0.00     0.200 HD
BRANCH  14  16
HETATM   16  S1  UNL     1       2.577  -0.161   1.339  1.00  0.00     0.309 S 
HETATM   17  O1  UNL     1       2.550   0.175   2.822  1.00  0.00    -0.196 OA
HETATM   18  O2  UNL     1       2.242  -1.623   1.190  1.00  0.00    -0.196 OA
BRANCH  16  19
HETATM   19  C4  UNL     1       4.193   0.108   0.728  1.00  0.00     0.234 C 
HETATM   20  N5  UNL     1       5.029   1.031   1.150  1.00  0.00    -0.349 N 
HETATM   21  C5  UNL     1       6.258   0.910   0.380  1.00  0.00     0.258 C 
ATOM     22  H5  UNL     1       4.848   1.712   1.887  1.00  0.00     0.163 HD
HETATM   23  N6  UNL     1       6.192  -0.414  -0.197  1.00  0.00    -0.120 NA
HETATM   24  N7  UNL     1       4.815  -0.635  -0.306  1.00  0.00    -0.277 N 
ATOM     25  H7  UNL     1       4.347  -1.220  -0.998  1.00  0.00     0.184 HD
ENDBRANCH  16  19
ENDBRANCH  14  16
ENDBRANCH  12  14
ENDBRANCH   4  12
BRANCH   5  26
HETATM   26  O3  UNL     1      -0.896  -2.040   0.175  1.00  0.00    -0.354 OA
ATOM     27  H3  UNL     1      -1.429  -2.799   0.381  1.00  0.00     0.218 HD
ENDBRANCH   5  26
BRANCH   1  28
HETATM   28  N1  UNL     1      -3.354   2.561  -0.843  1.00  0.00    -0.230 N 
HETATM   29  C1  UNL     1      -4.801   2.690  -0.812  1.00  0.00     0.165 C 
ATOM     30  H1  UNL     1      -2.776   3.371  -1.066  1.00  0.00     0.177 HD
ENDBRANCH   1  28
TORSDOF 6
