REMARK  10 active torsions:
REMARK  status: ('A' for Active; 'I' for Inactive)
REMARK    1  A    between atoms: O1_2  and  C2_3 
REMARK    2  A    between atoms: C2_3  and  C3_5 
REMARK    3  A    between atoms: C4_8  and  N2_9 
REMARK    4  A    between atoms: C5_14  and  N4_15 
REMARK    5  A    between atoms: C6_18  and  O3_19 
REMARK    6  A    between atoms: O3_19  and  C7_20 
REMARK    7  A    between atoms: C7_20  and  N5_21 
REMARK    8  A    between atoms: C7_20  and  C8_25 
REMARK    9  A    between atoms: C8_25  and  C9_30 
REMARK   10  A    between atoms: N6_26  and  O4_28 
ROOT
HETATM    1  C3  UNL     1      -1.646   0.488  -0.161  1.00  0.00     0.161 A 
HETATM    2  N1  UNL     1      -2.800   1.216   0.052  1.00  0.00    -0.183 N 
ATOM      3  H1  UNL     1      -3.691   0.725   0.125  1.00  0.00     0.184 HD
HETATM    4  C4  UNL     1      -2.780   2.546   0.165  1.00  0.00     0.678 A 
HETATM    5  N3  UNL     1      -1.609   3.178   0.065  1.00  0.00    -0.174 N 
ATOM      6  H3  UNL     1      -1.602   4.194   0.150  1.00  0.00     0.186 HD
HETATM    7  C5  UNL     1      -0.415   2.538  -0.146  1.00  0.00     0.151 A 
HETATM    8  C6  UNL     1      -0.444   1.150  -0.258  1.00  0.00     0.149 A 
ENDROOT
BRANCH   8   9
HETATM    9  O3  UNL     1       0.783   0.521  -0.462  1.00  0.00    -0.306 OA
BRANCH   9  10
HETATM   10  C7  UNL     1       1.612  -0.012   0.524  1.00  0.00     0.382 C 
BRANCH  10  11
HETATM   11  N5  UNL     1       2.408   1.007   1.222  1.00  0.00    -0.047 N 
ATOM     12  H53 UNL     1       2.945   1.566   0.559  1.00  0.00     0.277 HD
ATOM     13  H52 UNL     1       1.808   1.736   1.607  1.00  0.00     0.277 HD
ATOM     14  H51 UNL     1       3.015   0.617   1.943  1.00  0.00     0.277 HD
ENDBRANCH  10  11
BRANCH  10  15
HETATM   15  C8  UNL     1       2.480  -1.054  -0.023  1.00  0.00     0.152 C 
HETATM   16  N6  UNL     1       2.518  -2.260   0.483  1.00  0.00    -0.264 N 
ATOM     17  H6  UNL     1       3.128  -2.979   0.093  1.00  0.00     0.194 HD
BRANCH  16  18
HETATM   18  O4  UNL     1       1.707  -2.522   1.558  1.00  0.00    -0.289 OA
ATOM     19  H4  UNL     1       1.735  -3.398   1.925  1.00  0.00     0.244 HD
ENDBRANCH  16  18
BRANCH  15  20
HETATM   20  C9  UNL     1       3.376  -0.831  -1.160  1.00  0.00     0.283 C 
HETATM   21  N7  UNL     1       4.226  -1.827  -1.689  1.00  0.00    -0.056 NA
HETATM   22  O5  UNL     1       3.372   0.315  -1.677  1.00  0.00    -0.270 OA
ENDBRANCH  15  20
ENDBRANCH  10  15
ENDBRANCH   9  10
ENDBRANCH   8   9
BRANCH   1  23
HETATM   23  C2  UNL     1      -1.775  -0.945  -0.304  1.00  0.00     0.313 C 
HETATM   24  O2  UNL     1      -0.832  -1.695  -0.521  1.00  0.00    -0.258 OA
BRANCH  23  25
HETATM   25  O1  UNL     1      -3.034  -1.540  -0.194  1.00  0.00    -0.321 OA
HETATM   26  C1  UNL     1      -3.190  -2.937  -0.330  1.00  0.00     0.213 C 
ENDBRANCH  23  25
ENDBRANCH   1  23
BRANCH   7  27
HETATM   27  N4  UNL     1       0.603   3.282  -0.272  1.00  0.00    -0.383 N 
ATOM     28  H42 UNL     1       0.624   4.298  -0.190  1.00  0.00     0.157 HD
ATOM     29  H41 UNL     1       1.491   2.806  -0.429  1.00  0.00     0.157 HD
ENDBRANCH   7  27
BRANCH   4  30
HETATM   30  N2  UNL     1      -3.887   3.219   0.369  1.00  0.00    -0.234 N 
ATOM     31  H22 UNL     1      -4.782   2.736   0.445  1.00  0.00     0.174 HD
ATOM     32  H21 UNL     1      -3.872   4.235   0.455  1.00  0.00     0.174 HD
ENDBRANCH   4  30
TORSDOF 10
