REMARK  8 active torsions:
REMARK  status: ('A' for Active; 'I' for Inactive)
REMARK    1  A    between atoms: C2_3  and  O1_4 
REMARK    2  A    between atoms: O1_4  and  N2_5 
REMARK    3  A    between atoms: C3_7  and  C4_8 
REMARK    4  A    between atoms: C3_7  and  N5_18 
REMARK    5  A    between atoms: C4_8  and  C5_9 
REMARK    6  A    between atoms: C7_12  and  N3_13 
REMARK    7  A    between atoms: N5_18  and  O2_20 
REMARK    8  A    between atoms: O2_20  and  C8_21 
ROOT
HETATM    1  N1  UNL     1      -1.400  -5.518   0.827  1.00  0.00    -0.195 NA
HETATM    2  C1  UNL     1      -2.216  -4.803   0.391  1.00  0.00     0.087 C 
HETATM    3  C2  UNL     1      -3.221  -3.894  -0.161  1.00  0.00     0.324 C 
ENDROOT
BRANCH   3   4
HETATM    4  O1  UNL     1      -2.753  -2.561  -0.072  1.00  0.00    -0.265 OA
BRANCH   4   5
HETATM    5  N2  UNL     1      -3.452  -1.481  -0.499  1.00  0.00    -0.252 N 
HETATM    6  C3  UNL     1      -2.907  -0.404  -0.956  1.00  0.00     0.127 C 
ATOM      7  H2  UNL     1      -4.470  -1.522  -0.457  1.00  0.00     0.196 HD
BRANCH   6   8
HETATM    8  C4  UNL     1      -3.778   0.716  -1.395  1.00  0.00     0.137 C 
BRANCH   8   9
HETATM    9  C5  UNL     1      -3.423   1.923  -0.539  1.00  0.00     0.025 A 
HETATM   10  C6  UNL     1      -2.440   2.778  -0.951  1.00  0.00     0.078 A 
HETATM   11  S1  UNL     1      -2.421   3.930   0.307  1.00  0.00    -0.064 SA
HETATM   12  C7  UNL     1      -3.654   3.261   1.276  1.00  0.00     0.142 A 
HETATM   13  N4  UNL     1      -4.027   2.182   0.590  1.00  0.00    -0.340 N 
ATOM     14  H4  UNL     1      -4.767   1.572   0.938  1.00  0.00     0.168 HD
BRANCH  12  15
HETATM   15  N3  UNL     1      -4.141   3.684   2.426  1.00  0.00    -0.380 N 
ATOM     16  H32 UNL     1      -3.855   4.510   2.951  1.00  0.00     0.158 HD
ATOM     17  H31 UNL     1      -4.879   3.284   3.006  1.00  0.00     0.158 HD
ENDBRANCH  12  15
ENDBRANCH   8   9
ENDBRANCH   6   8
BRANCH   6  18
HETATM   18  N5  UNL     1      -1.498  -0.228  -1.065  1.00  0.00    -0.249 N 
ATOM     19  H5  UNL     1      -1.042  -0.508  -1.934  1.00  0.00     0.196 HD
BRANCH  18  20
HETATM   20  O2  UNL     1      -0.734   0.289  -0.080  1.00  0.00    -0.244 OA
BRANCH  20  21
HETATM   21  C8  UNL     1       0.551  -0.158  -0.227  1.00  0.00     0.315 C 
HETATM   22  C9  UNL     1       0.916  -0.937   1.020  1.00  0.00     0.198 C 
HETATM   23  N6  UNL     1       2.351  -1.020   1.167  1.00  0.00    -0.280 N 
HETATM   24  C10 UNL     1       2.850  -2.034   2.029  1.00  0.00     0.390 A 
HETATM   25  C14 UNL     1       3.289  -0.174   0.521  1.00  0.00     0.138 A 
HETATM   26  O3  UNL     1       2.105  -2.834   2.648  1.00  0.00    -0.236 OA
HETATM   27  O4  UNL     1       4.238  -2.132   2.186  1.00  0.00    -0.179 OA
HETATM   28  N7  UNL     1       5.098  -1.285   1.534  1.00  0.00    -0.237 N 
HETATM   29  C11 UNL     1       4.744  -0.345   0.741  1.00  0.00     0.172 A 
ATOM     30  H7  UNL     1       6.097  -1.415   1.694  1.00  0.00     0.197 HD
HETATM   31  N8  UNL     1       5.661   0.513   0.084  1.00  0.00    -0.173 N 
HETATM   32  C12 UNL     1       5.187   1.529  -0.779  1.00  0.00     0.679 A 
ATOM     33  H8  UNL     1       6.663   0.398   0.233  1.00  0.00     0.186 HD
HETATM   34  N9  UNL     1       5.964   2.350  -1.413  1.00  0.00    -0.234 N 
HETATM   35  N10 UNL     1       3.775   1.635  -0.943  1.00  0.00    -0.168 N 
ATOM     36  H92 UNL     1       6.974   2.274  -1.296  1.00  0.00     0.174 HD
ATOM     37  H91 UNL     1       5.622   3.082  -2.035  1.00  0.00     0.174 HD
HETATM   38  C13 UNL     1       2.843   0.771  -0.282  1.00  0.00     0.191 A 
ATOM     39  H10 UNL     1       3.411   2.361  -1.560  1.00  0.00     0.186 HD
HETATM   40  O5  UNL     1       1.477   0.896  -0.459  1.00  0.00    -0.298 OA
ENDBRANCH  20  21
ENDBRANCH  18  20
ENDBRANCH   6  18
ENDBRANCH   4   5
ENDBRANCH   3   4
TORSDOF 8
