REMARK  17 active torsions:
REMARK  status: ('A' for Active; 'I' for Inactive)
REMARK    1  A    between atoms: C2_2  and  C3_3 
REMARK    2  A    between atoms: C3_3  and  C4_4 
REMARK    3  A    between atoms: C4_4  and  C5_5 
REMARK    4  A    between atoms: C5_5  and  C6_6 
REMARK    5  A    between atoms: C6_6  and  C7_7 
REMARK    6  A    between atoms: C7_7  and  C8_8 
REMARK    7  A    between atoms: C8_8  and  C9_9 
REMARK    8  A    between atoms: C9_9  and  C10_10 
REMARK    9  A    between atoms: C10_10  and  C11_11 
REMARK   10  A    between atoms: C12_12  and  C13_13 
REMARK   11  A    between atoms: N1_15  and  C15_16 
REMARK   12  A    between atoms: C16_18  and  C17_19 
REMARK   13  A    between atoms: C17_19  and  O2_20 
REMARK   14  A    between atoms: C18_22  and  O3_23 
REMARK   15  A    between atoms: C19_25  and  O4_26 
REMARK   16  A    between atoms: C20_28  and  N2_29 
REMARK   17  A    between atoms: C22_34  and  N4_35 
ROOT
HETATM    1  C13 UNL     1      -1.979   1.286   0.157  1.00  0.00     0.078 A 
HETATM    2  C14 UNL     1      -2.851   0.277  -0.186  1.00  0.00     0.136 A 
HETATM    3  N1  UNL     1      -3.974   0.534  -0.855  1.00  0.00    -0.162 N 
HETATM    4  C20 UNL     1      -4.296   1.781  -1.218  1.00  0.00     0.683 A 
HETATM    5  N3  UNL     1      -3.473   2.795  -0.903  1.00  0.00    -0.175 N 
ATOM      6  H3  UNL     1      -3.712   3.748  -1.177  1.00  0.00     0.186 HD
HETATM    7  C22 UNL     1      -2.344   2.558  -0.233  1.00  0.00     0.135 A 
ENDROOT
BRANCH   1   8
HETATM    8  C12 UNL     1      -0.784   1.002   0.871  1.00  0.00    -0.062 C 
HETATM    9  C11 UNL     1       0.222   0.762   1.491  1.00  0.00    -0.101 C 
BRANCH   9  10
HETATM   10  C10 UNL     1       1.436   0.497   2.233  1.00  0.00     0.094 C 
BRANCH  10  11
HETATM   11  C9  UNL     1       2.349   1.707   2.282  1.00  0.00     0.012 C 
BRANCH  11  12
HETATM   12  C8  UNL     1       2.775   2.161   0.914  1.00  0.00     0.001 C 
BRANCH  12  13
HETATM   13  C7  UNL     1       3.528   1.089   0.161  1.00  0.00     0.000 C 
BRANCH  13  14
HETATM   14  C6  UNL     1       4.770   0.705   0.932  1.00  0.00     0.000 C 
BRANCH  14  15
HETATM   15  C5  UNL     1       5.498  -0.390   0.119  1.00  0.00     0.000 C 
BRANCH  15  16
HETATM   16  C4  UNL     1       6.712  -0.732   0.920  1.00  0.00     0.000 C 
BRANCH  16  17
HETATM   17  C3  UNL     1       7.609  -1.796   0.441  1.00  0.00    -0.000 C 
BRANCH  17  18
HETATM   18  C2  UNL     1       8.278  -1.672  -0.869  1.00  0.00    -0.005 C 
HETATM   19  C1  UNL     1       7.347  -1.644  -2.027  1.00  0.00     0.005 C 
ENDBRANCH  17  18
ENDBRANCH  16  17
ENDBRANCH  15  16
ENDBRANCH  14  15
ENDBRANCH  13  14
ENDBRANCH  12  13
ENDBRANCH  11  12
ENDBRANCH  10  11
ENDBRANCH   9  10
ENDBRANCH   1   8
BRANCH   7  20
HETATM   20  N4  UNL     1      -1.550   3.524   0.073  1.00  0.00    -0.384 N 
ATOM     21  H42 UNL     1      -0.687   3.343   0.585  1.00  0.00     0.157 HD
ATOM     22  H41 UNL     1      -1.820   4.464  -0.215  1.00  0.00     0.157 HD
ENDBRANCH   7  20
BRANCH   3  23
HETATM   23  C15 UNL     1      -4.866  -0.552  -1.198  1.00  0.00     0.277 C 
HETATM   24  O1  UNL     1      -4.280  -1.747  -0.845  1.00  0.00    -0.353 OA
HETATM   25  C16 UNL     1      -4.770  -2.199   0.357  1.00  0.00     0.179 C 
HETATM   26  C18 UNL     1      -5.828  -1.231   0.825  1.00  0.00     0.182 C 
HETATM   27  C19 UNL     1      -6.171  -0.544  -0.485  1.00  0.00     0.199 C 
BRANCH  25  28
HETATM   28  C17 UNL     1      -5.347  -3.606   0.211  1.00  0.00     0.198 C 
BRANCH  28  29
HETATM   29  O2  UNL     1      -4.349  -4.474  -0.223  1.00  0.00    -0.398 OA
ATOM     30  H2  UNL     1      -4.708  -5.349  -0.314  1.00  0.00     0.209 HD
ENDBRANCH  28  29
ENDBRANCH  25  28
BRANCH  26  31
HETATM   31  O3  UNL     1      -6.941  -1.864   1.340  1.00  0.00    -0.390 OA
ATOM     32  H3  UNL     1      -7.607  -1.254   1.635  1.00  0.00     0.210 HD
ENDBRANCH  26  31
BRANCH  27  33
HETATM   33  O4  UNL     1      -7.036  -1.408  -1.196  1.00  0.00    -0.388 OA
ATOM     34  H4  UNL     1      -7.870  -1.403  -0.741  1.00  0.00     0.210 HD
ENDBRANCH  27  33
ENDBRANCH   3  23
BRANCH   4  35
HETATM   35  N2  UNL     1      -5.392   2.043  -1.878  1.00  0.00    -0.230 N 
HETATM   36  C21 UNL     1      -5.752   3.371  -2.274  1.00  0.00     0.165 C 
ATOM     37  H2  UNL     1      -6.015   1.273  -2.120  1.00  0.00     0.177 HD
ENDBRANCH   4  35
TORSDOF 17
