REMARK  13 active torsions:
REMARK  status: ('A' for Active; 'I' for Inactive)
REMARK    1  A    between atoms: C2_2  and  C3_3 
REMARK    2  A    between atoms: C3_3  and  C4_4 
REMARK    3  A    between atoms: C4_4  and  C5_5 
REMARK    4  A    between atoms: C5_5  and  C6_6 
REMARK    5  A    between atoms: C6_6  and  C7_7 
REMARK    6  A    between atoms: C7_7  and  C8_8 
REMARK    7  A    between atoms: C8_8  and  C9_9 
REMARK    8  A    between atoms: C9_9  and  C10_10 
REMARK       I    between atoms: C10_10  and  N1_12 
REMARK    9  A    between atoms: C12_14  and  O2_15 
REMARK   10  A    between atoms: C13_17  and  N2_18 
REMARK       I    between atoms: N2_18  and  C14_20 
REMARK   11  A    between atoms: C14_20  and  C15_22 
REMARK   12  A    between atoms: C15_22  and  C16_23 
REMARK   13  A    between atoms: C16_23  and  N3_24 
REMARK       I    between atoms: N3_24  and  C17_26 
ROOT
HETATM    1  N2  UNL     1      -3.469  -0.014  -0.783  1.00  0.00    -0.348 N 
ATOM      2  H2  UNL     1      -3.427   0.412   0.143  1.00  0.00     0.163 HD
HETATM    3  C14 UNL     1      -4.625  -0.726  -1.169  1.00  0.00     0.273 C 
HETATM    4  O3  UNL     1      -4.696  -1.255  -2.294  1.00  0.00    -0.268 OA
ENDROOT
BRANCH   1   5
HETATM    5  C13 UNL     1      -2.339   0.121  -1.685  1.00  0.00     0.133 C 
HETATM    6  C12 UNL     1      -1.981   1.566  -1.806  1.00  0.00     0.160 C 
HETATM    7  C11 UNL     1      -0.694   1.744  -1.015  1.00  0.00     0.159 C 
HETATM    8  N1  UNL     1      -0.073   0.436  -1.063  1.00  0.00    -0.348 N 
HETATM    9  C10 UNL     1       1.309   0.136  -1.137  1.00  0.00     0.219 C 
HETATM   10  C20 UNL     1      -1.142  -0.536  -1.023  1.00  0.00     0.153 C 
HETATM   11  O1  UNL     1       1.679  -1.065  -1.175  1.00  0.00    -0.273 OA
BRANCH   6  12
HETATM   12  O2  UNL     1      -1.792   1.905  -3.148  1.00  0.00    -0.392 OA
ATOM     13  H2  UNL     1      -2.596   1.794  -3.642  1.00  0.00     0.210 HD
ENDBRANCH   6  12
BRANCH   9  14
HETATM   14  C9  UNL     1       2.326   1.209  -1.172  1.00  0.00     0.103 C 
BRANCH  14  15
HETATM   15  C8  UNL     1       3.739   0.758  -1.023  1.00  0.00     0.009 C 
BRANCH  15  16
HETATM   16  C7  UNL     1       4.062   0.084   0.278  1.00  0.00     0.000 C 
BRANCH  16  17
HETATM   17  C6  UNL     1       5.506  -0.350   0.301  1.00  0.00     0.000 C 
BRANCH  17  18
HETATM   18  C5  UNL     1       6.413   0.814   0.157  1.00  0.00     0.000 C 
BRANCH  18  19
HETATM   19  C4  UNL     1       7.880   0.427   0.196  1.00  0.00     0.000 C 
BRANCH  19  20
HETATM   20  C3  UNL     1       8.278  -0.245   1.467  1.00  0.00    -0.000 C 
BRANCH  20  21
HETATM   21  C2  UNL     1       9.772  -0.565   1.337  1.00  0.00    -0.005 C 
HETATM   22  C1  UNL     1      10.191  -1.249   2.619  1.00  0.00     0.005 C 
ENDBRANCH  20  21
ENDBRANCH  19  20
ENDBRANCH  18  19
ENDBRANCH  17  18
ENDBRANCH  16  17
ENDBRANCH  15  16
ENDBRANCH  14  15
ENDBRANCH   9  14
ENDBRANCH   1   5
BRANCH   3  23
HETATM   23  C15 UNL     1      -5.755  -0.843  -0.229  1.00  0.00     0.247 C 
HETATM   24  N6  UNL     1      -6.811  -1.620  -0.830  1.00  0.00    -0.094 NA
HETATM   25  N7  UNL     1      -7.585  -0.913  -1.722  1.00  0.00    -0.334 N 
HETATM   26  C18 UNL     1      -8.020   0.372  -1.272  1.00  0.00     0.161 C 
ATOM     27  H7  UNL     1      -7.831  -1.281  -2.641  1.00  0.00     0.175 HD
HETATM   28  C19 UNL     1      -6.841   1.128  -0.746  1.00  0.00     0.192 C 
HETATM   29  O4  UNL     1      -6.194   0.389   0.235  1.00  0.00    -0.351 OA
BRANCH  23  30
HETATM   30  C16 UNL     1      -5.262  -1.616   0.983  1.00  0.00     0.191 C 
BRANCH  30  31
HETATM   31  N3  UNL     1      -6.313  -1.805   1.956  1.00  0.00    -0.360 N 
HETATM   32  C17 UNL     1      -6.818  -0.685   2.658  1.00  0.00     0.181 C 
HETATM   33  N4  UNL     1      -8.057  -0.384   2.523  1.00  0.00    -0.374 N 
HETATM   34  N5  UNL     1      -6.021   0.124   3.505  1.00  0.00    -0.064 NA
ATOM     35  H42 UNL     1      -8.631  -0.966   1.913  1.00  0.00     0.158 HD
ATOM     36  H41 UNL     1      -8.421   0.423   3.029  1.00  0.00     0.158 HD
ATOM     37  H3  UNL     1      -6.687  -2.737   2.135  1.00  0.00     0.162 HD
ENDBRANCH  30  31
ENDBRANCH  23  30
ENDBRANCH   3  23
TORSDOF 13
