REMARK  6 active torsions:
REMARK  status: ('A' for Active; 'I' for Inactive)
REMARK    1  A    between atoms: C2_2  and  C5_5 
REMARK    2  A    between atoms: C5_5  and  C8_8 
REMARK    3  A    between atoms: C11_13  and  N2_14 
REMARK    4  A    between atoms: C16_19  and  C17_20 
REMARK       I    between atoms: C17_20  and  N3_22 
REMARK    5  A    between atoms: N3_22  and  C18_24 
REMARK    6  A    between atoms: C18_24  and  C19_25 
ROOT
HETATM    1  N2  UNL     1      -0.437  -0.563   0.763  1.00  0.00    -0.365 N 
HETATM    2  C12 UNL     1      -0.491   0.753   1.383  1.00  0.00     0.127 C 
HETATM    3  C13 UNL     1       0.462   1.716   0.701  1.00  0.00     0.051 C 
HETATM    4  C14 UNL     1       1.896   1.390   1.039  1.00  0.00     0.124 C 
HETATM    5  C15 UNL     1       2.733   1.114  -0.171  1.00  0.00     0.048 C 
HETATM    6  C16 UNL     1       2.736  -0.382  -0.225  1.00  0.00     0.111 C 
HETATM    7  C23 UNL     1       2.013  -0.832   0.990  1.00  0.00     0.153 C 
HETATM    8  C24 UNL     1       0.669  -1.457   0.676  1.00  0.00     0.157 C 
HETATM    9  O3  UNL     1       1.965   0.242   1.827  1.00  0.00    -0.378 OA
ENDROOT
BRANCH   1  10
HETATM   10  C11 UNL     1      -1.683  -0.940   0.191  1.00  0.00     0.105 A 
HETATM   11  C10 UNL     1      -1.806  -2.157  -0.440  1.00  0.00     0.065 A 
HETATM   12  C9  UNL     1      -3.018  -2.501  -0.982  1.00  0.00     0.093 A 
HETATM   13  N1  UNL     1      -4.039  -1.657  -0.887  1.00  0.00    -0.355 N 
HETATM   14  C8  UNL     1      -3.964  -0.460  -0.281  1.00  0.00     0.091 A 
ATOM     15  H1  UNL     1      -4.931  -1.933  -1.297  1.00  0.00     0.166 HD
HETATM   16  N4  UNL     1      -2.767  -0.142   0.244  1.00  0.00    -0.332 N 
ATOM     17  H4  UNL     1      -2.674   0.760   0.711  1.00  0.00     0.168 HD
BRANCH  14  18
HETATM   18  C5  UNL     1      -5.075   0.486  -0.160  1.00  0.00     0.018 C 
HETATM   19  C6  UNL     1      -5.030   1.125   1.208  1.00  0.00     0.024 C 
HETATM   20  C7  UNL     1      -4.825   1.584  -1.188  1.00  0.00     0.024 C 
BRANCH  18  21
HETATM   21  C2  UNL     1      -6.432  -0.131  -0.326  1.00  0.00    -0.037 C 
HETATM   22  C1  UNL     1      -7.454   0.980  -0.205  1.00  0.00     0.015 C 
HETATM   23  C3  UNL     1      -6.642  -0.832  -1.623  1.00  0.00     0.015 C 
HETATM   24  C4  UNL     1      -6.739  -1.127   0.779  1.00  0.00     0.015 C 
ENDBRANCH  18  21
ENDBRANCH  14  18
ENDBRANCH   1  10
BRANCH   6  25
HETATM   25  C17 UNL     1       4.196  -0.818  -0.102  1.00  0.00     0.228 C 
HETATM   26  O1  UNL     1       4.587  -1.560  -1.001  1.00  0.00    -0.273 OA
HETATM   27  N3  UNL     1       4.958  -0.380   0.963  1.00  0.00    -0.338 N 
ATOM     28  H3  UNL     1       4.466   0.222   1.623  1.00  0.00     0.167 HD
BRANCH  27  29
HETATM   29  C18 UNL     1       6.303  -0.632   1.282  1.00  0.00     0.095 C 
BRANCH  29  30
HETATM   30  C19 UNL     1       7.409  -0.179   0.419  1.00  0.00     0.159 C 
HETATM   31  C20 UNL     1       7.778  -0.909  -0.801  1.00  0.00     0.039 C 
HETATM   32  C21 UNL     1       7.555   0.172  -1.883  1.00  0.00     0.029 C 
HETATM   33  C22 UNL     1       7.964   1.389  -1.063  1.00  0.00     0.168 C 
HETATM   34  O2  UNL     1       7.373   1.201   0.155  1.00  0.00    -0.381 OA
ENDBRANCH  29  30
ENDBRANCH  27  29
ENDBRANCH   6  25
TORSDOF 6
