REMARK  4 active torsions:
REMARK  status: ('A' for Active; 'I' for Inactive)
REMARK    1  A    between atoms: C2_2  and  C3_3 
REMARK    2  A    between atoms: C2_2  and  N2_7 
REMARK    3  A    between atoms: C3_3  and  C4_4 
REMARK    4  A    between atoms: C10_13  and  N3_14 
ROOT
HETATM    1  C4  UNL     1       3.455   0.425   0.777  1.00  0.00     0.126 C 
HETATM    2  C5  UNL     1       2.804   1.710   0.652  1.00  0.00     0.059 C 
HETATM    3  N1  UNL     1       2.298   2.770   0.555  1.00  0.00    -0.197 NA
ENDROOT
BRANCH   1   4
HETATM    4  C3  UNL     1       2.835  -0.583  -0.108  1.00  0.00     0.039 C 
BRANCH   4   5
HETATM    5  C2  UNL     1       1.380  -0.884   0.139  1.00  0.00     0.078 C 
HETATM    6  C1  UNL     1       1.010  -1.946  -0.900  1.00  0.00     0.032 C 
BRANCH   5   7
HETATM    7  N2  UNL     1       0.577   0.239   0.105  1.00  0.00    -0.390 N 
HETATM    8  C6  UNL     1      -0.671   0.369   0.038  1.00  0.00     0.013 C 
HETATM    9  C7  UNL     1      -1.346   1.699   0.012  1.00  0.00     0.054 C 
HETATM   10  C10 UNL     1      -1.779  -0.615  -0.031  1.00  0.00     0.228 C 
HETATM   11  C8  UNL     1      -2.560   1.488   0.892  1.00  0.00     0.008 C 
HETATM   12  C9  UNL     1      -2.965   0.079   0.603  1.00  0.00     0.039 C 
ATOM     13  H2  UNL     1       1.089   1.121   0.141  1.00  0.00     0.159 HD
BRANCH  10  14
HETATM   14  N3  UNL     1      -2.161  -0.919  -1.404  1.00  0.00    -0.070 N 
ATOM     15  H33 UNL     1      -2.390  -0.069  -1.920  1.00  0.00     0.275 HD
ATOM     16  H32 UNL     1      -1.358  -1.229  -1.950  1.00  0.00     0.275 HD
ATOM     17  H31 UNL     1      -2.923  -1.596  -1.451  1.00  0.00     0.275 HD
ENDBRANCH  10  14
ENDBRANCH   5   7
ENDBRANCH   4   5
ENDBRANCH   1   4
TORSDOF 4
