REMARK  4 active torsions:
REMARK  status: ('A' for Active; 'I' for Inactive)
REMARK    1  A    between atoms: C1_2  and  C2_3 
REMARK    2  A    between atoms: C3_4  and  C4_5 
REMARK    3  A    between atoms: C4_5  and  O1_6 
REMARK    4  A    between atoms: O1_6  and  C5_7 
ROOT
HETATM    1  C5  UNL     1      -1.099  -0.604   1.051  1.00  0.00     0.158 A 
HETATM    2  C6  UNL     1      -2.270  -0.117   1.586  1.00  0.00     0.143 A 
HETATM    3  N1  UNL     1      -3.229   0.419   0.774  1.00  0.00    -0.370 N 
ATOM      4  H1  UNL     1      -4.093   0.777   1.181  1.00  0.00     0.164 HD
HETATM    5  C7  UNL     1      -3.048   0.479  -0.539  1.00  0.00     0.104 A 
HETATM    6  C8  UNL     1      -1.870  -0.010  -1.095  1.00  0.00     0.107 A 
HETATM    7  N2  UNL     1      -0.920  -0.542  -0.278  1.00  0.00    -0.344 N 
ATOM      8  H2  UNL     1      -0.055  -0.900  -0.683  1.00  0.00     0.167 HD
ENDROOT
BRANCH   1   9
HETATM    9  O1  UNL     1      -0.096  -1.156   1.823  1.00  0.00    -0.323 OA
BRANCH   9  10
HETATM   10  C4  UNL     1       1.097  -1.649   1.246  1.00  0.00     0.271 C 
BRANCH  10  11
HETATM   11  C3  UNL     1       1.791  -0.564   0.533  1.00  0.00    -0.079 C 
HETATM   12  C2  UNL     1       2.370   0.326  -0.053  1.00  0.00    -0.094 C 
BRANCH  12  13
HETATM   13  C1  UNL     1       3.084   1.403  -0.757  1.00  0.00     0.178 C 
HETATM   14 BR1  UNL     1       2.514   3.070   0.026  1.00  0.00    -0.083 Br
ENDBRANCH  12  13
ENDBRANCH  10  11
ENDBRANCH   9  10
ENDBRANCH   1   9
TORSDOF 4
