REMARK  3 active torsions:
REMARK  status: ('A' for Active; 'I' for Inactive)
REMARK    1  A    between atoms: C3_3  and  N1_4 
REMARK    2  A    between atoms: C8_9  and  N2_10 
REMARK    3  A    between atoms: N2_10  and  N3_12 
ROOT
HETATM    1  C1  UNL     1       2.162   2.496   1.457  1.00  0.00     0.013 C 
HETATM    2  C2  UNL     1       1.837   1.936   0.446  1.00  0.00    -0.087 C 
HETATM    3  C3  UNL     1       1.429   1.276  -0.797  1.00  0.00     0.367 C 
ENDROOT
BRANCH   3   4
HETATM    4  N1  UNL     1       0.212   0.543  -0.681  1.00  0.00     0.123 N 
HETATM    5  C4  UNL     1      -0.868   1.443  -0.494  1.00  0.00     0.276 C 
HETATM    6  C5  UNL     1      -1.983   0.845   0.357  1.00  0.00     0.030 C 
HETATM    7  C6  UNL     1      -2.253  -0.514  -0.282  1.00  0.00     0.005 C 
HETATM    8  C7  UNL     1      -1.064  -1.384   0.028  1.00  0.00     0.059 C 
HETATM    9  C8  UNL     1       0.242  -0.628   0.113  1.00  0.00     0.342 C 
BRANCH   9  10
HETATM   10  N2  UNL     1       1.268  -1.530  -0.356  1.00  0.00    -0.243 N 
ATOM     11  H2  UNL     1       1.820  -1.251  -1.167  1.00  0.00     0.189 HD
BRANCH  10  12
HETATM   12  N3  UNL     1       1.546  -2.760   0.238  1.00  0.00    -0.042 N 
HETATM   13  O1  UNL     1       2.002  -3.730  -0.417  1.00  0.00    -0.517 OA
HETATM   14  O2  UNL     1       1.305  -2.890   1.583  1.00  0.00    -0.517 OA
ENDBRANCH  10  12
ENDBRANCH   9  10
ENDBRANCH   3   4
TORSDOF 3
