REMARK  4 active torsions:
REMARK  status: ('A' for Active; 'I' for Inactive)
REMARK    1  A    between atoms: C4_4  and  N1_5 
REMARK    2  A    between atoms: C7_8  and  N2_9 
REMARK    3  A    between atoms: N2_9  and  C8_11 
REMARK    4  A    between atoms: C15_21  and  C16_22 
ROOT
HETATM    1  N1  UNL     1       0.664   0.026   0.140  1.00  0.00    -0.367 N 
HETATM    2  C5  UNL     1      -0.428   0.900  -0.165  1.00  0.00     0.130 C 
HETATM    3  C6  UNL     1      -1.742   0.507   0.475  1.00  0.00     0.072 C 
HETATM    4  C7  UNL     1      -2.071  -0.941   0.350  1.00  0.00    -0.015 C 
HETATM    5  C13 UNL     1      -0.837  -1.824   0.108  1.00  0.00     0.072 C 
HETATM    6  C14 UNL     1       0.399  -1.242   0.747  1.00  0.00     0.130 C 
ENDROOT
BRANCH   1   7
HETATM    7  C4  UNL     1       1.998   0.430  -0.167  1.00  0.00     0.106 A 
HETATM    8  C3  UNL     1       2.224   1.693  -0.733  1.00  0.00     0.073 A 
HETATM    9  C2  UNL     1       3.496   2.111  -1.062  1.00  0.00     0.010 A 
HETATM   10  C1  UNL     1       3.704   3.463  -1.651  1.00  0.00     0.068 C 
HETATM   11  N4  UNL     1       4.526   1.275  -0.824  1.00  0.00    -0.349 N 
HETATM   12  C15 UNL     1       4.308   0.045  -0.276  1.00  0.00     0.086 A 
ATOM     13  H4  UNL     1       5.476   1.564  -1.056  1.00  0.00     0.167 HD
HETATM   14  N3  UNL     1       3.065  -0.333   0.032  1.00  0.00    -0.332 N 
ATOM     15  H3  UNL     1       2.929  -1.257   0.442  1.00  0.00     0.168 HD
BRANCH  12  16
HETATM   16  C16 UNL     1       5.524  -0.793  -0.058  1.00  0.00     0.045 C 
HETATM   17  C17 UNL     1       5.265  -1.960   0.830  1.00  0.00     0.017 C 
HETATM   18  C18 UNL     1       6.692  -0.021   0.490  1.00  0.00     0.017 C 
ENDBRANCH  12  16
ENDBRANCH   1   7
BRANCH   4  19
HETATM   19  N2  UNL     1      -3.156  -1.333  -0.401  1.00  0.00    -0.392 N 
ATOM     20  H2  UNL     1      -2.956  -1.830  -1.269  1.00  0.00     0.159 HD
BRANCH  19  21
HETATM   21  C8  UNL     1      -4.490  -1.123  -0.100  1.00  0.00     0.083 C 
HETATM   22  C9  UNL     1      -5.295  -0.814  -1.375  1.00  0.00     0.028 C 
HETATM   23  C10 UNL     1      -6.481  -0.013  -0.887  1.00  0.00     0.039 C 
HETATM   24  C11 UNL     1      -5.876   0.857   0.166  1.00  0.00     0.172 C 
HETATM   25  F1  UNL     1      -5.246   1.977  -0.304  1.00  0.00    -0.249 F 
HETATM   26  C12 UNL     1      -4.914  -0.101   0.870  1.00  0.00     0.062 C 
ENDBRANCH  19  21
ENDBRANCH   4  19
TORSDOF 4
