REMARK  5 active torsions:
REMARK  status: ('A' for Active; 'I' for Inactive)
REMARK    1  A    between atoms: C4_4  and  C5_5 
REMARK    2  A    between atoms: C5_5  and  N1_6 
REMARK    3  A    between atoms: C5_5  and  C13_20 
REMARK       I    between atoms: N1_6  and  C7_8 
REMARK    4  A    between atoms: C7_8  and  C8_10 
REMARK    5  A    between atoms: C9_11  and  C10_12 
ROOT
HETATM    1  N1  UNL     1       0.356  -0.132  -0.093  1.00  0.00    -0.341 N 
HETATM    2  C6  UNL     1       0.412  -0.371   1.332  1.00  0.00     0.154 C 
HETATM    3  C7  UNL     1       1.606   0.204  -0.716  1.00  0.00     0.258 C 
HETATM    4  O1  UNL     1       1.610   0.414  -1.948  1.00  0.00    -0.267 OA
ENDROOT
BRANCH   1   5
HETATM    5  C5  UNL     1      -0.882  -0.230  -0.820  1.00  0.00     0.153 C 
BRANCH   5   6
HETATM    6  C4  UNL     1      -1.861   0.837  -0.480  1.00  0.00     0.102 A 
HETATM    7  C3  UNL     1      -2.216   1.316   0.763  1.00  0.00     0.063 A 
HETATM    8  C2  UNL     1      -3.156   2.296   0.563  1.00  0.00     0.031 A 
HETATM    9  C1  UNL     1      -3.826   3.093   1.599  1.00  0.00     0.070 C 
HETATM   10  N4  UNL     1      -3.348   2.392  -0.742  1.00  0.00    -0.266 N 
HETATM   11  O2  UNL     1      -2.597   1.547  -1.332  1.00  0.00    -0.240 OA
ATOM     12  H4  UNL     1      -3.991   3.036  -1.201  1.00  0.00     0.194 HD
ENDBRANCH   5   6
BRANCH   5  13
HETATM   13  C13 UNL     1      -1.483  -1.583  -0.923  1.00  0.00    -0.025 C 
HETATM   14  C14 UNL     1      -0.375  -2.567  -1.271  1.00  0.00     0.017 C 
HETATM   15  C15 UNL     1      -2.269  -2.096   0.215  1.00  0.00     0.017 C 
HETATM   16  C16 UNL     1      -2.403  -1.594  -2.158  1.00  0.00     0.017 C 
ENDBRANCH   5  13
ENDBRANCH   1   5
BRANCH   3  17
HETATM   17  C8  UNL     1       2.857   0.314   0.004  1.00  0.00     0.082 A 
HETATM   18  C9  UNL     1       3.778  -0.686   0.238  1.00  0.00     0.071 A 
HETATM   19  N2  UNL     1       4.770  -0.092   0.948  1.00  0.00    -0.301 N 
HETATM   20  N3  UNL     1       4.491   1.181   1.143  1.00  0.00    -0.304 N 
ATOM     21  H2  UNL     1       5.611  -0.563   1.283  1.00  0.00     0.186 HD
HETATM   22  C11 UNL     1       3.318   1.505   0.585  1.00  0.00     0.039 A 
ATOM     23  H3  UNL     1       5.089   1.833   1.651  1.00  0.00     0.186 HD
HETATM   24  C12 UNL     1       2.627   2.822   0.563  1.00  0.00     0.071 C 
BRANCH  18  25
HETATM   25  C10 UNL     1       3.720  -2.116  -0.186  1.00  0.00     0.281 C 
HETATM   26  F1  UNL     1       4.020  -2.169  -1.550  1.00  0.00    -0.249 F 
ENDBRANCH  18  25
ENDBRANCH   3  17
TORSDOF 5
