REMARK  5 active torsions:
REMARK  status: ('A' for Active; 'I' for Inactive)
REMARK    1  A    between atoms: C7_8  and  C8_9 
REMARK    2  A    between atoms: C10_14  and  C11_15 
REMARK    3  A    between atoms: C11_15  and  N3_16 
REMARK       I    between atoms: N3_16  and  C12_18 
REMARK    4  A    between atoms: C12_18  and  C13_20 
REMARK    5  A    between atoms: C13_20  and  C14_21 
ROOT
HETATM    1  C8  UNL     1       2.394   0.307  -0.219  1.00  0.00     0.161 A 
HETATM    2  N2  UNL     1       2.430   0.134  -1.547  1.00  0.00    -0.312 N 
ATOM      3  H2  UNL     1       3.292   0.050  -2.087  1.00  0.00     0.170 HD
HETATM    4  C9  UNL     1       1.235   0.085  -2.071  1.00  0.00     0.225 A 
HETATM    5  F1  UNL     1       0.786  -0.075  -3.366  1.00  0.00    -0.183 F 
HETATM    6  C10 UNL     1       0.349   0.268  -0.934  1.00  0.00     0.148 A 
HETATM    7  O2  UNL     1       1.133   0.388   0.077  1.00  0.00    -0.289 OA
ENDROOT
BRANCH   6   8
HETATM    8  C11 UNL     1      -1.036   0.245  -1.138  1.00  0.00     0.133 C 
BRANCH   8   9
HETATM    9  N3  UNL     1      -2.171   1.018  -1.019  1.00  0.00    -0.334 N 
HETATM   10  C12 UNL     1      -3.415   0.295  -1.118  1.00  0.00     0.222 C 
HETATM   11  O1  UNL     1      -3.328  -0.961  -1.324  1.00  0.00    -0.273 OA
ATOM     12  H3  UNL     1      -2.134   2.027  -0.872  1.00  0.00     0.168 HD
BRANCH  10  13
HETATM   13  C13 UNL     1      -4.705   0.918  -0.977  1.00  0.00     0.111 C 
BRANCH  13  14
HETATM   14  C14 UNL     1      -5.563   0.039  -0.043  1.00  0.00    -0.043 C 
HETATM   15  C15 UNL     1      -6.850   0.785   0.093  1.00  0.00     0.015 C 
HETATM   16  C16 UNL     1      -5.820  -1.332  -0.547  1.00  0.00     0.015 C 
HETATM   17  C17 UNL     1      -4.859  -0.022   1.306  1.00  0.00     0.015 C 
ENDBRANCH  13  14
ENDBRANCH  10  13
ENDBRANCH   8   9
ENDBRANCH   6   8
BRANCH   1  18
HETATM   18  C7  UNL     1       3.602   0.348   0.629  1.00  0.00     0.303 C 
HETATM   19  N1  UNL     1       4.529   1.325   0.803  1.00  0.00     0.102 N 
HETATM   20  C1  UNL     1       4.831   2.272  -0.217  1.00  0.00     0.311 C 
HETATM   21  C2  UNL     1       5.553   0.239   0.891  1.00  0.00     0.230 C 
HETATM   22  C3  UNL     1       5.459  -0.653   2.089  1.00  0.00     0.036 C 
HETATM   23  C6  UNL     1       4.725  -0.450  -0.150  1.00  0.00     0.060 C 
HETATM   24  C4  UNL     1       4.790  -1.958   1.659  1.00  0.00     0.003 C 
HETATM   25  C5  UNL     1       4.640  -1.892   0.164  1.00  0.00     0.009 C 
ENDBRANCH   1  18
TORSDOF 5
