REMARK  11 active torsions:
REMARK  status: ('A' for Active; 'I' for Inactive)
REMARK    1  A    between atoms: O1_2  and  C2_3 
REMARK    2  A    between atoms: C4_5  and  N1_6 
REMARK       I    between atoms: N1_6  and  C5_8 
REMARK       I    between atoms: C5_8  and  N2_10 
REMARK    3  A    between atoms: N2_10  and  C6_11 
REMARK    4  A    between atoms: C7_12  and  S1_13 
REMARK    5  A    between atoms: S1_13  and  C8_14 
REMARK    6  A    between atoms: C8_14  and  C9_15 
REMARK    7  A    between atoms: C9_15  and  O4_17 
REMARK    8  A    between atoms: O4_17  and  C10_18 
REMARK    9  A    between atoms: C11_24  and  N4_25 
REMARK   10  A    between atoms: C13_29  and  O7_30 
REMARK   11  A    between atoms: C15_32  and  O8_33 
ROOT
HETATM    1  C6  UNL     1       1.720  -2.534   1.786  1.00  0.00     0.200 A 
HETATM    2  C7  UNL     1       2.670  -2.181   2.784  1.00  0.00     0.180 A 
HETATM    3  O6  UNL     1       3.324  -3.240   3.145  1.00  0.00    -0.226 OA
HETATM    4  N3  UNL     1       2.906  -4.266   2.495  1.00  0.00    -0.241 N 
ATOM      5  H3  UNL     1       3.269  -5.212   2.609  1.00  0.00     0.196 HD
HETATM    6  C11 UNL     1       1.934  -3.924   1.651  1.00  0.00     0.164 A 
ENDROOT
BRANCH   1   7
HETATM    7  N2  UNL     1       0.865  -1.757   1.136  1.00  0.00    -0.344 NA
HETATM    8  C5  UNL     1       0.003  -0.966   0.467  1.00  0.00     0.399 C 
HETATM    9  N1  UNL     1      -1.331  -0.602   0.953  1.00  0.00    -0.297 N 
HETATM   10  O2  UNL     1       0.254  -0.443  -0.688  1.00  0.00    -0.230 OA
ATOM     11  H1  UNL     1      -1.688  -0.922   1.853  1.00  0.00     0.172 HD
BRANCH   9  12
HETATM   12  C4  UNL     1      -2.104   0.237   0.076  1.00  0.00     0.043 A 
HETATM   13  C3  UNL     1      -3.228  -0.239  -0.587  1.00  0.00     0.069 A 
HETATM   14  C2  UNL     1      -3.912   0.570  -1.505  1.00  0.00     0.106 A 
HETATM   15  C15 UNL     1      -3.496   1.859  -1.771  1.00  0.00     0.135 A 
HETATM   16  C13 UNL     1      -2.380   2.339  -1.109  1.00  0.00     0.106 A 
HETATM   17  C12 UNL     1      -1.703   1.533  -0.203  1.00  0.00     0.069 A 
BRANCH  14  18
HETATM   18  O1  UNL     1      -5.030   0.133  -2.188  1.00  0.00    -0.353 OA
HETATM   19  C1  UNL     1      -5.522  -1.188  -1.867  1.00  0.00     0.210 C 
ENDBRANCH  14  18
BRANCH  15  20
HETATM   20  O8  UNL     1      -4.208   2.646  -2.697  1.00  0.00    -0.351 OA
HETATM   21  C16 UNL     1      -3.841   2.637  -4.083  1.00  0.00     0.210 C 
ENDBRANCH  15  20
BRANCH  16  22
HETATM   22  O7  UNL     1      -1.993   3.611  -1.382  1.00  0.00    -0.353 OA
HETATM   23  C14 UNL     1      -0.911   4.258  -0.808  1.00  0.00     0.210 C 
ENDBRANCH  16  22
ENDBRANCH   9  12
ENDBRANCH   1   7
BRANCH   2  24
HETATM   24  S1  UNL     1       2.839  -0.510   3.380  1.00  0.00    -0.089 SA
BRANCH  24  25
HETATM   25  C8  UNL     1       3.879   0.432   2.303  1.00  0.00     0.193 C 
BRANCH  25  26
HETATM   26  C9  UNL     1       5.274  -0.112   2.287  1.00  0.00     0.277 C 
HETATM   27  O3  UNL     1       5.629  -1.066   3.001  1.00  0.00    -0.264 OA
BRANCH  26  28
HETATM   28  O4  UNL     1       6.220   0.474   1.431  1.00  0.00    -0.217 OA
BRANCH  28  29
HETATM   29  C10 UNL     1       7.508  -0.022   1.410  1.00  0.00     0.452 C 
HETATM   30  O5  UNL     1       7.892  -0.991   2.130  1.00  0.00    -0.224 OA
HETATM   31  F1  UNL     1       8.403   0.574   0.552  1.00  0.00    -0.135 F 
ENDBRANCH  28  29
ENDBRANCH  26  28
ENDBRANCH  25  26
ENDBRANCH  24  25
ENDBRANCH   2  24
BRANCH   6  32
HETATM   32  N4  UNL     1       1.252  -4.632   0.806  1.00  0.00    -0.381 N 
ATOM     33  H42 UNL     1       0.508  -4.370   0.160  1.00  0.00     0.157 HD
ATOM     34  H41 UNL     1       1.406  -5.636   0.709  1.00  0.00     0.157 HD
ENDBRANCH   6  32
TORSDOF 11
