REMARK  17 active torsions:
REMARK  status: ('A' for Active; 'I' for Inactive)
REMARK    1  A    between atoms: C2_2  and  C3_3 
REMARK    2  A    between atoms: C3_3  and  C4_4 
REMARK    3  A    between atoms: C4_4  and  C5_5 
REMARK    4  A    between atoms: C5_5  and  C6_6 
REMARK    5  A    between atoms: C6_6  and  C7_7 
REMARK    6  A    between atoms: C7_7  and  C8_8 
REMARK    7  A    between atoms: C8_8  and  N1_9 
REMARK    8  A    between atoms: N1_9  and  C9_11 
REMARK    9  A    between atoms: C10_14  and  N3_15 
REMARK   10  A    between atoms: N3_15  and  C11_17 
REMARK   11  A    between atoms: C11_17  and  C12_18 
REMARK   12  A    between atoms: C12_18  and  O1_19 
REMARK   13  A    between atoms: N5_24  and  C14_26 
REMARK   14  A    between atoms: C14_26  and  C15_27 
REMARK   15  A    between atoms: C17_32  and  C18_33 
REMARK   16  A    between atoms: C19_36  and  C20_37 
REMARK   17  A    between atoms: C22_39  and  N7_40 
ROOT
HETATM    1  C9  UNL     1      -1.213  -0.427  -0.045  1.00  0.00     0.694 C 
HETATM    2  N2  UNL     1      -0.593   0.714  -0.461  1.00  0.00    -0.022 N 
ATOM      3  H2  UNL     1      -1.148   1.566  -0.379  1.00  0.00     0.203 HD
HETATM    4  C10 UNL     1       0.645   0.881  -0.964  1.00  0.00     0.694 C 
HETATM    5  N4  UNL     1       1.654  -0.018  -1.055  1.00  0.00    -0.173 N 
ATOM      6  H4  UNL     1       2.401   0.182  -1.720  1.00  0.00     0.186 HD
HETATM    7  C13 UNL     1       1.751  -1.151  -0.341  1.00  0.00     0.161 C 
HETATM    8  N5  UNL     1       2.942  -1.582  -0.126  1.00  0.00    -0.372 N 
ATOM      9  H5  UNL     1       3.053  -2.441   0.412  1.00  0.00     0.161 HD
HETATM   10  C22 UNL     1       0.710  -1.904   0.187  1.00  0.00     0.159 C 
HETATM   11  N8  UNL     1      -0.587  -1.540   0.362  1.00  0.00    -0.173 N 
ATOM     12  H8  UNL     1      -1.165  -2.206   0.874  1.00  0.00     0.186 HD
ENDROOT
BRANCH   8  13
HETATM   13  C14 UNL     1       4.130  -0.921  -0.602  1.00  0.00     0.128 C 
BRANCH  13  14
HETATM   14  C15 UNL     1       5.279  -1.324   0.291  1.00  0.00     0.035 C 
HETATM   15  C16 UNL     1       5.527  -2.794   0.299  1.00  0.00     0.240 C 
HETATM   16  N6  UNL     1       6.938  -2.937   0.680  1.00  0.00    -0.060 N 
HETATM   17  C17 UNL     1       7.599  -1.798   0.129  1.00  0.00     0.290 C 
ATOM     18  H62 UNL     1       7.082  -3.049   1.683  1.00  0.00     0.278 HD
ATOM     19  H61 UNL     1       7.351  -3.826   0.399  1.00  0.00     0.278 HD
HETATM   20  C19 UNL     1       6.585  -0.733  -0.146  1.00  0.00     0.034 C 
BRANCH  17  21
HETATM   21  C18 UNL     1       8.409  -2.137  -1.071  1.00  0.00     0.205 C 
HETATM   22  O2  UNL     1       8.423  -3.335  -1.443  1.00  0.00    -0.646 OA
HETATM   23  O3  UNL     1       9.121  -1.202  -1.761  1.00  0.00    -0.646 OA
ENDBRANCH  17  21
BRANCH  20  24
HETATM   24  C20 UNL     1       6.863   0.536   0.645  1.00  0.00     0.003 C 
HETATM   25  C21 UNL     1       8.163   1.133   0.216  1.00  0.00     0.005 C 
ENDBRANCH  20  24
ENDBRANCH  13  14
ENDBRANCH   8  13
BRANCH  10  26
HETATM   26  N7  UNL     1       1.025  -3.095   0.554  1.00  0.00    -0.382 N 
ATOM     27  H72 UNL     1       1.999  -3.368   0.423  1.00  0.00     0.157 HD
ATOM     28  H71 UNL     1       0.261  -3.648   0.942  1.00  0.00     0.157 HD
ENDBRANCH  10  26
BRANCH   4  29
HETATM   29  N3  UNL     1       0.951   2.045  -1.432  1.00  0.00    -0.223 N 
ATOM     30  H3  UNL     1       1.880   2.208  -1.821  1.00  0.00     0.177 HD
BRANCH  29  31
HETATM   31  C11 UNL     1      -0.010   3.111  -1.407  1.00  0.00     0.164 C 
BRANCH  31  32
HETATM   32  C12 UNL     1       0.638   4.326  -2.044  1.00  0.00     0.184 C 
BRANCH  32  33
HETATM   33  O1  UNL     1      -0.248   5.402  -2.052  1.00  0.00    -0.399 OA
ATOM     34  H1  UNL     1       0.158   6.163  -2.451  1.00  0.00     0.209 HD
ENDBRANCH  32  33
ENDBRANCH  31  32
ENDBRANCH  29  31
ENDBRANCH   4  29
BRANCH   1  35
HETATM   35  N1  UNL     1      -2.484  -0.376  -0.065  1.00  0.00    -0.226 N 
ATOM     36  H1  UNL     1      -2.920   0.490  -0.382  1.00  0.00     0.177 HD
BRANCH  35  37
HETATM   37  C8  UNL     1      -3.353  -1.462   0.331  1.00  0.00     0.138 C 
BRANCH  37  38
HETATM   38  C7  UNL     1      -4.771  -1.206  -0.196  1.00  0.00     0.020 C 
BRANCH  38  39
HETATM   39  C6  UNL     1      -5.268   0.077   0.382  1.00  0.00     0.002 C 
BRANCH  39  40
HETATM   40  C5  UNL     1      -6.676   0.435  -0.080  1.00  0.00     0.000 C 
BRANCH  40  41
HETATM   41  C4  UNL     1      -7.679  -0.573   0.286  1.00  0.00     0.000 C 
BRANCH  41  42
HETATM   42  C3  UNL     1      -9.062  -0.321  -0.183  1.00  0.00    -0.000 C 
BRANCH  42  43
HETATM   43  C2  UNL     1      -9.780   0.887   0.261  1.00  0.00    -0.005 C 
HETATM   44  C1  UNL     1      -9.238   2.212  -0.147  1.00  0.00     0.005 C 
ENDBRANCH  42  43
ENDBRANCH  41  42
ENDBRANCH  40  41
ENDBRANCH  39  40
ENDBRANCH  38  39
ENDBRANCH  37  38
ENDBRANCH  35  37
ENDBRANCH   1  35
TORSDOF 17
