REMARK  17 active torsions:
REMARK  status: ('A' for Active; 'I' for Inactive)
REMARK    1  A    between atoms: C2_2  and  C3_3 
REMARK    2  A    between atoms: C3_3  and  C4_4 
REMARK    3  A    between atoms: C4_4  and  C5_5 
REMARK    4  A    between atoms: C5_5  and  C6_6 
REMARK    5  A    between atoms: C6_6  and  C7_7 
REMARK    6  A    between atoms: C7_7  and  C8_8 
REMARK    7  A    between atoms: C8_8  and  C9_9 
REMARK    8  A    between atoms: C9_9  and  C10_10 
REMARK    9  A    between atoms: C10_10  and  C11_11 
REMARK   10  A    between atoms: C11_11  and  N1_12 
REMARK   11  A    between atoms: C12_16  and  O1_17 
REMARK   12  A    between atoms: C15_24  and  O2_25 
REMARK   13  A    between atoms: C16_27  and  O3_28 
REMARK   14  A    between atoms: O3_28  and  C17_29 
REMARK   15  A    between atoms: C20_35  and  C21_36 
REMARK   16  A    between atoms: C21_36  and  C22_37 
REMARK   17  A    between atoms: C23_40  and  O6_41 
ROOT
HETATM    1  C11 UNL     1      -0.570  -0.858   0.305  1.00  0.00     0.179 C 
HETATM    2  C12 UNL     1       0.052  -2.186   0.507  1.00  0.00     0.189 C 
HETATM    3  C13 UNL     1       0.306  -2.992  -0.725  1.00  0.00     0.250 A 
HETATM    4  N2  UNL     1       0.369  -2.392  -2.021  1.00  0.00    -0.057 N 
ATOM      5  H21 UNL     1       0.985  -2.465  -2.830  1.00  0.00     0.278 HD
ATOM      6  H22 UNL     1       0.589  -1.466  -2.387  1.00  0.00     0.278 HD
HETATM    7  C14 UNL     1      -0.830  -3.070  -1.563  1.00  0.00     0.250 A 
HETATM    8  C15 UNL     1      -2.018  -2.221  -1.255  1.00  0.00     0.182 C 
HETATM    9  C16 UNL     1      -1.771  -0.941  -0.565  1.00  0.00     0.192 C 
ENDROOT
BRANCH   9  10
HETATM   10  O3  UNL     1      -2.954  -0.548   0.047  1.00  0.00    -0.363 OA
BRANCH  10  11
HETATM   11  C17 UNL     1      -3.549   0.559  -0.475  1.00  0.00     0.242 C 
HETATM   12  C18 UNL     1      -3.615   1.582   0.597  1.00  0.00     0.249 C 
HETATM   13  O4  UNL     1      -2.960   2.642   0.645  1.00  0.00    -0.271 OA
HETATM   14  N3  UNL     1      -4.518   1.303   1.656  1.00  0.00    -0.358 N 
HETATM   15  C19 UNL     1      -5.329   0.116   1.503  1.00  0.00     0.130 C 
ATOM     16  H3  UNL     1      -4.590   1.905   2.477  1.00  0.00     0.162 HD
HETATM   17  C20 UNL     1      -5.983   0.190   0.131  1.00  0.00     0.044 C 
HETATM   18  C23 UNL     1      -4.965   0.348  -0.960  1.00  0.00     0.162 C 
BRANCH  17  19
HETATM   19  C21 UNL     1      -6.985   1.318   0.188  1.00  0.00     0.108 C 
BRANCH  19  20
HETATM   20  C22 UNL     1      -7.724   1.499  -1.077  1.00  0.00     0.231 C 
HETATM   21  N4  UNL     1      -8.675   2.577  -1.235  1.00  0.00    -0.062 NA
HETATM   22  O5  UNL     1      -7.525   0.709  -2.023  1.00  0.00    -0.277 OA
ENDBRANCH  19  20
ENDBRANCH  17  19
BRANCH  18  23
HETATM   23  O6  UNL     1      -5.051  -0.695  -1.880  1.00  0.00    -0.392 OA
ATOM     24  H6  UNL     1      -5.941  -0.828  -2.185  1.00  0.00     0.210 HD
ENDBRANCH  18  23
ENDBRANCH  10  11
ENDBRANCH   9  10
BRANCH   1  25
HETATM   25  C10 UNL     1       0.358   0.197  -0.249  1.00  0.00     0.044 C 
BRANCH  25  26
HETATM   26  C9  UNL     1       1.613   0.359   0.564  1.00  0.00     0.003 C 
BRANCH  26  27
HETATM   27  C8  UNL     1       2.525   1.423  -0.014  1.00  0.00     0.000 C 
BRANCH  27  28
HETATM   28  C7  UNL     1       3.770   1.583   0.794  1.00  0.00     0.000 C 
BRANCH  28  29
HETATM   29  C6  UNL     1       4.590   0.327   0.878  1.00  0.00     0.000 C 
BRANCH  29  30
HETATM   30  C5  UNL     1       5.048  -0.178  -0.462  1.00  0.00     0.000 C 
BRANCH  30  31
HETATM   31  C4  UNL     1       5.899   0.792  -1.205  1.00  0.00     0.000 C 
BRANCH  31  32
HETATM   32  C3  UNL     1       7.134   1.143  -0.442  1.00  0.00    -0.000 C 
BRANCH  32  33
HETATM   33  C2  UNL     1       7.977  -0.082  -0.176  1.00  0.00    -0.005 C 
HETATM   34  C1  UNL     1       9.206   0.423   0.598  1.00  0.00     0.005 C 
ENDBRANCH  32  33
ENDBRANCH  31  32
ENDBRANCH  30  31
ENDBRANCH  29  30
ENDBRANCH  28  29
ENDBRANCH  27  28
ENDBRANCH  26  27
ENDBRANCH  25  26
ENDBRANCH   1  25
BRANCH   1  35
HETATM   35  N1  UNL     1      -0.894  -0.387   1.655  1.00  0.00    -0.065 N 
ATOM     36  H13 UNL     1      -0.078  -0.201   2.239  1.00  0.00     0.275 HD
ATOM     37  H12 UNL     1      -1.273   0.559   1.686  1.00  0.00     0.275 HD
ATOM     38  H11 UNL     1      -1.521  -1.099   2.029  1.00  0.00     0.275 HD
ENDBRANCH   1  35
BRANCH   8  39
HETATM   39  O2  UNL     1      -2.939  -3.019  -0.584  1.00  0.00    -0.391 OA
ATOM     40  H2  UNL     1      -3.695  -2.479  -0.388  1.00  0.00     0.210 HD
ENDBRANCH   8  39
BRANCH   2  41
HETATM   41  O1  UNL     1      -0.796  -2.935   1.324  1.00  0.00    -0.391 OA
ATOM     42  H1  UNL     1      -0.397  -3.787   1.454  1.00  0.00     0.210 HD
ENDBRANCH   2  41
TORSDOF 17
