REMARK  3 active torsions:
REMARK  status: ('A' for Active; 'I' for Inactive)
REMARK    1  A    between atoms: C2_2  and  C3_3 
REMARK    2  A    between atoms: C3_3  and  N1_5 
REMARK       I    between atoms: N1_5  and  C4_7 
REMARK    3  A    between atoms: C4_7  and  C5_9 
ROOT
HETATM    1  N1  UNL     1       1.652  -0.031  -0.321  1.00  0.00    -0.327 N 
ATOM      2  H1  UNL     1       1.495   0.028  -1.327  1.00  0.00     0.165 HD
HETATM    3  C4  UNL     1       0.591   0.304   0.558  1.00  0.00     0.225 C 
HETATM    4  O1  UNL     1       0.820   0.221   1.801  1.00  0.00    -0.273 OA
ENDROOT
BRANCH   3   5
HETATM    5  C5  UNL     1      -0.734   0.736   0.122  1.00  0.00     0.086 C 
HETATM    6  C6  UNL     1      -1.420  -0.259  -0.826  1.00  0.00    -0.001 C 
HETATM    7  C7  UNL     1      -1.619  -1.419   0.100  1.00  0.00     0.006 C 
HETATM    8  C11 UNL     1      -2.755   0.422  -1.007  1.00  0.00     0.006 C 
HETATM    9  C8  UNL     1      -1.888  -0.802   1.457  1.00  0.00     0.006 C 
HETATM   10  C9  UNL     1      -1.800   0.673   1.199  1.00  0.00    -0.001 C 
HETATM   11  C10 UNL     1      -3.009   1.064   0.359  1.00  0.00     0.006 C 
ENDBRANCH   3   5
BRANCH   1  12
HETATM   12  C3  UNL     1       2.930  -0.447   0.152  1.00  0.00     0.294 C 
HETATM   13  F1  UNL     1       3.170  -1.758  -0.254  1.00  0.00    -0.223 F 
BRANCH  12  14
HETATM   14  C2  UNL     1       4.038   0.431  -0.264  1.00  0.00     0.021 C 
HETATM   15  C1  UNL     1       4.814   0.052  -1.262  1.00  0.00     0.011 C 
ENDBRANCH  12  14
ENDBRANCH   1  12
TORSDOF 3
