REMARK  3 active torsions:
REMARK  status: ('A' for Active; 'I' for Inactive)
REMARK    1  A    between atoms: C1_2  and  C2_4 
REMARK    2  A    between atoms: C8_10  and  C9_11 
REMARK    3  A    between atoms: C9_11  and  N1_12 
ROOT
HETATM    1  C2  UNL     1      -1.252   0.802  -0.124  1.00  0.00     0.097 C 
HETATM    2  C3  UNL     1      -2.303  -0.214   0.276  1.00  0.00     0.001 C 
HETATM    3  C4  UNL     1      -2.230  -1.386  -0.652  1.00  0.00     0.006 C 
HETATM    4  C5  UNL     1      -0.839  -1.941  -0.368  1.00  0.00     0.005 C 
HETATM    5  C6  UNL     1      -0.296  -1.132   0.795  1.00  0.00    -0.007 C 
HETATM    6  C7  UNL     1      -1.623  -0.824   1.517  1.00  0.00     0.010 C 
HETATM    7  C8  UNL     1       0.078   0.248   0.358  1.00  0.00     0.033 C 
ENDROOT
BRANCH   7   8
HETATM    8  C9  UNL     1       1.129   0.294  -0.709  1.00  0.00     0.282 C 
BRANCH   8   9
HETATM    9  N1  UNL     1       2.366  -0.234  -0.224  1.00  0.00     0.129 N 
HETATM   10  C10 UNL     1       3.522  -0.282  -1.102  1.00  0.00     0.345 A 
HETATM   11  C11 UNL     1       3.488   0.650   0.033  1.00  0.00     0.433 A 
HETATM   12  F1  UNL     1       4.231   0.320   1.154  1.00  0.00    -0.214 F 
ENDBRANCH   8   9
ENDBRANCH   7   8
BRANCH   1  13
HETATM   13  C1  UNL     1      -1.480   2.093   0.579  1.00  0.00     0.177 C 
HETATM   14  O1  UNL     1      -2.415   2.287   1.383  1.00  0.00    -0.648 OA
HETATM   15  O2  UNL     1      -0.606   3.140   0.328  1.00  0.00    -0.648 OA
ENDBRANCH   1  13
TORSDOF 3
