REMARK  2 active torsions:
REMARK  status: ('A' for Active; 'I' for Inactive)
REMARK    1  A    between atoms: C2_2  and  C3_3 
REMARK    2  A    between atoms: C4_4  and  C5_5 
REMARK       I    between atoms: N2_10  and  C8_12 
ROOT
HETATM    1  C5  UNL     1      -0.475  -0.590   0.620  1.00  0.00     0.169 C 
HETATM    2  F1  UNL     1      -0.310  -1.459   1.707  1.00  0.00    -0.229 F 
HETATM    3  C6  UNL     1      -0.204   0.790   1.110  1.00  0.00     0.078 C 
HETATM    4  C7  UNL     1       0.792   1.547   0.256  1.00  0.00     0.147 C 
HETATM    5  N1  UNL     1       1.972   0.679   0.190  1.00  0.00    -0.325 N 
HETATM    6  N2  UNL     1       3.055   1.054   0.707  1.00  0.00    -0.276 N 
ATOM      7  H2  UNL     1       3.128   1.957   1.175  1.00  0.00     0.189 HD
HETATM    8  C8  UNL     1       4.175   0.181   0.619  1.00  0.00     0.200 C 
HETATM    9  N3  UNL     1       4.413  -0.649   1.561  1.00  0.00    -0.372 N 
ATOM     10  H31 UNL     1       5.216  -1.275   1.498  1.00  0.00     0.158 HD
ATOM     11  H32 UNL     1       3.832  -0.726   2.396  1.00  0.00     0.158 HD
HETATM   12  N4  UNL     1       4.984   0.288  -0.544  1.00  0.00    -0.062 NA
HETATM   13  C9  UNL     1       1.786  -0.582  -0.489  1.00  0.00     0.147 C 
HETATM   14  C10 UNL     1       0.374  -1.057  -0.495  1.00  0.00     0.078 C 
ENDROOT
BRANCH   1  15
HETATM   15  C4  UNL     1      -1.901  -0.695   0.254  1.00  0.00    -0.063 C 
HETATM   16  C3  UNL     1      -3.071  -0.766  -0.030  1.00  0.00    -0.104 C 
BRANCH  16  17
HETATM   17  C2  UNL     1      -4.510  -0.841  -0.357  1.00  0.00     0.089 C 
HETATM   18  C1  UNL     1      -5.146   0.532  -0.319  1.00  0.00     0.018 C 
ENDBRANCH  16  17
ENDBRANCH   1  15
TORSDOF 2
