REMARK  2 active torsions:
REMARK  status: ('A' for Active; 'I' for Inactive)
REMARK    1  A    between atoms: C2_2  and  C5_5 
REMARK    2  A    between atoms: N2_10  and  C7_11 
ROOT
HETATM    1  C5  UNL     1      -1.232   0.430  -0.340  1.00  0.00     0.108 A 
HETATM    2  N1  UNL     1      -0.671   1.263  -1.256  1.00  0.00    -0.295 N 
ATOM      3  H1  UNL     1      -1.172   1.902  -1.873  1.00  0.00     0.172 HD
HETATM    4  C6  UNL     1       0.660   1.095  -1.205  1.00  0.00     0.347 A 
HETATM    5  O1  UNL     1       1.450   1.737  -1.946  1.00  0.00    -0.245 OA
HETATM    6  N2  UNL     1       0.940   0.171  -0.271  1.00  0.00    -0.201 N 
HETATM    7  N3  UNL     1      -0.219  -0.210   0.232  1.00  0.00    -0.277 N 
ATOM      8  H3  UNL     1      -0.324  -0.909   0.968  1.00  0.00     0.189 HD
ENDROOT
BRANCH   6   9
HETATM    9  C7  UNL     1       2.252  -0.263   0.060  1.00  0.00     0.108 A 
HETATM   10  C8  UNL     1       2.801  -0.051   1.309  1.00  0.00     0.088 A 
HETATM   11 CL1  UNL     1       1.816   0.781   2.495  1.00  0.00    -0.080 Cl
HETATM   12  C9  UNL     1       4.082  -0.478   1.620  1.00  0.00     0.081 A 
HETATM   13 CL2  UNL     1       4.747  -0.191   3.220  1.00  0.00    -0.081 Cl
HETATM   14  C10 UNL     1       4.861  -1.131   0.692  1.00  0.00     0.081 A 
HETATM   15 CL3  UNL     1       6.489  -1.668   1.108  1.00  0.00    -0.081 Cl
HETATM   16  C11 UNL     1       4.326  -1.350  -0.559  1.00  0.00     0.081 A 
HETATM   17 CL4  UNL     1       5.312  -2.181  -1.742  1.00  0.00    -0.081 Cl
HETATM   18  C12 UNL     1       3.049  -0.921  -0.858  1.00  0.00     0.088 A 
HETATM   19 CL5  UNL     1       2.369  -1.205  -2.468  1.00  0.00    -0.080 Cl
ENDBRANCH   6   9
BRANCH   1  20
HETATM   20  C2  UNL     1      -2.698   0.357  -0.128  1.00  0.00     0.009 C 
HETATM   21  C1  UNL     1      -3.319   1.713  -0.464  1.00  0.00     0.023 C 
HETATM   22  C3  UNL     1      -3.058   0.072   1.315  1.00  0.00     0.023 C 
HETATM   23  C4  UNL     1      -3.290  -0.656  -1.065  1.00  0.00     0.023 C 
ENDBRANCH   1  20
TORSDOF 2
