REMARK  6 active torsions:
REMARK  status: ('A' for Active; 'I' for Inactive)
REMARK    1  A    between atoms: N1_2  and  C2_4 
REMARK    2  A    between atoms: C4_6  and  S1_7 
REMARK    3  A    between atoms: C6_11  and  C7_12 
REMARK    4  A    between atoms: C7_12  and  N2_13 
REMARK    5  A    between atoms: N3_16  and  C10_17 
REMARK    6  A    between atoms: C10_17  and  C11_18 
ROOT
HETATM    1  N2  UNL     1       0.532   0.194  -0.436  1.00  0.00    -0.385 N 
HETATM    2  C8  UNL     1      -0.082  -0.917  -0.904  1.00  0.00     0.152 C 
HETATM    3  C9  UNL     1      -1.281  -1.156   0.077  1.00  0.00     0.292 C 
HETATM    4  N3  UNL     1      -2.331  -0.244  -0.372  1.00  0.00     0.095 N 
HETATM    5  C17 UNL     1      -1.702   0.947  -0.916  1.00  0.00     0.292 C 
HETATM    6  C18 UNL     1      -0.430   1.289  -0.172  1.00  0.00     0.152 C 
ENDROOT
BRANCH   1   7
HETATM    7  C7  UNL     1       1.777   0.753  -0.659  1.00  0.00     0.106 C 
BRANCH   7   8
HETATM    8  C6  UNL     1       2.982  -0.111  -0.638  1.00  0.00     0.043 A 
HETATM    9  C4  UNL     1       3.967  -0.202   0.306  1.00  0.00     0.080 A 
HETATM   10  C3  UNL     1       5.124  -0.826  -0.033  1.00  0.00     0.062 A 
HETATM   11  C2  UNL     1       5.231  -1.320  -1.302  1.00  0.00     0.075 A 
HETATM   12  S2  UNL     1       3.670  -0.892  -1.978  1.00  0.00    -0.070 SA
BRANCH   9  13
HETATM   13  S1  UNL     1       3.696   0.489   1.935  1.00  0.00     0.173 S 
HETATM   14  C5  UNL     1       3.754   2.257   1.900  1.00  0.00     0.167 C 
HETATM   15  O1  UNL     1       2.319   0.023   2.424  1.00  0.00    -0.223 OA
HETATM   16  O2  UNL     1       4.675  -0.012   2.924  1.00  0.00    -0.223 OA
ENDBRANCH   9  13
BRANCH  11  17
HETATM   17  N1  UNL     1       6.340  -1.897  -1.996  1.00  0.00    -0.370 N 
HETATM   18  C1  UNL     1       7.471  -2.030  -1.537  1.00  0.00     0.118 C 
ATOM     19  H1  UNL     1       6.179  -2.224  -2.949  1.00  0.00     0.165 HD
ENDBRANCH  11  17
ENDBRANCH   7   8
ENDBRANCH   1   7
BRANCH   4  20
HETATM   20  C10 UNL     1      -3.145   0.205   0.747  1.00  0.00     0.311 C 
BRANCH  20  21
HETATM   21  C11 UNL     1      -4.575  -0.133   0.408  1.00  0.00    -0.027 A 
HETATM   22  C12 UNL     1      -4.805  -1.508   0.305  1.00  0.00     0.032 A 
HETATM   23  C13 UNL     1      -6.095  -1.901  -0.023  1.00  0.00     0.036 A 
HETATM   24 CL1  UNL     1      -6.416  -3.621  -0.158  1.00  0.00    -0.084 Cl
HETATM   25  C14 UNL     1      -7.065  -0.955  -0.220  1.00  0.00     0.047 A 
HETATM   26  C15 UNL     1      -6.849   0.410  -0.118  1.00  0.00     0.036 A 
HETATM   27 CL2  UNL     1      -8.157   1.517  -0.397  1.00  0.00    -0.084 Cl
HETATM   28  C16 UNL     1      -5.562   0.791   0.210  1.00  0.00     0.032 A 
ENDBRANCH  20  21
ENDBRANCH   4  20
TORSDOF 6
