REMARK  14 active torsions:
REMARK  status: ('A' for Active; 'I' for Inactive)
REMARK    1  A    between atoms: C2_2  and  O2_4 
REMARK    2  A    between atoms: O2_4  and  C3_5 
REMARK    3  A    between atoms: C18_20  and  O3_21 
REMARK    4  A    between atoms: O3_21  and  C19_22 
REMARK    5  A    between atoms: C20_24  and  C21_25 
REMARK    6  A    between atoms: C21_25  and  O5_26 
REMARK    7  A    between atoms: O5_26  and  C22_27 
REMARK    8  A    between atoms: C22_27  and  C23_29 
REMARK    9  A    between atoms: C23_29  and  C24_30 
REMARK   10  A    between atoms: C24_30  and  C25_31 
REMARK   11  A    between atoms: C25_31  and  N1_32 
REMARK   12  A    between atoms: C25_31  and  C26_36 
REMARK   13  A    between atoms: C28_40  and  O9_41 
REMARK   14  A    between atoms: C29_43  and  C30_44 
ROOT
HETATM    1  C3  UNL     1      -3.411  -1.167  -1.179  1.00  0.00     0.160 C 
HETATM    2  C4  UNL     1      -4.598  -1.120  -0.191  1.00  0.00     0.040 C 
HETATM    3  C5  UNL     1      -5.079   0.101   0.381  1.00  0.00    -0.003 C 
HETATM    4  C6  UNL     1      -6.278  -0.280   1.274  1.00  0.00    -0.002 A 
HETATM    5  C7  UNL     1      -6.041  -0.676   2.657  1.00  0.00     0.006 A 
HETATM    6  C8  UNL     1      -6.595   0.630   3.153  1.00  0.00     0.010 A 
HETATM    7  C9  UNL     1      -6.928   0.979   1.730  1.00  0.00    -0.040 A 
HETATM    8  C10 UNL     1      -8.428   0.914   1.409  1.00  0.00     0.015 C 
HETATM    9  C11 UNL     1      -6.373   2.243   1.197  1.00  0.00     0.010 C 
HETATM   10  C12 UNL     1      -4.866   2.364   1.278  1.00  0.00     0.006 C 
HETATM   11  C13 UNL     1      -4.230   1.035   1.196  1.00  0.00    -0.002 C 
HETATM   12  C14 UNL     1      -2.869   0.962   0.566  1.00  0.00    -0.038 C 
HETATM   13  C15 UNL     1      -3.046   1.650  -0.704  1.00  0.00     0.015 C 
HETATM   14  C16 UNL     1      -1.751   1.754   1.222  1.00  0.00     0.012 C 
HETATM   15  C17 UNL     1      -0.670   1.573   0.127  1.00  0.00     0.037 C 
HETATM   16  C18 UNL     1      -0.157   0.240  -0.085  1.00  0.00     0.156 C 
HETATM   17  C29 UNL     1      -0.801  -0.879  -0.826  1.00  0.00    -0.024 C 
HETATM   18  C33 UNL     1      -2.175  -1.257  -0.459  1.00  0.00     0.090 C 
HETATM   19 CL1  UNL     1      -2.235  -2.942   0.285  1.00  0.00    -0.111 Cl
HETATM   20  C34 UNL     1      -2.447  -0.405   0.804  1.00  0.00     0.042 C 
ENDROOT
BRANCH  16  21
HETATM   21  O3  UNL     1       1.086   0.472  -0.755  1.00  0.00    -0.349 OA
BRANCH  21  22
HETATM   22  C19 UNL     1       2.179   0.349   0.066  1.00  0.00     0.289 C 
HETATM   23  O4  UNL     1       3.073  -0.592  -0.366  1.00  0.00    -0.351 OA
HETATM   24  C20 UNL     1       4.211  -0.382   0.479  1.00  0.00     0.151 C 
HETATM   25  C27 UNL     1       4.410   1.099   0.350  1.00  0.00     0.071 C 
HETATM   26  C28 UNL     1       2.997   1.609   0.156  1.00  0.00     0.175 C 
BRANCH  24  27
HETATM   27  C21 UNL     1       5.314  -1.142  -0.197  1.00  0.00     0.210 C 
BRANCH  27  28
HETATM   28  O5  UNL     1       6.485  -1.266   0.440  1.00  0.00    -0.319 OA
BRANCH  28  29
HETATM   29  C22 UNL     1       7.481  -0.481   0.871  1.00  0.00     0.258 C 
HETATM   30  O6  UNL     1       7.412   0.749   0.667  1.00  0.00    -0.265 OA
BRANCH  29  31
HETATM   31  C23 UNL     1       8.685  -1.047   1.597  1.00  0.00     0.113 C 
BRANCH  31  32
HETATM   32  C24 UNL     1       9.677   0.026   1.828  1.00  0.00     0.054 C 
BRANCH  32  33
HETATM   33  C25 UNL     1      10.240   0.612   0.585  1.00  0.00     0.283 C 
BRANCH  33  34
HETATM   34  N1  UNL     1      11.207   1.677   0.925  1.00  0.00    -0.065 N 
ATOM     35  H13 UNL     1      10.797   2.387   1.532  1.00  0.00     0.275 HD
ATOM     36  H12 UNL     1      11.936   1.345   1.557  1.00  0.00     0.275 HD
ATOM     37  H11 UNL     1      11.594   2.079   0.071  1.00  0.00     0.275 HD
ENDBRANCH  33  34
BRANCH  33  38
HETATM   38  C26 UNL     1      10.995  -0.444  -0.163  1.00  0.00     0.204 C 
HETATM   39  O7  UNL     1      10.461  -1.430  -0.722  1.00  0.00    -0.646 OA
HETATM   40  O8  UNL     1      12.376  -0.324  -0.245  1.00  0.00    -0.646 OA
ENDBRANCH  33  38
ENDBRANCH  32  33
ENDBRANCH  31  32
ENDBRANCH  29  31
ENDBRANCH  28  29
ENDBRANCH  27  28
ENDBRANCH  24  27
BRANCH  26  41
HETATM   41  O9  UNL     1       2.979   2.318  -1.057  1.00  0.00    -0.391 OA
ATOM     42  H9  UNL     1       3.495   3.113  -1.000  1.00  0.00     0.210 HD
ENDBRANCH  26  41
ENDBRANCH  21  22
ENDBRANCH  16  21
BRANCH  17  43
HETATM   43  C30 UNL     1      -0.279  -1.138  -2.197  1.00  0.00    -0.081 C 
HETATM   44  C31 UNL     1      -0.393  -0.117  -3.256  1.00  0.00     0.043 C 
HETATM   45  C32 UNL     1      -0.483  -2.502  -2.772  1.00  0.00     0.043 C 
ENDBRANCH  17  43
BRANCH   1  46
HETATM   46  O2  UNL     1      -3.671  -2.472  -1.778  1.00  0.00    -0.314 OA
BRANCH  46  47
HETATM   47  C2  UNL     1      -4.179  -2.599  -3.061  1.00  0.00     0.255 C 
HETATM   48  C1  UNL     1      -4.422  -3.980  -3.613  1.00  0.00     0.126 C 
HETATM   49  O1  UNL     1      -4.423  -1.572  -3.728  1.00  0.00    -0.266 OA
ENDBRANCH  46  47
ENDBRANCH   1  46
TORSDOF 14
