REMARK  9 active torsions:
REMARK  status: ('A' for Active; 'I' for Inactive)
REMARK    1  A    between atoms: C2_2  and  O2_4 
REMARK    2  A    between atoms: O2_4  and  C3_5 
REMARK    3  A    between atoms: C3_5  and  C4_6 
REMARK    4  A    between atoms: C4_6  and  O4_8 
REMARK    5  A    between atoms: O4_8  and  C5_9 
REMARK    6  A    between atoms: C5_9  and  C6_10 
REMARK    7  A    between atoms: C6_10  and  O5_11 
REMARK    8  A    between atoms: O5_11  and  C7_12 
REMARK    9  A    between atoms: C7_12  and  C8_14 
ROOT
HETATM    1  C3  UNL     1      -3.504   0.445  -1.171  1.00  0.00     0.255 C 
HETATM    2  C18 UNL     1      -3.351  -0.012  -2.678  1.00  0.00     0.271 C 
HETATM    3  O7  UNL     1      -2.773   0.701  -3.507  1.00  0.00    -0.269 OA
HETATM    4  N1  UNL     1      -3.972  -1.251  -2.715  1.00  0.00    -0.294 N 
ATOM      5  H1  UNL     1      -3.694  -2.021  -3.323  1.00  0.00     0.171 HD
HETATM    6  C19 UNL     1      -5.043  -1.300  -1.794  1.00  0.00     0.238 C 
HETATM    7  O8  UNL     1      -6.075  -1.968  -1.965  1.00  0.00    -0.272 OA
HETATM    8  C20 UNL     1      -4.601  -0.385  -0.654  1.00  0.00     0.107 A 
HETATM    9  C21 UNL     1      -5.678  -0.113   0.280  1.00  0.00    -0.018 A 
HETATM   10  C22 UNL     1      -5.851   1.100   1.152  1.00  0.00     0.017 C 
HETATM   11  C23 UNL     1      -7.046  -0.822   0.086  1.00  0.00     0.017 C 
HETATM   12  C24 UNL     1      -4.529  -1.082   0.655  1.00  0.00    -0.018 A 
HETATM   13  C25 UNL     1      -4.910  -2.541   0.805  1.00  0.00     0.017 C 
HETATM   14  C26 UNL     1      -3.760  -0.597   1.838  1.00  0.00     0.017 C 
ENDROOT
BRANCH   1  15
HETATM   15  O2  UNL     1      -3.738   1.753  -1.364  1.00  0.00    -0.288 OA
BRANCH  15  16
HETATM   16  C2  UNL     1      -3.533   2.850  -0.652  1.00  0.00     0.256 C 
HETATM   17  C1  UNL     1      -3.956   4.201  -1.145  1.00  0.00     0.126 C 
HETATM   18  O1  UNL     1      -2.982   2.796   0.453  1.00  0.00    -0.266 OA
ENDBRANCH  15  16
ENDBRANCH   1  15
BRANCH   1  19
HETATM   19  C4  UNL     1      -2.124   0.048  -0.751  1.00  0.00     0.305 C 
HETATM   20  O3  UNL     1      -1.913  -1.153  -0.557  1.00  0.00    -0.261 OA
BRANCH  19  21
HETATM   21  O4  UNL     1      -1.128   0.941  -0.584  1.00  0.00    -0.317 OA
BRANCH  21  22
HETATM   22  C5  UNL     1       0.199   0.653  -0.196  1.00  0.00     0.205 C 
BRANCH  22  23
HETATM   23  C6  UNL     1       0.947  -0.231  -1.133  1.00  0.00     0.205 C 
BRANCH  23  24
HETATM   24  O5  UNL     1       2.248  -0.469  -0.684  1.00  0.00    -0.319 OA
BRANCH  24  25
HETATM   25  C7  UNL     1       3.210   0.484  -0.506  1.00  0.00     0.267 C 
HETATM   26  O6  UNL     1       2.989   1.690  -0.746  1.00  0.00    -0.264 OA
BRANCH  25  27
HETATM   27  C8  UNL     1       4.550   0.053  -0.013  1.00  0.00     0.049 C 
HETATM   28  C9  UNL     1       4.386  -0.602   1.330  1.00  0.00     0.024 C 
HETATM   29  C10 UNL     1       5.730  -1.035   1.870  1.00  0.00    -0.013 C 
HETATM   30  C11 UNL     1       6.364  -1.975   0.862  1.00  0.00     0.009 C 
HETATM   31  C15 UNL     1       6.606   0.185   2.055  1.00  0.00     0.009 C 
HETATM   32  C12 UNL     1       6.566  -1.261  -0.443  1.00  0.00    -0.013 C 
HETATM   33  C13 UNL     1       7.464  -0.068  -0.223  1.00  0.00     0.009 C 
HETATM   34  C17 UNL     1       5.242  -0.807  -1.023  1.00  0.00     0.024 C 
HETATM   35  C14 UNL     1       6.765   0.865   0.730  1.00  0.00    -0.013 C 
HETATM   36  C16 UNL     1       5.419   1.293   0.208  1.00  0.00     0.024 C 
ENDBRANCH  25  27
ENDBRANCH  24  25
ENDBRANCH  23  24
ENDBRANCH  22  23
ENDBRANCH  21  22
ENDBRANCH  19  21
ENDBRANCH   1  19
TORSDOF 9
