REMARK  16 active torsions:
REMARK  status: ('A' for Active; 'I' for Inactive)
REMARK    1  A    between atoms: C2_2  and  C3_3 
REMARK    2  A    between atoms: C4_4  and  C5_5 
REMARK    3  A    between atoms: C7_10  and  N3_11 
REMARK    4  A    between atoms: N3_11  and  C8_13 
REMARK    5  A    between atoms: C8_13  and  C9_14 
REMARK    6  A    between atoms: C12_17  and  O1_18 
REMARK    7  A    between atoms: C15_24  and  N5_25 
REMARK    8  A    between atoms: N5_25  and  C16_27 
REMARK    9  A    between atoms: C16_27  and  C17_28 
REMARK   10  A    between atoms: C17_28  and  N6_29 
REMARK   11  A    between atoms: N6_29  and  C18_31 
REMARK   12  A    between atoms: C19_34  and  N8_35 
REMARK   13  A    between atoms: N8_35  and  C20_37 
REMARK   14  A    between atoms: C20_37  and  C21_38 
REMARK   15  A    between atoms: C21_38  and  N9_39 
REMARK   16  A    between atoms: N11_45  and  O2_46 
ROOT
HETATM    1  C5  UNL     1       1.862  -2.563   0.134  1.00  0.00     0.103 A 
HETATM    2  C6  UNL     1       3.216  -2.656   0.372  1.00  0.00     0.154 A 
HETATM    3  N1  UNL     1       3.666  -3.773   1.128  1.00  0.00    -0.080 NA
HETATM    4  N2  UNL     1       4.103  -1.720  -0.094  1.00  0.00    -0.177 N 
ATOM      5  H2  UNL     1       5.102  -1.809   0.094  1.00  0.00     0.185 HD
HETATM    6  C7  UNL     1       3.630  -0.687  -0.801  1.00  0.00     0.681 A 
HETATM    7  N4  UNL     1       2.284  -0.576  -1.049  1.00  0.00    -0.175 N 
ATOM      8  H4  UNL     1       1.941   0.218  -1.590  1.00  0.00     0.186 HD
HETATM    9  C15 UNL     1       1.411  -1.485  -0.597  1.00  0.00     0.139 A 
ENDROOT
BRANCH   9  10
HETATM   10  N5  UNL     1       0.142  -1.415  -0.808  1.00  0.00    -0.373 N 
ATOM     11  H5  UNL     1      -0.482  -2.134  -0.442  1.00  0.00     0.161 HD
BRANCH  10  12
HETATM   12  C16 UNL     1      -0.397  -0.291  -1.580  1.00  0.00     0.141 C 
BRANCH  12  13
HETATM   13  C17 UNL     1      -1.914  -0.264  -1.487  1.00  0.00     0.158 C 
BRANCH  13  14
HETATM   14  N6  UNL     1      -2.307  -0.121  -0.099  1.00  0.00    -0.221 N 
ATOM     15  H6  UNL     1      -1.643  -0.354   0.639  1.00  0.00     0.177 HD
BRANCH  14  16
HETATM   16  C18 UNL     1      -3.502   0.303   0.219  1.00  0.00     0.735 A 
HETATM   17  N7  UNL     1      -4.461   0.640  -0.662  1.00  0.00    -0.018 N 
HETATM   18  C19 UNL     1      -5.546   1.025   0.024  1.00  0.00     0.709 A 
ATOM     19  H7  UNL     1      -4.377   0.608  -1.678  1.00  0.00     0.203 HD
HETATM   20  N10 UNL     1      -5.250   0.925   1.340  1.00  0.00    -0.090 N 
HETATM   21  N11 UNL     1      -4.010   0.487   1.447  1.00  0.00     0.031 N 
ATOM     22  H10 UNL     1      -5.876   1.149   2.114  1.00  0.00     0.209 HD
BRANCH  18  23
HETATM   23  N8  UNL     1      -6.669   1.420  -0.507  1.00  0.00    -0.223 N 
ATOM     24  H8  UNL     1      -6.787   1.458  -1.519  1.00  0.00     0.177 HD
BRANCH  23  25
HETATM   25  C20 UNL     1      -7.743   1.803   0.384  1.00  0.00     0.165 C 
BRANCH  25  26
HETATM   26  C21 UNL     1      -8.951   2.117  -0.476  1.00  0.00     0.249 C 
BRANCH  26  27
HETATM   27  N9  UNL     1     -10.054   2.507   0.389  1.00  0.00    -0.078 N 
ATOM     28  H93 UNL     1     -10.255   1.807   1.103  1.00  0.00     0.274 HD
ATOM     29  H92 UNL     1      -9.808   3.277   1.011  1.00  0.00     0.274 HD
ATOM     30  H91 UNL     1     -10.867   2.718  -0.190  1.00  0.00     0.274 HD
ENDBRANCH  26  27
ENDBRANCH  25  26
ENDBRANCH  23  25
ENDBRANCH  18  23
BRANCH  21  31
HETATM   31  O2  UNL     1      -3.339   0.254   2.630  1.00  0.00    -0.254 OA
ATOM     32  H2  UNL     1      -3.699   0.384   3.500  1.00  0.00     0.247 HD
ENDBRANCH  21  31
ENDBRANCH  14  16
ENDBRANCH  13  14
ENDBRANCH  12  13
ENDBRANCH  10  12
ENDBRANCH   9  10
BRANCH   1  33
HETATM   33  C4  UNL     1       0.936  -3.555   0.627  1.00  0.00    -0.055 C 
HETATM   34  C3  UNL     1       0.151  -4.394   1.021  1.00  0.00    -0.074 C 
BRANCH  34  35
HETATM   35  C2  UNL     1      -0.794  -5.378   1.467  1.00  0.00     0.054 C 
HETATM   36  C1  UNL     1      -0.414  -6.523   2.010  1.00  0.00     0.020 C 
ENDBRANCH  34  35
ENDBRANCH   1  33
BRANCH   6  37
HETATM   37  N3  UNL     1       4.424   0.198  -1.252  1.00  0.00    -0.222 N 
ATOM     38  H3  UNL     1       3.989   0.954  -1.781  1.00  0.00     0.178 HD
BRANCH  37  39
HETATM   39  C8  UNL     1       5.836   0.274  -1.117  1.00  0.00     0.176 C 
BRANCH  39  40
HETATM   40  C9  UNL     1       6.186   1.528  -0.383  1.00  0.00    -0.040 A 
HETATM   41  C10 UNL     1       6.246   1.501   0.980  1.00  0.00     0.011 A 
HETATM   42  C11 UNL     1       6.570   2.665   1.646  1.00  0.00     0.037 A 
HETATM   43  C12 UNL     1       6.820   3.809   0.914  1.00  0.00     0.065 A 
HETATM   44  C13 UNL     1       6.750   3.802  -0.484  1.00  0.00     0.037 A 
HETATM   45  C14 UNL     1       6.430   2.652  -1.136  1.00  0.00     0.011 A 
BRANCH  43  46
HETATM   46  O1  UNL     1       7.145   4.974   1.586  1.00  0.00    -0.361 OA
ATOM     47  H1  UNL     1       7.317   5.761   1.082  1.00  0.00     0.217 HD
ENDBRANCH  43  46
ENDBRANCH  39  40
ENDBRANCH  37  39
ENDBRANCH   6  37
TORSDOF 16
