REMARK  6 active torsions:
REMARK  status: ('A' for Active; 'I' for Inactive)
REMARK    1  A    between atoms: C3_3  and  O1_4 
REMARK    2  A    between atoms: C9_11  and  C10_12 
REMARK    3  A    between atoms: C13_16  and  O3_17 
REMARK    4  A    between atoms: O3_17  and  S1_18 
REMARK    5  A    between atoms: S1_18  and  N1_19 
REMARK    6  A    between atoms: S1_18  and  N2_22 
ROOT
HETATM    1  C1  UNL     1      -3.033   2.325   3.440  1.00  0.00     0.015 C 
HETATM    2  C2  UNL     1      -3.483   1.332   2.931  1.00  0.00    -0.078 C 
HETATM    3  C3  UNL     1      -4.000   0.131   2.324  1.00  0.00     0.128 C 
HETATM    4  C4  UNL     1      -3.155  -1.047   2.810  1.00  0.00     0.052 C 
HETATM    5  C5  UNL     1      -2.364  -1.532   1.617  1.00  0.00     0.010 C 
HETATM    6  C6  UNL     1      -2.366  -0.319   0.709  1.00  0.00     0.006 C 
HETATM    7  C7  UNL     1      -1.943  -0.553  -0.674  1.00  0.00     0.023 C 
HETATM    8  C8  UNL     1      -0.539  -0.019  -0.980  1.00  0.00    -0.074 C 
HETATM    9  C9  UNL     1       0.399   0.111  -0.094  1.00  0.00     0.010 C 
HETATM   10  C16 UNL     1      -0.564   0.276  -2.407  1.00  0.00     0.035 C 
HETATM   11  C17 UNL     1      -1.976   0.414  -2.869  1.00  0.00     0.009 C 
HETATM   12  C18 UNL     1      -2.821   0.159  -1.648  1.00  0.00    -0.006 C 
HETATM   13  C19 UNL     1      -3.286   1.505  -1.136  1.00  0.00     0.006 C 
HETATM   14  C20 UNL     1      -4.035   1.390   0.157  1.00  0.00     0.014 C 
HETATM   15  C21 UNL     1      -3.809   0.085   0.813  1.00  0.00     0.003 C 
HETATM   16  C22 UNL     1      -4.785  -0.932   0.301  1.00  0.00     0.020 C 
ENDROOT
BRANCH   3  17
HETATM   17  O1  UNL     1      -5.315  -0.133   2.680  1.00  0.00    -0.377 OA
ATOM     18  H1  UNL     1      -5.656  -0.924   2.280  1.00  0.00     0.211 HD
ENDBRANCH   3  17
BRANCH   9  19
HETATM   19  C10 UNL     1       1.763   0.570  -0.116  1.00  0.00    -0.059 C 
HETATM   20  C11 UNL     1       2.366   0.538   1.094  1.00  0.00     0.006 C 
HETATM   21  C12 UNL     1       3.723   0.906   1.533  1.00  0.00     0.199 C 
HETATM   22  O2  UNL     1       4.495   1.526   0.598  1.00  0.00    -0.356 OA
HETATM   23  C13 UNL     1       4.640   0.628  -0.463  1.00  0.00     0.279 C 
HETATM   24  C14 UNL     1       3.776   1.095  -1.566  1.00  0.00     0.066 C 
HETATM   25  C15 UNL     1       2.308   0.986  -1.401  1.00  0.00     0.043 C 
BRANCH  23  26
HETATM   26  O3  UNL     1       4.511  -0.688  -0.102  1.00  0.00    -0.243 OA
BRANCH  26  27
HETATM   27  S1  UNL     1       5.813  -1.747  -0.231  1.00  0.00     0.229 S 
HETATM   28  O4  UNL     1       5.062  -1.674  -2.198  1.00  0.00    -0.199 OA
BRANCH  27  29
HETATM   29  N1  UNL     1       7.067  -0.767   0.130  1.00  0.00    -0.323 N 
ATOM     30  H12 UNL     1       7.051   0.224   0.369  1.00  0.00     0.169 HD
ATOM     31  H11 UNL     1       7.856  -1.409   0.052  1.00  0.00     0.169 HD
ENDBRANCH  27  29
BRANCH  27  32
HETATM   32  N2  UNL     1       4.902  -3.109   0.632  1.00  0.00    -0.323 N 
ATOM     33  H22 UNL     1       3.965  -3.178   1.030  1.00  0.00     0.169 HD
ATOM     34  H21 UNL     1       5.691  -3.751   0.554  1.00  0.00     0.169 HD
ENDBRANCH  27  32
ENDBRANCH  26  27
ENDBRANCH  23  26
ENDBRANCH   9  19
TORSDOF 6
