REMARK  6 active torsions:
REMARK  status: ('A' for Active; 'I' for Inactive)
REMARK    1  A    between atoms: N1_2  and  C2_5 
REMARK    2  A    between atoms: C7_11  and  O2_12 
REMARK    3  A    between atoms: C12_18  and  C13_19 
REMARK    4  A    between atoms: C13_19  and  O4_21 
REMARK    5  A    between atoms: O4_21  and  C14_22 
REMARK    6  A    between atoms: C24_32  and  O5_33 
ROOT
HETATM    1  C2  UNL     1      -3.953   1.143  -0.007  1.00  0.00     0.211 C 
HETATM    2  C3  UNL     1      -3.084   0.982   1.151  1.00  0.00     0.202 C 
HETATM    3  O1  UNL     1      -1.954   0.272   1.078  1.00  0.00    -0.373 OA
HETATM    4  C4  UNL     1      -1.879  -0.821   0.269  1.00  0.00     0.122 A 
HETATM    5  C5  UNL     1      -2.651  -2.050   0.482  1.00  0.00     0.062 A 
HETATM    6  C6  UNL     1      -3.760  -2.150   1.491  1.00  0.00     0.017 C 
HETATM    7  C7  UNL     1      -1.238  -2.030   0.939  1.00  0.00     0.115 A 
HETATM    8  C8  UNL     1      -0.252  -2.753   0.166  1.00  0.00     0.010 C 
HETATM    9  C9  UNL     1      -0.062  -2.589  -1.116  1.00  0.00    -0.022 C 
HETATM   10  C10 UNL     1      -0.876  -1.616  -1.877  1.00  0.00     0.028 C 
HETATM   11  C11 UNL     1      -0.065  -1.230  -3.071  1.00  0.00     0.015 C 
HETATM   12  C12 UNL     1      -1.255  -0.425  -1.018  1.00  0.00     0.115 C 
HETATM   13  C24 UNL     1      -2.254   0.449  -1.741  1.00  0.00     0.142 C 
HETATM   14  C25 UNL     1      -3.656   0.356  -1.249  1.00  0.00     0.068 C 
ENDROOT
BRANCH  12  15
HETATM   15  C13 UNL     1      -0.060   0.432  -0.759  1.00  0.00     0.274 C 
HETATM   16  O3  UNL     1       0.020   1.636  -1.179  1.00  0.00    -0.264 OA
BRANCH  15  17
HETATM   17  O4  UNL     1       1.066   0.040  -0.056  1.00  0.00    -0.314 OA
BRANCH  17  18
HETATM   18  C14 UNL     1       2.177   0.851   0.180  1.00  0.00     0.140 C 
HETATM   19  C15 UNL     1       3.325   0.222  -0.604  1.00  0.00     0.016 C 
HETATM   20  C16 UNL     1       4.533   1.128  -0.627  1.00  0.00     0.012 C 
HETATM   21  C20 UNL     1       3.637  -1.094   0.040  1.00  0.00     0.012 C 
HETATM   22  C17 UNL     1       4.980   1.345   0.789  1.00  0.00    -0.013 C 
HETATM   23  C18 UNL     1       5.383   0.009   1.374  1.00  0.00     0.009 C 
HETATM   24  C23 UNL     1       3.844   1.928   1.568  1.00  0.00     0.012 C 
HETATM   25  C19 UNL     1       4.173  -0.870   1.444  1.00  0.00    -0.013 C 
HETATM   26  C21 UNL     1       3.053  -0.269   2.250  1.00  0.00     0.012 C 
HETATM   27  C22 UNL     1       2.620   1.002   1.583  1.00  0.00     0.016 C 
ENDBRANCH  17  18
ENDBRANCH  15  17
ENDBRANCH  12  15
BRANCH  13  28
HETATM   28  O5  UNL     1      -2.275   0.201  -3.111  1.00  0.00    -0.394 OA
ATOM     29  H5  UNL     1      -2.903   0.750  -3.565  1.00  0.00     0.210 HD
ENDBRANCH  13  28
BRANCH   7  30
HETATM   30  O2  UNL     1      -1.111  -1.995   2.335  1.00  0.00    -0.382 OA
ATOM     31  H2  UNL     1      -0.711  -2.749   2.753  1.00  0.00     0.211 HD
ENDBRANCH   7  30
BRANCH   1  32
HETATM   32  N1  UNL     1      -3.982   2.564  -0.399  1.00  0.00    -0.073 N 
HETATM   33  C1  UNL     1      -4.527   3.400   0.619  1.00  0.00     0.267 C 
ATOM     34  H12 UNL     1      -4.476   2.691  -1.282  1.00  0.00     0.277 HD
ATOM     35  H11 UNL     1      -3.056   2.886  -0.682  1.00  0.00     0.277 HD
ENDBRANCH   1  32
TORSDOF 6
