REMARK  9 active torsions:
REMARK  status: ('A' for Active; 'I' for Inactive)
REMARK       I    between atoms: C1_4  and  N3_6 
REMARK    1  A    between atoms: C4_10  and  C5_11 
REMARK    2  A    between atoms: C5_11  and  N4_12 
REMARK    3  A    between atoms: C5_11  and  O1_15 
REMARK    4  A    between atoms: O1_15  and  C6_16 
REMARK    5  A    between atoms: C6_16  and  C7_17 
REMARK    6  A    between atoms: C7_17  and  O2_18 
REMARK    7  A    between atoms: C7_17  and  N5_20 
REMARK    8  A    between atoms: N5_20  and  N6_21 
REMARK       I    between atoms: N6_21  and  C8_23 
REMARK    9  A    between atoms: C8_23  and  C9_25 
ROOT
HETATM    1  C5  UNL     1       0.547   0.205   0.393  1.00  0.00     0.168 C 
ENDROOT
BRANCH   1   2
HETATM    2  C4  UNL     1       1.856  -0.288   0.360  1.00  0.00     0.088 A 
HETATM    3  C3  UNL     1       2.908   0.606   0.162  1.00  0.00     0.082 A 
HETATM    4  C2  UNL     1       4.254   0.062   0.087  1.00  0.00     0.110 A 
HETATM    5  N3  UNL     1       5.095   1.007  -0.097  1.00  0.00    -0.317 N 
HETATM    6  N9  UNL     1       4.555  -1.213   0.173  1.00  0.00    -0.338 N 
HETATM    7  C1  UNL     1       6.363   1.271  -0.259  1.00  0.00     0.187 C 
ATOM      8  H3  UNL     1       4.581   1.887  -0.130  1.00  0.00     0.170 HD
HETATM    9  N1  UNL     1       6.946   2.478  -0.430  1.00  0.00    -0.373 N 
HETATM   10  N2  UNL     1       7.372   0.248  -0.273  1.00  0.00    -0.064 NA
ATOM     11  H12 UNL     1       7.937   2.684  -0.557  1.00  0.00     0.158 HD
ATOM     12  H11 UNL     1       6.230   3.204  -0.420  1.00  0.00     0.158 HD
HETATM   13  C10 UNL     1       3.461  -2.050   0.368  1.00  0.00     0.182 A 
ATOM     14  H9  UNL     1       5.511  -1.561   0.103  1.00  0.00     0.168 HD
HETATM   15  N8  UNL     1       2.192  -1.568   0.451  1.00  0.00    -0.349 N 
ATOM     16  H8  UNL     1       1.441  -2.243   0.594  1.00  0.00     0.167 HD
ENDBRANCH   1   2
BRANCH   1  17
HETATM   17  N4  UNL     1       0.339   1.558   0.311  1.00  0.00    -0.378 N 
ATOM     18  H42 UNL     1       1.272   1.963   0.232  1.00  0.00     0.158 HD
ATOM     19  H41 UNL     1      -0.615   1.917   0.335  1.00  0.00     0.158 HD
ENDBRANCH   1  17
BRANCH   1  20
HETATM   20  O1  UNL     1      -0.723  -0.347   0.500  1.00  0.00    -0.299 OA
BRANCH  20  21
HETATM   21  C6  UNL     1      -1.474  -0.810  -0.475  1.00  0.00     0.218 C 
BRANCH  21  22
HETATM   22  C7  UNL     1      -2.928  -1.042  -0.400  1.00  0.00     0.261 C 
BRANCH  22  23
HETATM   23  O2  UNL     1      -3.349  -1.876  -1.395  1.00  0.00    -0.333 OA
ATOM     24  H2  UNL     1      -4.286  -2.025  -1.347  1.00  0.00     0.220 HD
ENDBRANCH  22  23
BRANCH  22  25
HETATM   25  N5  UNL     1      -3.863  -0.573   0.444  1.00  0.00    -0.295 NA
BRANCH  25  26
HETATM   26  N6  UNL     1      -4.901  -0.184   1.237  1.00  0.00    -0.192 N 
HETATM   27  C8  UNL     1      -5.871   0.300   0.019  1.00  0.00     0.335 C 
HETATM   28  O3  UNL     1      -5.358   0.377  -0.985  1.00  0.00    -0.260 OA
ATOM     29  H6  UNL     1      -5.028  -0.193   2.249  1.00  0.00     0.205 HD
BRANCH  27  30
HETATM   30  C9  UNL     1      -7.118   0.528   0.484  1.00  0.00     0.325 C 
HETATM   31  N7  UNL     1      -8.271   0.785  -0.394  1.00  0.00    -0.053 NA
HETATM   32  O4  UNL     1      -7.569   0.551   1.666  1.00  0.00    -0.266 OA
ENDBRANCH  27  30
ENDBRANCH  25  26
ENDBRANCH  22  25
ENDBRANCH  21  22
ENDBRANCH  20  21
ENDBRANCH   1  20
TORSDOF 9
