REMARK  4 active torsions:
REMARK  status: ('A' for Active; 'I' for Inactive)
REMARK    1  A    between atoms: C2_2  and  C3_3 
REMARK    2  A    between atoms: C3_3  and  N1_4 
REMARK    3  A    between atoms: C4_5  and  N2_6 
REMARK       I    between atoms: N2_6  and  C5_7 
REMARK       I    between atoms: C5_7  and  N4_11 
REMARK    4  A    between atoms: N4_11  and  C6_13 
ROOT
HETATM    1  N1  UNL     1      -1.215   0.402   0.220  1.00  0.00    -0.346 N 
HETATM    2  C4  UNL     1      -0.253  -0.350  -0.585  1.00  0.00     0.168 C 
HETATM    3  C9  UNL     1      -1.181  -0.819  -1.700  1.00  0.00     0.040 C 
HETATM    4  C10 UNL     1      -0.678  -1.724  -2.678  1.00  0.00     0.025 C 
HETATM    5  C11 UNL     1      -1.876   0.454  -2.031  1.00  0.00     0.050 C 
HETATM    6  C12 UNL     1      -2.411   0.321  -0.594  1.00  0.00     0.040 C 
HETATM    7  C13 UNL     1      -3.610   1.017  -0.240  1.00  0.00     0.039 C 
HETATM    8  C14 UNL     1      -2.432  -1.163  -0.902  1.00  0.00    -0.007 C 
HETATM    9  C15 UNL     1      -2.217  -2.057   0.284  1.00  0.00     0.018 C 
HETATM   10  C16 UNL     1      -3.550  -1.610  -1.788  1.00  0.00     0.018 C 
ENDROOT
BRANCH   2  11
HETATM   11  N2  UNL     1       0.929  -0.552  -0.411  1.00  0.00    -0.357 NA
HETATM   12  C5  UNL     1       2.185  -0.649  -0.038  1.00  0.00     0.250 C 
HETATM   13  N3  UNL     1       3.165  -0.955  -0.885  1.00  0.00    -0.360 N 
HETATM   14  N4  UNL     1       2.713  -0.454   1.301  1.00  0.00    -0.347 N 
ATOM     15  H32 UNL     1       2.794  -1.092  -1.825  1.00  0.00     0.160 HD
ATOM     16  H31 UNL     1       4.140  -1.030  -0.595  1.00  0.00     0.160 HD
ATOM     17  H4  UNL     1       2.118  -0.691   2.095  1.00  0.00     0.164 HD
BRANCH  14  18
HETATM   18  C6  UNL     1       4.026   0.053   1.565  1.00  0.00     0.077 C 
HETATM   19  C7  UNL     1       4.333   0.160   3.031  1.00  0.00     0.032 C 
HETATM   20  C8  UNL     1       4.268   1.331   0.817  1.00  0.00     0.032 C 
ENDBRANCH  14  18
ENDBRANCH   2  11
BRANCH   1  21
HETATM   21  C3  UNL     1      -1.021   1.050   1.487  1.00  0.00     0.152 C 
BRANCH  21  22
HETATM   22  C2  UNL     1      -0.192   2.244   1.499  1.00  0.00    -0.017 C 
HETATM   23  C1  UNL     1       0.337   2.748   0.416  1.00  0.00     0.008 C 
ENDBRANCH  21  22
ENDBRANCH   1  21
TORSDOF 4
