REMARK  5 active torsions:
REMARK  status: ('A' for Active; 'I' for Inactive)
REMARK    1  A    between atoms: C9_11  and  O3_13 
REMARK    2  A    between atoms: C11_15  and  O4_16 
REMARK    3  A    between atoms: C11_15  and  O5_18 
REMARK    4  A    between atoms: O5_18  and  C12_19 
REMARK    5  A    between atoms: C22_33  and  O10_34 
ROOT
HETATM    1  C1  UNL     1      -1.378   1.096   1.277  1.00  0.00     0.020 C 
HETATM    2  C2  UNL     1      -1.476   0.555   0.040  1.00  0.00    -0.018 C 
HETATM    3  C3  UNL     1      -2.096   1.394  -0.971  1.00  0.00     0.028 C 
HETATM    4  C4  UNL     1      -2.829   0.833  -2.089  1.00  0.00     0.042 C 
HETATM    5  C5  UNL     1      -4.102   0.775  -1.210  1.00  0.00     0.130 C 
HETATM    6  O1  UNL     1      -4.401  -0.428  -0.812  1.00  0.00    -0.350 OA
HETATM    7  C6  UNL     1      -4.247  -0.972   0.401  1.00  0.00     0.161 C 
HETATM    8  C7  UNL     1      -4.875  -2.381   0.287  1.00  0.00     0.078 C 
HETATM    9  C8  UNL     1      -5.172  -0.228   1.377  1.00  0.00     0.078 C 
HETATM   10  O2  UNL     1      -3.028  -1.003   0.984  1.00  0.00    -0.315 OA
HETATM   11  C9  UNL     1      -2.028  -1.772   0.559  1.00  0.00     0.223 C 
HETATM   12  C10 UNL     1      -1.435  -2.465   1.765  1.00  0.00     0.085 C 
HETATM   13  C11 UNL     1      -0.972  -0.823  -0.111  1.00  0.00     0.249 C 
HETATM   14  C23 UNL     1      -3.467   1.810  -0.373  1.00  0.00     0.019 C 
HETATM   15  C24 UNL     1      -3.757   3.235  -0.826  1.00  0.00     0.013 C 
ENDROOT
BRANCH  13  16
HETATM   16  O4  UNL     1      -0.827  -1.256  -1.431  1.00  0.00    -0.357 OA
ATOM     17  H4  UNL     1      -0.502  -2.144  -1.528  1.00  0.00     0.213 HD
ENDBRANCH  13  16
BRANCH  13  18
HETATM   18  O5  UNL     1       0.192  -1.028   0.535  1.00  0.00    -0.282 OA
BRANCH  18  19
HETATM   19  C12 UNL     1       1.360  -0.476   0.091  1.00  0.00     0.345 C 
HETATM   20  O6  UNL     1       1.238   0.911   0.061  1.00  0.00    -0.168 OA
HETATM   21  O7  UNL     1       2.176   1.580   0.617  1.00  0.00    -0.231 OA
HETATM   22  C13 UNL     1       3.128   2.198  -0.135  1.00  0.00     0.156 C 
HETATM   23  C14 UNL     1       3.081   3.681   0.321  1.00  0.00     0.042 C 
HETATM   24  C15 UNL     1       4.549   1.800   0.119  1.00  0.00     0.035 C 
HETATM   25  C16 UNL     1       5.060   0.611  -0.701  1.00  0.00     0.010 C 
HETATM   26  C17 UNL     1       3.944  -0.322  -0.796  1.00  0.00     0.027 C 
HETATM   27  C18 UNL     1       3.946  -1.416  -1.859  1.00  0.00     0.068 C 
HETATM   28  C20 UNL     1       3.636  -1.149   0.394  1.00  0.00     0.098 C 
HETATM   29  C19 UNL     1       2.611  -1.990  -1.269  1.00  0.00     0.267 C 
HETATM   30  O8  UNL     1       1.671  -1.048  -1.112  1.00  0.00    -0.298 OA
HETATM   31  O9  UNL     1       3.236  -2.437  -0.076  1.00  0.00    -0.347 OA
HETATM   32  C21 UNL     1       4.821  -1.402   1.283  1.00  0.00     0.049 C 
HETATM   33  C22 UNL     1       2.402  -0.750   1.166  1.00  0.00     0.248 C 
BRANCH  33  34
HETATM   34  O10 UNL     1       2.062  -1.838   1.966  1.00  0.00    -0.384 OA
ATOM     35  H10 UNL     1       2.712  -2.009   2.637  1.00  0.00     0.210 HD
ENDBRANCH  33  34
ENDBRANCH  18  19
ENDBRANCH  13  18
BRANCH  11  36
HETATM   36  O3  UNL     1      -2.343  -2.789  -0.329  1.00  0.00    -0.361 OA
ATOM     37  H3  UNL     1      -1.629  -3.338  -0.632  1.00  0.00     0.213 HD
ENDBRANCH  11  36
TORSDOF 5
