REMARK  2 active torsions:
REMARK  status: ('A' for Active; 'I' for Inactive)
REMARK    1  A    between atoms: C3_3  and  C4_4 
REMARK    2  A    between atoms: C4_4  and  O1_5 
ROOT
HETATM    1  C1  UNL     1      -4.022   0.585   1.897  1.00  0.00     0.012 C 
HETATM    2  C2  UNL     1      -3.693   0.549   0.739  1.00  0.00    -0.114 C 
HETATM    3  C3  UNL     1      -3.267   0.520  -0.681  1.00  0.00     0.131 C 
ENDROOT
BRANCH   3   4
HETATM    4  C4  UNL     1      -1.769   0.504  -0.680  1.00  0.00     0.077 C 
HETATM    5  C5  UNL     1      -1.164   0.491  -2.046  1.00  0.00     0.083 C 
HETATM    6  C6  UNL     1       0.299   0.817  -1.832  1.00  0.00     0.061 C 
HETATM    7  N1  UNL     1       0.969  -0.007  -0.919  1.00  0.00    -0.388 N 
HETATM    8  C7  UNL     1       2.143   0.655  -0.407  1.00  0.00     0.126 C 
HETATM    9  C12 UNL     1       0.257  -0.795  -0.018  1.00  0.00     0.090 C 
HETATM   10  C8  UNL     1       3.048  -0.243   0.377  1.00  0.00    -0.001 C 
HETATM   11  C9  UNL     1       4.045   0.631   1.110  1.00  0.00     0.011 C 
HETATM   12  C10 UNL     1       2.292  -1.038   1.416  1.00  0.00     0.008 C 
HETATM   13  C11 UNL     1       0.851  -0.580   1.383  1.00  0.00     0.026 C 
HETATM   14  C13 UNL     1      -1.203  -0.655   0.083  1.00  0.00     0.040 C 
HETATM   15  C14 UNL     1      -1.928  -1.921  -0.394  1.00  0.00     0.015 C 
BRANCH   4  16
HETATM   16  O1  UNL     1      -1.338   1.674  -0.029  1.00  0.00    -0.388 OA
ATOM     17  H1  UNL     1      -0.388   1.664  -0.028  1.00  0.00     0.210 HD
ENDBRANCH   4  16
ENDBRANCH   3   4
TORSDOF 2
