REMARK  15 active torsions:
REMARK  status: ('A' for Active; 'I' for Inactive)
REMARK    1  A    between atoms: C2_2  and  C3_3 
REMARK    2  A    between atoms: C3_3  and  C4_4 
REMARK    3  A    between atoms: C4_4  and  C5_5 
REMARK    4  A    between atoms: C5_5  and  C6_6 
REMARK    5  A    between atoms: C6_6  and  C7_7 
REMARK    6  A    between atoms: C7_7  and  C8_8 
REMARK    7  A    between atoms: C8_8  and  C9_9 
REMARK    8  A    between atoms: C9_9  and  C10_10 
REMARK    9  A    between atoms: C10_10  and  C11_11 
REMARK   10  A    between atoms: C11_11  and  N1_12 
REMARK   11  A    between atoms: N1_12  and  C12_14 
REMARK   12  A    between atoms: C14_23  and  N5_24 
REMARK   13  A    between atoms: N5_24  and  C15_26 
REMARK   14  A    between atoms: C15_26  and  C16_27 
REMARK   15  A    between atoms: C16_27  and  O1_28 
ROOT
HETATM    1  C12 UNL     1      -1.726   1.417  -0.404  1.00  0.00     0.707 A 
HETATM    2  N2  UNL     1      -2.055   2.072   0.725  1.00  0.00    -0.022 N 
ATOM      3  H2  UNL     1      -1.328   2.552   1.255  1.00  0.00     0.203 HD
HETATM    4  C13 UNL     1      -3.333   2.105   1.170  1.00  0.00     0.705 A 
HETATM    5  N3  UNL     1      -3.687   2.713   2.233  1.00  0.00    -0.234 N 
ATOM      6  H31 UNL     1      -4.650   2.738   2.568  1.00  0.00     0.174 HD
ATOM      7  H32 UNL     1      -2.959   3.193   2.762  1.00  0.00     0.174 HD
HETATM    8  N4  UNL     1      -4.309   1.461   0.460  1.00  0.00    -0.022 N 
ATOM      9  H4  UNL     1      -5.272   1.485   0.795  1.00  0.00     0.203 HD
HETATM   10  C14 UNL     1      -4.021   0.804  -0.660  1.00  0.00     0.709 A 
HETATM   11  N8  UNL     1      -2.720   0.808  -1.055  1.00  0.00    -0.021 N 
ATOM     12  H8  UNL     1      -2.486   0.308  -1.913  1.00  0.00     0.203 HD
ENDROOT
BRANCH  10  13
HETATM   13  N5  UNL     1      -4.910   0.196  -1.345  1.00  0.00    -0.183 N 
ATOM     14  H5  UNL     1      -4.607  -0.286  -2.191  1.00  0.00     0.180 HD
BRANCH  13  15
HETATM   15  C15 UNL     1      -6.287   0.141  -1.016  1.00  0.00     0.307 A 
HETATM   16  C17 UNL     1      -7.050  -1.111  -1.180  1.00  0.00     0.379 A 
HETATM   17  C18 UNL     1      -6.423  -2.390  -1.525  1.00  0.00     0.256 C 
HETATM   18  N7  UNL     1      -6.738  -0.665   0.165  1.00  0.00     0.142 N 
HETATM   19  O2  UNL     1      -6.027  -2.588  -2.688  1.00  0.00    -0.271 OA
HETATM   20  N6  UNL     1      -6.254  -3.419  -0.558  1.00  0.00    -0.357 N 
HETATM   21  C19 UNL     1      -6.239  -2.973   0.842  1.00  0.00     0.153 C 
ATOM     22  H6  UNL     1      -6.150  -4.400  -0.818  1.00  0.00     0.162 HD
HETATM   23  C20 UNL     1      -5.746  -1.530   0.778  1.00  0.00     0.296 C 
BRANCH  15  24
HETATM   24  C16 UNL     1      -7.150   1.388  -1.238  1.00  0.00     0.232 C 
BRANCH  24  25
HETATM   25  O1  UNL     1      -8.453   1.136  -0.850  1.00  0.00    -0.396 OA
ATOM     26  H1  UNL     1      -8.988   1.909  -0.988  1.00  0.00     0.209 HD
ENDBRANCH  24  25
ENDBRANCH  15  24
ENDBRANCH  13  15
ENDBRANCH  10  13
BRANCH   1  27
HETATM   27  N1  UNL     1      -0.528   1.355  -0.872  1.00  0.00    -0.225 N 
ATOM     28  H1  UNL     1      -0.369   0.836  -1.736  1.00  0.00     0.177 HD
BRANCH  27  29
HETATM   29  C11 UNL     1       0.605   1.989  -0.227  1.00  0.00     0.138 C 
BRANCH  29  30
HETATM   30  C10 UNL     1       1.285   1.040   0.716  1.00  0.00     0.020 C 
BRANCH  30  31
HETATM   31  C9  UNL     1       2.445   1.736   1.372  1.00  0.00     0.002 C 
BRANCH  31  32
HETATM   32  C8  UNL     1       3.461   2.209   0.387  1.00  0.00     0.000 C 
BRANCH  32  33
HETATM   33  C7  UNL     1       4.050   1.094  -0.436  1.00  0.00     0.000 C 
BRANCH  33  34
HETATM   34  C6  UNL     1       4.743   0.059   0.399  1.00  0.00     0.000 C 
BRANCH  34  35
HETATM   35  C5  UNL     1       5.292  -1.005  -0.528  1.00  0.00     0.000 C 
BRANCH  35  36
HETATM   36  C4  UNL     1       6.008  -2.092   0.209  1.00  0.00     0.000 C 
BRANCH  36  37
HETATM   37  C3  UNL     1       7.183  -1.580   1.004  1.00  0.00    -0.000 C 
BRANCH  37  38
HETATM   38  C2  UNL     1       8.213  -0.910   0.130  1.00  0.00    -0.005 C 
HETATM   39  C1  UNL     1       8.765  -1.863  -0.912  1.00  0.00     0.005 C 
ENDBRANCH  37  38
ENDBRANCH  36  37
ENDBRANCH  35  36
ENDBRANCH  34  35
ENDBRANCH  33  34
ENDBRANCH  32  33
ENDBRANCH  31  32
ENDBRANCH  30  31
ENDBRANCH  29  30
ENDBRANCH  27  29
ENDBRANCH   1  27
TORSDOF 15
