REMARK  14 active torsions:
REMARK  status: ('A' for Active; 'I' for Inactive)
REMARK       I    between atoms: N1_1  and  C1_4 
REMARK       I    between atoms: C1_4  and  N3_6 
REMARK    1  A    between atoms: N3_6  and  C2_8 
REMARK    2  A    between atoms: C3_11  and  O1_12 
REMARK    3  A    between atoms: O1_12  and  C4_13 
REMARK    4  A    between atoms: C4_13  and  C5_14 
REMARK    5  A    between atoms: C5_14  and  C6_15 
REMARK    6  A    between atoms: C6_15  and  C7_16 
REMARK    7  A    between atoms: C7_16  and  C8_17 
REMARK    8  A    between atoms: C8_17  and  C9_18 
REMARK    9  A    between atoms: C10_23  and  N7_24 
REMARK   10  A    between atoms: C11_26  and  C12_27 
REMARK   11  A    between atoms: C12_27  and  C13_28 
REMARK   12  A    between atoms: C13_28  and  C14_29 
REMARK   13  A    between atoms: C14_29  and  N8_30 
REMARK   14  A    between atoms: N8_30  and  C15_32 
ROOT
HETATM    1  C2  UNL     1       1.683  -2.623  -1.623  1.00  0.00     0.702 A 
HETATM    2  N4  UNL     1       2.581  -2.055  -0.801  1.00  0.00    -0.153 N 
ATOM      3  H4  UNL     1       3.575  -2.254  -0.910  1.00  0.00     0.188 HD
HETATM    4  C3  UNL     1       2.160  -1.224   0.163  1.00  0.00     0.252 A 
HETATM    5  N6  UNL     1       0.835  -0.988   0.268  1.00  0.00    -0.154 N 
ATOM      6  H6  UNL     1       0.530  -0.353   1.005  1.00  0.00     0.188 HD
HETATM    7  C10 UNL     1      -0.114  -1.519  -0.516  1.00  0.00     0.699 A 
HETATM    8  N9  UNL     1       0.388  -2.375  -1.498  1.00  0.00    -0.022 N 
ATOM      9  H9  UNL     1      -0.264  -2.824  -2.141  1.00  0.00     0.203 HD
ENDROOT
BRANCH   7  10
HETATM   10  N7  UNL     1      -1.326  -1.347  -0.473  1.00  0.00    -0.205 N 
HETATM   11  C11 UNL     1      -2.340  -0.707   0.172  1.00  0.00     0.079 C 
ATOM     12  H7  UNL     1      -1.742  -1.907  -1.218  1.00  0.00     0.183 HD
BRANCH  11  13
HETATM   13  C12 UNL     1      -2.040   0.181   1.333  1.00  0.00     0.046 C 
BRANCH  13  14
HETATM   14  C13 UNL     1      -3.169   0.814   2.046  1.00  0.00     0.024 C 
BRANCH  14  15
HETATM   15  C14 UNL     1      -4.049   1.722   1.292  1.00  0.00     0.114 C 
BRANCH  15  16
HETATM   16  N8  UNL     1      -4.813   1.208   0.219  1.00  0.00    -0.417 N 
ATOM     17  H8  UNL     1      -4.616   1.465  -0.748  1.00  0.00     0.153 HD
BRANCH  16  18
HETATM   18  C15 UNL     1      -5.873   0.312   0.555  1.00  0.00     0.076 C 
HETATM   19  C16 UNL     1      -6.933   0.966   1.408  1.00  0.00     0.024 C 
HETATM   20  C17 UNL     1      -7.551   2.089   0.639  1.00  0.00     0.002 C 
HETATM   21  C18 UNL     1      -8.410   1.494  -0.450  1.00  0.00     0.000 C 
HETATM   22  C19 UNL     1      -8.040   0.049  -0.695  1.00  0.00     0.002 C 
HETATM   23  C20 UNL     1      -6.540  -0.108  -0.751  1.00  0.00     0.024 C 
ENDBRANCH  16  18
ENDBRANCH  15  16
ENDBRANCH  14  15
ENDBRANCH  13  14
ENDBRANCH  11  13
ENDBRANCH   7  10
BRANCH   4  24
HETATM   24  O1  UNL     1       3.073  -0.645   1.003  1.00  0.00    -0.321 OA
BRANCH  24  25
HETATM   25  C4  UNL     1       4.438  -0.761   1.047  1.00  0.00     0.178 C 
BRANCH  25  26
HETATM   26  C5  UNL     1       5.199  -0.323  -0.176  1.00  0.00     0.027 C 
BRANCH  26  27
HETATM   27  C6  UNL     1       6.687  -0.491  -0.010  1.00  0.00     0.002 C 
BRANCH  27  28
HETATM   28  C7  UNL     1       7.296   0.250   1.095  1.00  0.00     0.009 C 
BRANCH  28  29
HETATM   29  C8  UNL     1       7.210   1.709   1.152  1.00  0.00     0.099 C 
BRANCH  29  30
HETATM   30  C9  UNL     1       7.843   2.419   0.016  1.00  0.00     0.231 C 
HETATM   31  N5  UNL     1       7.754   3.830  -0.149  1.00  0.00    -0.062 NA
HETATM   32  O2  UNL     1       8.483   1.749  -0.832  1.00  0.00    -0.277 OA
ENDBRANCH  29  30
ENDBRANCH  28  29
ENDBRANCH  27  28
ENDBRANCH  26  27
ENDBRANCH  25  26
ENDBRANCH  24  25
ENDBRANCH   4  24
BRANCH   1  33
HETATM   33  N3  UNL     1       2.035  -3.444  -2.580  1.00  0.00    -0.163 N 
HETATM   34  C1  UNL     1       3.427  -3.716  -2.717  1.00  0.00     0.200 C 
HETATM   35  N1  UNL     1       3.850  -4.811  -2.219  1.00  0.00    -0.373 N 
HETATM   36  N2  UNL     1       4.314  -2.822  -3.373  1.00  0.00    -0.063 NA
ATOM     37  H12 UNL     1       4.846  -5.006  -2.317  1.00  0.00     0.158 HD
ATOM     38  H11 UNL     1       3.213  -5.453  -1.748  1.00  0.00     0.158 HD
ATOM     39  H3  UNL     1       1.345  -3.869  -3.199  1.00  0.00     0.187 HD
ENDBRANCH   1  33
TORSDOF 14
