REMARK  17 active torsions:
REMARK  status: ('A' for Active; 'I' for Inactive)
REMARK       I    between atoms: C1_4  and  N3_6 
REMARK    1  A    between atoms: N3_6  and  C2_8 
REMARK    2  A    between atoms: C2_8  and  C3_9 
REMARK    3  A    between atoms: C3_9  and  C4_10 
REMARK    4  A    between atoms: C4_10  and  O1_11 
REMARK    5  A    between atoms: C4_10  and  C5_13 
REMARK    6  A    between atoms: C5_13  and  S1_14 
REMARK    7  A    between atoms: S1_14  and  C6_15 
REMARK    8  A    between atoms: C6_15  and  C7_16 
REMARK    9  A    between atoms: C7_16  and  O2_17 
REMARK   10  A    between atoms: C7_16  and  N4_19 
REMARK   11  A    between atoms: N4_19  and  C8_20 
REMARK   12  A    between atoms: C10_22  and  N5_23 
REMARK   13  A    between atoms: C16_31  and  N7_32 
REMARK   14  A    between atoms: N7_32  and  C17_34 
REMARK   15  A    between atoms: C17_34  and  C18_35 
REMARK   16  A    between atoms: C18_35  and  C19_36 
REMARK   17  A    between atoms: C19_36  and  O3_37 
ROOT
HETATM    1  C8  UNL     1      -1.038   0.126  -0.735  1.00  0.00     0.199 A 
HETATM    2  C9  UNL     1      -2.081  -0.784  -0.482  1.00  0.00     0.113 A 
HETATM    3  C10 UNL     1      -3.347  -0.398  -0.123  1.00  0.00     0.123 A 
HETATM    4  N6  UNL     1      -3.620   0.908  -0.005  1.00  0.00    -0.177 N 
ATOM      5  H6  UNL     1      -4.554   1.221   0.260  1.00  0.00     0.185 HD
HETATM    6  C16 UNL     1      -2.626   1.815  -0.246  1.00  0.00     0.682 A 
HETATM    7  N8  UNL     1      -1.397   1.446  -0.593  1.00  0.00    -0.164 N 
ATOM      8  H8  UNL     1      -0.695   2.167  -0.760  1.00  0.00     0.187 HD
ENDROOT
BRANCH   1   9
HETATM    9  N4  UNL     1       0.039  -0.178  -1.054  1.00  0.00    -0.366 NA
BRANCH   9  10
HETATM   10  C7  UNL     1       1.253  -0.442  -1.410  1.00  0.00     0.201 C 
BRANCH  10  11
HETATM   11  C6  UNL     1       1.646  -1.826  -1.918  1.00  0.00     0.174 C 
BRANCH  11  12
HETATM   12  S1  UNL     1       2.284  -2.864  -0.615  1.00  0.00    -0.157 SA
BRANCH  12  13
HETATM   13  C5  UNL     1       3.852  -2.346   0.069  1.00  0.00     0.106 C 
BRANCH  13  14
HETATM   14  C4  UNL     1       4.972  -2.492  -0.937  1.00  0.00     0.129 C 
BRANCH  14  15
HETATM   15  C3  UNL     1       6.308  -2.066  -0.400  1.00  0.00     0.052 C 
BRANCH  15  16
HETATM   16  C2  UNL     1       6.320  -0.592  -0.187  1.00  0.00     0.125 C 
BRANCH  16  17
HETATM   17  N3  UNL     1       7.611  -0.126   0.341  1.00  0.00    -0.365 N 
HETATM   18  C1  UNL     1       7.704   1.280   0.573  1.00  0.00     0.181 C 
HETATM   19  N1  UNL     1       8.658   1.775   1.318  1.00  0.00    -0.374 N 
HETATM   20  N2  UNL     1       6.795   2.216   0.028  1.00  0.00    -0.064 NA
ATOM     21  H12 UNL     1       8.724   2.779   1.484  1.00  0.00     0.158 HD
ATOM     22  H11 UNL     1       9.314   1.100   1.711  1.00  0.00     0.158 HD
ATOM     23  H3  UNL     1       8.386  -0.762   0.528  1.00  0.00     0.162 HD
ENDBRANCH  16  17
ENDBRANCH  15  16
ENDBRANCH  14  15
BRANCH  14  24
HETATM   24  O1  UNL     1       4.644  -1.903  -2.139  1.00  0.00    -0.395 OA
ATOM     25  H1  UNL     1       3.799  -2.173  -2.479  1.00  0.00     0.210 HD
ENDBRANCH  14  24
ENDBRANCH  13  14
ENDBRANCH  12  13
ENDBRANCH  11  12
ENDBRANCH  10  11
BRANCH  10  26
HETATM   26  O2  UNL     1       2.262   0.387  -1.390  1.00  0.00    -0.338 OA
ATOM     27  H2  UNL     1       2.017   1.249  -1.074  1.00  0.00     0.220 HD
ENDBRANCH  10  26
ENDBRANCH   9  10
ENDBRANCH   1   9
BRANCH   3  28
HETATM   28  N5  UNL     1      -4.302  -1.425   0.113  1.00  0.00    -0.367 N 
HETATM   29  C11 UNL     1      -5.029  -1.929  -1.008  1.00  0.00     0.124 C 
HETATM   30  C12 UNL     1      -5.665  -3.266  -0.773  1.00  0.00     0.020 C 
HETATM   31  C13 UNL     1      -5.134  -3.957   0.460  1.00  0.00     0.003 C 
HETATM   32  C14 UNL     1      -5.379  -3.039   1.628  1.00  0.00     0.020 C 
HETATM   33  C15 UNL     1      -4.450  -1.862   1.487  1.00  0.00     0.124 C 
ENDBRANCH   3  28
BRANCH   6  34
HETATM   34  N7  UNL     1      -2.960   3.038  -0.124  1.00  0.00    -0.226 N 
ATOM     35  H7  UNL     1      -3.921   3.257   0.137  1.00  0.00     0.177 HD
BRANCH  34  36
HETATM   36  C17 UNL     1      -2.048   4.118  -0.337  1.00  0.00     0.140 C 
BRANCH  36  37
HETATM   37  C18 UNL     1      -2.913   5.342  -0.678  1.00  0.00     0.046 C 
BRANCH  37  38
HETATM   38  C19 UNL     1      -3.820   5.568   0.517  1.00  0.00     0.165 C 
BRANCH  38  39
HETATM   39  O3  UNL     1      -4.664   6.662   0.314  1.00  0.00    -0.401 OA
ATOM     40  H3  UNL     1      -5.232   6.804   1.062  1.00  0.00     0.209 HD
ENDBRANCH  38  39
ENDBRANCH  37  38
ENDBRANCH  36  37
ENDBRANCH  34  36
ENDBRANCH   6  34
TORSDOF 17
