REMARK  7 active torsions:
REMARK  status: ('A' for Active; 'I' for Inactive)
REMARK    1  A    between atoms: N1_7  and  C7_8 
REMARK    2  A    between atoms: C7_8  and  C8_9 
REMARK    3  A    between atoms: C8_9  and  C9_10 
REMARK    4  A    between atoms: C9_10  and  O1_11 
REMARK    5  A    between atoms: O1_11  and  C10_12 
REMARK    6  A    between atoms: C15_18  and  N2_19 
REMARK    7  A    between atoms: C16_24  and  N4_25 
ROOT
HETATM    1  C10 UNL     1       2.554  -0.135  -0.445  1.00  0.00     0.098 A 
HETATM    2  C11 UNL     1       2.475  -1.500  -0.624  1.00  0.00     0.058 A 
HETATM    3  C12 UNL     1       3.563  -2.295  -0.365  1.00  0.00     0.014 A 
HETATM    4 BR1  UNL     1       3.430  -4.185  -0.620  1.00  0.00    -0.051 Br
HETATM    5  C13 UNL     1       4.764  -1.787   0.078  1.00  0.00     0.036 A 
HETATM    6  C14 UNL     1       4.880  -0.420   0.268  1.00  0.00     0.039 A 
HETATM    7  C15 UNL     1       6.081   0.109   0.712  1.00  0.00     0.127 A 
HETATM    8  N3  UNL     1       6.122   1.465   0.878  1.00  0.00    -0.176 N 
ATOM      9  H3  UNL     1       6.981   1.907   1.204  1.00  0.00     0.186 HD
HETATM   10  C16 UNL     1       5.045   2.221   0.617  1.00  0.00     0.678 A 
HETATM   11  N5  UNL     1       3.888   1.690   0.187  1.00  0.00    -0.188 N 
ATOM     12  H5  UNL     1       3.086   2.291  -0.002  1.00  0.00     0.184 HD
HETATM   13  C17 UNL     1       3.795   0.355   0.007  1.00  0.00     0.096 A 
ENDROOT
BRANCH   1  14
HETATM   14  O1  UNL     1       1.533   0.737  -0.677  1.00  0.00    -0.349 OA
BRANCH  14  15
HETATM   15  C9  UNL     1       0.255   0.526  -1.091  1.00  0.00     0.177 C 
BRANCH  15  16
HETATM   16  C8  UNL     1      -0.652  -0.271  -0.185  1.00  0.00     0.057 C 
BRANCH  16  17
HETATM   17  C7  UNL     1      -1.995  -0.348  -0.898  1.00  0.00     0.275 C 
BRANCH  17  18
HETATM   18  N1  UNL     1      -2.975  -1.092  -0.141  1.00  0.00     0.092 N 
HETATM   19  C2  UNL     1      -3.379  -0.421   1.079  1.00  0.00     0.219 C 
HETATM   20  C1  UNL     1      -4.648  -1.085   1.585  1.00  0.00     0.043 C 
HETATM   21  C3  UNL     1      -3.716   1.029   0.819  1.00  0.00     0.035 C 
HETATM   22  C4  UNL     1      -4.764   1.188  -0.253  1.00  0.00     0.004 C 
HETATM   23  C5  UNL     1      -4.658   0.209  -1.365  1.00  0.00     0.030 C 
HETATM   24  C6  UNL     1      -4.170  -1.150  -0.980  1.00  0.00     0.273 C 
ENDBRANCH  17  18
ENDBRANCH  16  17
ENDBRANCH  15  16
ENDBRANCH  14  15
ENDBRANCH   1  14
BRANCH   7  25
HETATM   25  N2  UNL     1       7.107  -0.593   0.963  1.00  0.00    -0.384 N 
ATOM     26  H22 UNL     1       7.076  -1.605   0.839  1.00  0.00     0.157 HD
ATOM     27  H21 UNL     1       7.991  -0.204   1.290  1.00  0.00     0.157 HD
ENDBRANCH   7  25
BRANCH  10  28
HETATM   28  N4  UNL     1       5.186   3.503   0.806  1.00  0.00    -0.234 N 
ATOM     29  H42 UNL     1       6.064   3.906   1.132  1.00  0.00     0.174 HD
ATOM     30  H41 UNL     1       4.367   4.078   0.608  1.00  0.00     0.174 HD
ENDBRANCH  10  28
TORSDOF 7
