REMARK  10 active torsions:
REMARK  status: ('A' for Active; 'I' for Inactive)
REMARK    1  A    between atoms: O1_2  and  C2_3 
REMARK    2  A    between atoms: C3_4  and  C4_5 
REMARK    3  A    between atoms: C3_4  and  C11_23 
REMARK    4  A    between atoms: C4_5  and  N1_6 
REMARK    5  A    between atoms: C4_5  and  C5_10 
REMARK       I    between atoms: C5_10  and  N2_12 
REMARK    6  A    between atoms: N2_12  and  C6_14 
REMARK    7  A    between atoms: C6_14  and  C7_15 
REMARK    8  A    between atoms: C6_14  and  C10_20 
REMARK    9  A    between atoms: C7_15  and  C8_16 
REMARK   10  A    between atoms: C8_16  and  C9_17 
ROOT
HETATM    1  C4  UNL     1      -1.403   1.136   0.906  1.00  0.00     0.306 C 
ENDROOT
BRANCH   1   2
HETATM    2  C3  UNL     1      -2.279   0.025   0.379  1.00  0.00    -0.011 C 
HETATM    3  C2  UNL     1      -1.780  -0.799  -0.512  1.00  0.00     0.140 C 
BRANCH   3   4
HETATM    4  O1  UNL     1      -2.422  -1.849  -1.092  1.00  0.00    -0.368 OA
HETATM    5  C1  UNL     1      -2.133  -2.367  -2.371  1.00  0.00     0.208 C 
ENDBRANCH   3   4
BRANCH   2   6
HETATM    6  C11 UNL     1      -3.632  -0.125   0.882  1.00  0.00    -0.024 C 
HETATM    7  C12 UNL     1      -4.461  -1.223   0.260  1.00  0.00     0.019 C 
HETATM    8  C13 UNL     1      -4.460   1.143   0.744  1.00  0.00     0.019 C 
HETATM    9  C14 UNL     1      -3.565  -0.367   2.399  1.00  0.00     0.019 C 
ENDBRANCH   2   6
ENDBRANCH   1   2
BRANCH   1  10
HETATM   10  N1  UNL     1      -0.998   0.805   2.285  1.00  0.00    -0.062 N 
ATOM     11  H13 UNL     1      -1.796   0.616   2.891  1.00  0.00     0.275 HD
ATOM     12  H12 UNL     1      -0.551  -0.109   2.352  1.00  0.00     0.275 HD
ATOM     13  H11 UNL     1      -0.406   1.556   2.641  1.00  0.00     0.275 HD
ENDBRANCH   1  10
BRANCH   1  14
HETATM   14  C5  UNL     1      -0.139   1.243   0.155  1.00  0.00     0.253 C 
HETATM   15  O2  UNL     1      -0.179   1.654  -1.045  1.00  0.00    -0.271 OA
HETATM   16  N2  UNL     1       1.133   0.920   0.671  1.00  0.00    -0.346 N 
ATOM     17  H2  UNL     1       1.199   0.586   1.632  1.00  0.00     0.163 HD
BRANCH  16  18
HETATM   18  C6  UNL     1       2.367   1.044  -0.115  1.00  0.00     0.174 C 
BRANCH  18  19
HETATM   19  C7  UNL     1       2.992  -0.282  -0.329  1.00  0.00     0.043 C 
BRANCH  19  20
HETATM   20  C8  UNL     1       4.247  -0.228  -1.120  1.00  0.00     0.102 C 
BRANCH  20  21
HETATM   21  C9  UNL     1       4.818  -1.606  -1.340  1.00  0.00     0.231 C 
HETATM   22  N3  UNL     1       6.001  -1.787  -2.071  1.00  0.00    -0.062 NA
HETATM   23  O3  UNL     1       4.209  -2.570  -0.855  1.00  0.00    -0.277 OA
ENDBRANCH  20  21
ENDBRANCH  19  20
ENDBRANCH  18  19
BRANCH  18  24
HETATM   24  C10 UNL     1       3.181   2.109   0.452  1.00  0.00     0.254 C 
HETATM   25  N4  UNL     1       4.416   2.603  -0.049  1.00  0.00    -0.060 NA
HETATM   26  O4  UNL     1       2.750   2.679   1.523  1.00  0.00    -0.275 OA
ENDBRANCH  18  24
ENDBRANCH  16  18
ENDBRANCH   1  14
TORSDOF 10
