REMARK  8 active torsions:
REMARK  status: ('A' for Active; 'I' for Inactive)
REMARK    1  A    between atoms: C1_4  and  C2_6 
REMARK    2  A    between atoms: C5_9  and  S1_10 
REMARK    3  A    between atoms: S1_10  and  N3_13 
REMARK    4  A    between atoms: N3_13  and  C6_15 
REMARK    5  A    between atoms: C6_15  and  C7_16 
REMARK    6  A    between atoms: C6_15  and  C8_18 
REMARK    7  A    between atoms: C8_18  and  C9_19 
REMARK    8  A    between atoms: C9_19  and  C10_20 
ROOT
HETATM    1  S1  UNL     1       0.615   0.378   2.155  1.00  0.00     0.266 S 
HETATM    2  O1  UNL     1       1.138  -0.042   3.531  1.00  0.00    -0.200 OA
HETATM    3  O2  UNL     1       0.110   1.797   2.302  1.00  0.00    -0.200 OA
ENDROOT
BRANCH   1   4
HETATM    4  C5  UNL     1       1.982   0.305   1.090  1.00  0.00     0.120 A 
HETATM    5  C4  UNL     1       2.314  -0.406  -0.008  1.00  0.00     0.034 A 
HETATM    6  C3  UNL     1       3.521  -0.180  -0.578  1.00  0.00     0.024 A 
HETATM    7  C2  UNL     1       4.317   0.763   0.013  1.00  0.00     0.047 A 
HETATM    8  S2  UNL     1       3.368   1.295   1.325  1.00  0.00    -0.073 SA
BRANCH   7   9
HETATM    9  C1  UNL     1       5.672   1.196  -0.409  1.00  0.00     0.127 C 
HETATM   10  N1  UNL     1       6.284   2.102   0.266  1.00  0.00    -0.387 N 
ATOM     11  H12 UNL     1       7.215   2.400  -0.024  1.00  0.00     0.157 HD
ATOM     12  H11 UNL     1       5.815   2.500   1.080  1.00  0.00     0.157 HD
HETATM   13  N2  UNL     1       6.315   0.650  -1.525  1.00  0.00    -0.082 NA
ENDBRANCH   7   9
ENDBRANCH   1   4
BRANCH   1  14
HETATM   14  N3  UNL     1      -0.696  -0.602   1.781  1.00  0.00    -0.303 N 
ATOM     15  H3  UNL     1      -1.018  -1.339   2.409  1.00  0.00     0.173 HD
BRANCH  14  16
HETATM   16  C6  UNL     1      -1.337  -0.340   0.523  1.00  0.00     0.157 C 
BRANCH  16  17
HETATM   17  C7  UNL     1      -1.399  -1.556  -0.319  1.00  0.00     0.257 C 
HETATM   18  O3  UNL     1      -0.945  -2.634   0.055  1.00  0.00    -0.305 OA
ENDBRANCH  16  17
BRANCH  16  19
HETATM   19  C8  UNL     1      -2.787   0.124   0.746  1.00  0.00     0.063 C 
BRANCH  19  20
HETATM   20  C9  UNL     1      -3.452   0.396  -0.547  1.00  0.00     0.018 C 
BRANCH  20  21
HETATM   21  C10 UNL     1      -4.535  -0.253  -0.931  1.00  0.00     0.124 C 
HETATM   22  N4  UNL     1      -5.154   0.028  -2.178  1.00  0.00    -0.086 NA
HETATM   23  N5  UNL     1      -5.131  -1.257  -0.118  1.00  0.00    -0.086 NA
ENDBRANCH  20  21
ENDBRANCH  19  20
ENDBRANCH  16  19
ENDBRANCH  14  16
ENDBRANCH   1  14
TORSDOF 8
