REMARK  9 active torsions:
REMARK  status: ('A' for Active; 'I' for Inactive)
REMARK    1  A    between atoms: C2_2  and  N1_3 
REMARK    2  A    between atoms: N1_3  and  C3_4 
REMARK    3  A    between atoms: N1_3  and  C5_6 
REMARK    4  A    between atoms: C8_9  and  C9_10 
REMARK    5  A    between atoms: C10_11  and  C11_12 
REMARK    6  A    between atoms: C11_12  and  O1_13 
REMARK    7  A    between atoms: N2_15  and  O2_17 
REMARK    8  A    between atoms: O2_17  and  C12_18 
REMARK    9  A    between atoms: C16_25  and  N5_26 
ROOT
HETATM    1  C5  UNL     1      -2.417   0.242   0.090  1.00  0.00     0.064 A 
HETATM    2  C6  UNL     1      -1.808   1.486   0.383  1.00  0.00     0.033 A 
HETATM    3  C7  UNL     1      -0.456   1.630   0.575  1.00  0.00     0.014 A 
HETATM    4  C8  UNL     1       0.332   0.523   0.478  1.00  0.00    -0.028 A 
HETATM    5  C14 UNL     1      -0.243  -0.717   0.189  1.00  0.00    -0.016 A 
HETATM    6  C15 UNL     1       0.614  -1.904   0.075  1.00  0.00     0.052 C 
HETATM    7  C16 UNL     1      -1.624  -0.869  -0.008  1.00  0.00     0.136 A 
ENDROOT
BRANCH   4   8
HETATM    8  C9  UNL     1       1.793   0.601   0.682  1.00  0.00     0.016 C 
HETATM    9  C10 UNL     1       2.383   1.708   0.991  1.00  0.00     0.058 C 
BRANCH   9  10
HETATM   10  C11 UNL     1       3.807   1.831   1.200  1.00  0.00     0.160 C 
HETATM   11  N2  UNL     1       4.689   0.967   1.134  1.00  0.00    -0.236 N 
ATOM     12  H2  UNL     1       5.628   1.315   1.325  1.00  0.00     0.197 HD
BRANCH  10  13
HETATM   13  O1  UNL     1       4.288   3.147   1.535  1.00  0.00    -0.345 OA
ATOM     14  H1  UNL     1       5.225   3.228   1.672  1.00  0.00     0.219 HD
ENDBRANCH  10  13
BRANCH  11  15
HETATM   15  O2  UNL     1       4.638  -0.330   0.860  1.00  0.00    -0.202 OA
BRANCH  15  16
HETATM   16  C12 UNL     1       5.528  -0.837  -0.109  1.00  0.00     0.251 C 
HETATM   17  N3  UNL     1       5.620  -2.216  -0.344  1.00  0.00    -0.055 NA
HETATM   18  N4  UNL     1       6.237  -0.006  -0.756  1.00  0.00    -0.361 N 
HETATM   19  C13 UNL     1       7.201  -0.286  -1.777  1.00  0.00     0.149 C 
ATOM     20  H4  UNL     1       6.104   0.978  -0.521  1.00  0.00     0.162 HD
ENDBRANCH  15  16
ENDBRANCH  11  15
ENDBRANCH   9  10
ENDBRANCH   4   8
BRANCH   7  21
HETATM   21  N5  UNL     1      -2.072  -2.172  -0.311  1.00  0.00    -0.113 N 
HETATM   22  O3  UNL     1      -2.243  -2.499  -1.526  1.00  0.00    -0.532 OA
HETATM   23  O4  UNL     1      -2.310  -3.180   0.583  1.00  0.00    -0.532 OA
ENDBRANCH   7  21
BRANCH   1  24
HETATM   24  N1  UNL     1      -3.808   0.194  -0.033  1.00  0.00    -0.380 N 
BRANCH  24  25
HETATM   25  C2  UNL     1      -4.439   1.296  -0.799  1.00  0.00     0.118 C 
HETATM   26  C1  UNL     1      -5.179   2.212   0.128  1.00  0.00     0.026 C 
ENDBRANCH  24  25
BRANCH  24  27
HETATM   27  C3  UNL     1      -4.755  -0.720   0.536  1.00  0.00     0.118 C 
HETATM   28  C4  UNL     1      -5.455  -1.460  -0.559  1.00  0.00     0.026 C 
ENDBRANCH  24  27
ENDBRANCH   1  24
TORSDOF 9
