REMARK  4 active torsions:
REMARK  status: ('A' for Active; 'I' for Inactive)
REMARK    1  A    between atoms: C2_2  and  C3_3 
REMARK    2  A    between atoms: C3_3  and  C4_4 
REMARK    3  A    between atoms: N1_5  and  C6_7 
REMARK    4  A    between atoms: C6_7  and  C7_8 
ROOT
HETATM    1  C7  UNL     1      -1.465  -0.753   0.936  1.00  0.00     0.103 A 
HETATM    2  N2  UNL     1      -1.223  -2.098   0.909  1.00  0.00    -0.311 N 
ATOM      3  H2  UNL     1      -1.985  -2.750   1.096  1.00  0.00     0.170 HD
HETATM    4  C8  UNL     1       0.009  -2.574   0.638  1.00  0.00     0.256 A 
HETATM    5  O1  UNL     1       0.263  -3.811   0.606  1.00  0.00    -0.267 OA
HETATM    6  C9  UNL     1       1.067  -1.728   0.379  1.00  0.00     0.054 A 
HETATM    7  C10 UNL     1       0.830  -0.361   0.404  1.00  0.00     0.118 A 
HETATM    8  N3  UNL     1      -0.416   0.041   0.680  1.00  0.00    -0.330 N 
ATOM      9  H3  UNL     1      -0.583   1.047   0.697  1.00  0.00     0.168 HD
HETATM   10  N4  UNL     1       1.734   0.713   0.180  1.00  0.00    -0.341 N 
ATOM     11  H4  UNL     1       1.344   1.655   0.208  1.00  0.00     0.167 HD
HETATM   12  C11 UNL     1       3.124   0.604  -0.079  1.00  0.00     0.040 A 
HETATM   13  C12 UNL     1       3.815   1.777   0.245  1.00  0.00     0.040 A 
HETATM   14  C13 UNL     1       5.178   1.818   0.047  1.00  0.00    -0.021 A 
HETATM   15  C14 UNL     1       5.844   0.713  -0.465  1.00  0.00     0.075 A 
HETATM   16  C15 UNL     1       5.125  -0.425  -0.772  1.00  0.00     0.046 A 
HETATM   17  C16 UNL     1       3.760  -0.516  -0.591  1.00  0.00    -0.028 A 
HETATM   18  C17 UNL     1       3.171  -1.829  -0.980  1.00  0.00     0.046 C 
HETATM   19  C18 UNL     1       2.326  -2.418   0.108  1.00  0.00     0.053 C 
HETATM   20  O2  UNL     1       7.171   1.052  -0.549  1.00  0.00    -0.350 OA
HETATM   21  C19 UNL     1       7.485   2.163   0.275  1.00  0.00     0.180 C 
HETATM   22  C20 UNL     1       6.168   2.905   0.294  1.00  0.00     0.068 C 
ENDROOT
BRANCH   1  23
HETATM   23  C6  UNL     1      -2.813  -0.212   1.236  1.00  0.00     0.198 C 
BRANCH  23  24
HETATM   24  N1  UNL     1      -3.596   0.137   0.080  1.00  0.00    -0.388 N 
HETATM   25  C4  UNL     1      -3.921  -0.839  -0.802  1.00  0.00     0.081 C 
HETATM   26  C5  UNL     1      -3.852   1.504  -0.065  1.00  0.00     0.149 C 
BRANCH  25  27
HETATM   27  C3  UNL     1      -5.291  -1.337  -0.963  1.00  0.00    -0.010 C 
BRANCH  27  28
HETATM   28  C2  UNL     1      -6.440  -0.531  -1.362  1.00  0.00     0.024 C 
HETATM   29  C1  UNL     1      -6.963   0.533  -0.482  1.00  0.00     0.009 C 
ENDBRANCH  27  28
ENDBRANCH  25  27
ENDBRANCH  23  24
ENDBRANCH   1  23
TORSDOF 4
