REMARK  11 active torsions:
REMARK  status: ('A' for Active; 'I' for Inactive)
REMARK    1  A    between atoms: C2_2  and  C3_3 
REMARK    2  A    between atoms: C3_3  and  O1_4 
REMARK    3  A    between atoms: C5_6  and  O2_7 
REMARK    4  A    between atoms: C6_9  and  O3_10 
REMARK    5  A    between atoms: O3_10  and  C7_11 
REMARK    6  A    between atoms: C13_19  and  C14_20 
REMARK    7  A    between atoms: C13_19  and  C20_28 
REMARK    8  A    between atoms: C14_20  and  C15_21 
REMARK    9  A    between atoms: C15_21  and  C16_22 
REMARK   10  A    between atoms: C16_22  and  C18_24 
REMARK   11  A    between atoms: C18_24  and  C19_25 
ROOT
HETATM    1  C3  UNL     1      -3.167  -0.529   0.030  1.00  0.00     0.099 C 
HETATM    2  C5  UNL     1      -3.383   0.301   1.285  1.00  0.00     0.184 C 
HETATM    3  C6  UNL     1      -2.628   1.614   1.295  1.00  0.00     0.178 C 
HETATM    4  C9  UNL     1      -1.214   1.244   1.281  1.00  0.00     0.095 C 
HETATM    5 BR1  UNL     1      -0.869   0.312   2.961  1.00  0.00    -0.088 Br
HETATM    6  C10 UNL     1      -0.799   0.392   0.105  1.00  0.00     0.022 C 
HETATM    7  C11 UNL     1       0.627   0.056   0.337  1.00  0.00     0.046 C 
HETATM    8  C12 UNL     1       1.038  -1.348   0.159  1.00  0.00    -0.044 C 
HETATM    9  C13 UNL     1       2.322  -1.709   0.031  1.00  0.00    -0.008 C 
HETATM   10  C23 UNL     1      -0.012  -2.337   0.273  1.00  0.00     0.005 C 
HETATM   11  C24 UNL     1      -1.237  -1.982   0.033  1.00  0.00    -0.013 C 
HETATM   12  C25 UNL     1      -1.739  -0.638  -0.358  1.00  0.00     0.013 C 
HETATM   13  C26 UNL     1      -1.564  -0.747  -1.903  1.00  0.00     0.023 C 
ENDROOT
BRANCH   9  14
HETATM   14  C14 UNL     1       3.367  -0.756   0.077  1.00  0.00    -0.147 C 
BRANCH  14  15
HETATM   15  C15 UNL     1       4.265   0.064   0.117  1.00  0.00     0.090 C 
BRANCH  15  16
HETATM   16  C16 UNL     1       4.173   1.568   0.284  1.00  0.00     0.002 C 
HETATM   17  C17 UNL     1       4.967   1.867   1.563  1.00  0.00     0.011 C 
BRANCH  16  18
HETATM   18  C18 UNL     1       4.713   2.319  -0.877  1.00  0.00     0.118 C 
BRANCH  18  19
HETATM   19  C19 UNL     1       6.114   2.133  -1.214  1.00  0.00     0.172 C 
HETATM   20  O5  UNL     1       6.927   1.496  -0.537  1.00  0.00    -0.648 OA
HETATM   21  O6  UNL     1       6.614   2.719  -2.413  1.00  0.00    -0.648 OA
ENDBRANCH  18  19
ENDBRANCH  16  18
ENDBRANCH  15  16
ENDBRANCH  14  15
ENDBRANCH   9  14
BRANCH   9  22
HETATM   22  C20 UNL     1       2.611  -3.168  -0.239  1.00  0.00     0.019 C 
HETATM   23  C21 UNL     1       3.534  -3.748   0.803  1.00  0.00     0.015 C 
HETATM   24  C22 UNL     1       3.378  -3.259  -1.582  1.00  0.00     0.015 C 
ENDBRANCH   9  22
BRANCH   3  25
HETATM   25  O3  UNL     1      -3.179   2.475   0.395  1.00  0.00    -0.312 OA
BRANCH  25  26
HETATM   26  C7  UNL     1      -3.868   3.604   0.709  1.00  0.00     0.255 C 
HETATM   27  C8  UNL     1      -4.441   4.493  -0.298  1.00  0.00     0.126 C 
HETATM   28  O4  UNL     1      -3.978   3.825   1.918  1.00  0.00    -0.266 OA
ENDBRANCH  25  26
ENDBRANCH   3  25
BRANCH   1  29
HETATM   29  C2  UNL     1      -4.154  -0.072  -0.986  1.00  0.00     0.037 C 
HETATM   30  C1  UNL     1      -4.358  -0.924  -2.188  1.00  0.00     0.008 C 
ENDBRANCH   1  29
BRANCH   1  31
HETATM   31  O1  UNL     1      -3.622  -1.798   0.415  1.00  0.00    -0.381 OA
HETATM   32  C4  UNL     1      -4.821  -1.936   0.988  1.00  0.00     0.202 C 
ENDBRANCH   1  31
BRANCH   2  33
HETATM   33  O2  UNL     1      -4.714   0.692   1.419  1.00  0.00    -0.390 OA
ATOM     34  H2  UNL     1      -4.849   1.211   2.203  1.00  0.00     0.210 HD
ENDBRANCH   2  33
TORSDOF 11
