REMARK  8 active torsions:
REMARK  status: ('A' for Active; 'I' for Inactive)
REMARK    1  A    between atoms: C2_2  and  C3_3 
REMARK    2  A    between atoms: C3_3  and  N1_4 
REMARK    3  A    between atoms: C5_6  and  C6_7 
REMARK       I    between atoms: C6_7  and  N2_9 
REMARK    4  A    between atoms: N2_9  and  C7_11 
REMARK    5  A    between atoms: C7_11  and  C8_12 
REMARK    6  A    between atoms: C7_11  and  C11_15 
REMARK    7  A    between atoms: N3_18  and  C14_19 
REMARK    8  A    between atoms: C14_19  and  C16_21 
ROOT
HETATM    1  N1  UNL     1      -1.438   1.979   1.123  1.00  0.00    -0.218 NA
HETATM    2  C4  UNL     1      -0.298   1.660   0.248  1.00  0.00     0.136 C 
HETATM    3  C5  UNL     1      -0.421   0.130   0.217  1.00  0.00     0.179 C 
HETATM    4  N3  UNL     1      -1.646  -0.134  -0.502  1.00  0.00    -0.200 NA
HETATM    5  S1  UNL     1      -2.685   1.141   0.166  1.00  0.00     0.174 S 
HETATM    6  O2  UNL     1      -2.939   2.105  -1.015  1.00  0.00    -0.224 OA
ENDROOT
BRANCH   3   7
HETATM    7  C6  UNL     1       0.762  -0.485  -0.405  1.00  0.00     0.238 C 
HETATM    8  O1  UNL     1       0.610  -1.136  -1.455  1.00  0.00    -0.272 OA
HETATM    9  N2  UNL     1       2.061  -0.376   0.128  1.00  0.00    -0.354 N 
ATOM     10  H2  UNL     1       2.172   0.160   0.989  1.00  0.00     0.162 HD
BRANCH   9  11
HETATM   11  C7  UNL     1       3.240  -0.959  -0.444  1.00  0.00     0.091 C 
BRANCH  11  12
HETATM   12  C8  UNL     1       3.899  -1.987   0.396  1.00  0.00     0.001 C 
HETATM   13  C9  UNL     1       5.125  -2.507  -0.340  1.00  0.00     0.011 C 
HETATM   14  C10 UNL     1       4.349  -1.540   1.744  1.00  0.00     0.011 C 
ENDBRANCH  11  12
BRANCH  11  15
HETATM   15  C11 UNL     1       4.159   0.135  -0.910  1.00  0.00     0.001 C 
HETATM   16  C12 UNL     1       3.413   0.966  -1.963  1.00  0.00     0.011 C 
HETATM   17  C13 UNL     1       4.585   1.081   0.165  1.00  0.00     0.011 C 
ENDBRANCH  11  15
ENDBRANCH   9  11
ENDBRANCH   3   7
BRANCH   4  18
HETATM   18  C14 UNL     1      -2.187  -1.428  -0.214  1.00  0.00     0.077 C 
HETATM   19  C15 UNL     1      -2.583  -1.593   1.232  1.00  0.00     0.028 C 
BRANCH  18  20
HETATM   20  C16 UNL     1      -3.259  -1.835  -1.164  1.00  0.00    -0.035 C 
HETATM   21  C17 UNL     1      -3.722  -3.236  -0.730  1.00  0.00     0.016 C 
HETATM   22  C18 UNL     1      -4.482  -0.941  -1.153  1.00  0.00     0.016 C 
HETATM   23  C19 UNL     1      -2.755  -1.940  -2.567  1.00  0.00     0.016 C 
ENDBRANCH  18  20
ENDBRANCH   4  18
BRANCH   1  24
HETATM   24  C3  UNL     1      -1.718   3.397   1.119  1.00  0.00     0.106 C 
BRANCH  24  25
HETATM   25  C2  UNL     1      -2.897   3.627   2.040  1.00  0.00     0.011 C 
HETATM   26  C1  UNL     1      -3.251   5.096   2.087  1.00  0.00     0.006 C 
ENDBRANCH  24  25
ENDBRANCH   1  24
TORSDOF 8
