REMARK  5 active torsions:
REMARK  status: ('A' for Active; 'I' for Inactive)
REMARK    1  A    between atoms: C9_9  and  C10_10 
REMARK       I    between atoms: C10_10  and  N1_12 
REMARK    2  A    between atoms: N1_12  and  C11_14 
REMARK    3  A    between atoms: C11_14  and  C12_15 
REMARK    4  A    between atoms: C11_14  and  C20_25 
REMARK       I    between atoms: C12_15  and  N2_17 
REMARK    5  A    between atoms: C15_20  and  C16_21 
ROOT
HETATM    1  C1  UNL     1      -3.765  -2.860  -0.563  1.00  0.00     0.012 C 
HETATM    2  C2  UNL     1      -4.204  -1.862  -0.060  1.00  0.00    -0.111 C 
HETATM    3  C3  UNL     1      -4.766  -0.679   0.535  1.00  0.00     0.081 C 
HETATM    4  C4  UNL     1      -5.705   0.017  -0.486  1.00  0.00     0.002 C 
HETATM    5  C5  UNL     1      -6.270   1.249   0.112  1.00  0.00     0.006 C 
HETATM    6  C6  UNL     1      -5.177   2.328   0.028  1.00  0.00     0.006 C 
HETATM    7  C7  UNL     1      -3.974   1.455  -0.279  1.00  0.00     0.000 C 
HETATM    8  C8  UNL     1      -4.581   0.595  -1.370  1.00  0.00     0.011 C 
HETATM    9  C9  UNL     1      -3.825   0.409   0.841  1.00  0.00     0.098 C 
ENDROOT
BRANCH   9  10
HETATM   10  C10 UNL     1      -2.425   0.164   1.043  1.00  0.00     0.224 C 
HETATM   11  O1  UNL     1      -1.955   0.403   2.230  1.00  0.00    -0.273 OA
HETATM   12  N1  UNL     1      -1.434  -0.300   0.159  1.00  0.00    -0.347 N 
ATOM     13  H1  UNL     1      -1.718  -0.523  -0.795  1.00  0.00     0.163 HD
BRANCH  12  14
HETATM   14  C11 UNL     1      -0.029  -0.486   0.507  1.00  0.00     0.180 C 
BRANCH  14  15
HETATM   15  C12 UNL     1       0.843   0.317  -0.384  1.00  0.00     0.243 C 
HETATM   16  O2  UNL     1       0.286   0.935  -1.328  1.00  0.00    -0.271 OA
HETATM   17  N2  UNL     1       2.247   0.429  -0.237  1.00  0.00    -0.350 N 
HETATM   18  C13 UNL     1       3.156  -0.124   0.745  1.00  0.00     0.126 C 
HETATM   19  C19 UNL     1       3.120   1.185  -1.137  1.00  0.00     0.130 C 
HETATM   20  C14 UNL     1       4.083   1.073   1.004  1.00  0.00     0.026 C 
HETATM   21  C15 UNL     1       4.333   1.576  -0.370  1.00  0.00     0.008 C 
BRANCH  21  22
HETATM   22  C16 UNL     1       5.635   1.160  -0.976  1.00  0.00    -0.017 C 
HETATM   23  C17 UNL     1       5.827  -0.309  -1.113  1.00  0.00     0.010 C 
HETATM   24  C18 UNL     1       6.754   1.734  -0.147  1.00  0.00     0.010 C 
ENDBRANCH  21  22
ENDBRANCH  14  15
BRANCH  14  25
HETATM   25  C20 UNL     1       0.281  -1.957   0.409  1.00  0.00     0.009 C 
HETATM   26  C21 UNL     1       0.068  -2.547  -0.934  1.00  0.00     0.012 C 
HETATM   27  C22 UNL     1      -0.473  -2.719   1.456  1.00  0.00     0.012 C 
ENDBRANCH  14  25
ENDBRANCH  12  14
ENDBRANCH   9  10
TORSDOF 5
