REMARK  4 active torsions:
REMARK  status: ('A' for Active; 'I' for Inactive)
REMARK    1  A    between atoms: C3_5  and  N2_6 
REMARK    2  A    between atoms: N2_6  and  N3_8 
REMARK    3  A    between atoms: C5_15  and  S1_16 
REMARK    4  A    between atoms: S1_16  and  N5_17 
ROOT
HETATM    1  C1  UNL     1      -1.666  -1.628  -0.713  1.00  0.00     0.070 C 
HETATM    2  C2  UNL     1      -0.479  -0.822  -0.342  1.00  0.00     0.051 A 
HETATM    3  N1  UNL     1       0.704  -1.069  -0.882  1.00  0.00    -0.193 N 
ATOM      4  H1  UNL     1       0.781  -1.827  -1.560  1.00  0.00     0.184 HD
HETATM    5  C3  UNL     1       1.809  -0.365  -0.577  1.00  0.00     0.699 A 
HETATM    6  N4  UNL     1       1.694   0.629   0.316  1.00  0.00    -0.153 N 
ATOM      7  H4  UNL     1       2.515   1.180   0.567  1.00  0.00     0.187 HD
HETATM    8  C4  UNL     1       0.511   0.906   0.882  1.00  0.00     0.285 A 
HETATM    9  O1  UNL     1       0.362   1.842   1.733  1.00  0.00    -0.266 OA
HETATM   10  C5  UNL     1      -0.632   0.190   0.577  1.00  0.00     0.170 A 
ENDROOT
BRANCH  10  11
HETATM   11  S1  UNL     1      -2.182   0.525   1.294  1.00  0.00     0.264 S 
HETATM   12  O2  UNL     1      -1.910   1.130   2.649  1.00  0.00    -0.200 OA
HETATM   13  O3  UNL     1      -2.976  -0.726   1.542  1.00  0.00    -0.200 OA
BRANCH  11  14
HETATM   14  N5  UNL     1      -3.100   1.661   0.408  1.00  0.00    -0.324 N 
ATOM     15  H52 UNL     1      -2.760   2.090  -0.452  1.00  0.00     0.169 HD
ATOM     16  H51 UNL     1      -4.008   1.857   0.828  1.00  0.00     0.169 HD
ENDBRANCH  11  14
ENDBRANCH  10  11
BRANCH   5  17
HETATM   17  N2  UNL     1       2.937  -0.659  -1.143  1.00  0.00    -0.138 N 
ATOM     18  H2  UNL     1       2.960  -1.426  -1.815  1.00  0.00     0.205 HD
BRANCH  17  19
HETATM   19  N3  UNL     1       4.117   0.024  -0.876  1.00  0.00    -0.331 N 
ATOM     20  H32 UNL     1       4.076   0.788  -0.202  1.00  0.00     0.177 HD
ATOM     21  H31 UNL     1       5.005  -0.207  -1.322  1.00  0.00     0.177 HD
ENDBRANCH  17  19
ENDBRANCH   5  17
TORSDOF 4
