REMARK  1 active torsions:
REMARK  status: ('A' for Active; 'I' for Inactive)
REMARK       I    between atoms: C2_2  and  N1_4 
REMARK    1  A    between atoms: N1_4  and  C3_6 
ROOT
HETATM    1  C3  UNL     1       0.202   0.127   0.561  1.00  0.00     0.111 C 
HETATM    2  C4  UNL     1      -0.419  -1.218   0.935  1.00  0.00     0.194 C 
HETATM    3  O2  UNL     1      -1.740  -0.991   0.548  1.00  0.00    -0.379 OA
HETATM    4  C5  UNL     1      -1.721  -0.360  -0.669  1.00  0.00     0.055 C 
HETATM    5  C6  UNL     1      -1.949  -1.363  -1.767  1.00  0.00     0.045 C 
HETATM    6  C7  UNL     1      -2.759   0.737  -0.663  1.00  0.00     0.045 C 
HETATM    7  C8  UNL     1      -0.357   0.249  -0.864  1.00  0.00     0.064 C 
ENDROOT
BRANCH   1   8
HETATM    8  N1  UNL     1       1.622   0.085   0.513  1.00  0.00    -0.355 N 
HETATM    9  C2  UNL     1       2.365   0.994   1.305  1.00  0.00     0.213 C 
HETATM   10  C1  UNL     1       3.853   0.993   1.293  1.00  0.00     0.117 C 
HETATM   11  O1  UNL     1       1.804   1.838   2.050  1.00  0.00    -0.274 OA
ATOM     12  H1  UNL     1       2.099  -0.591  -0.084  1.00  0.00     0.162 HD
ENDBRANCH   1   8
TORSDOF 1
