REMARK  10 active torsions:
REMARK  status: ('A' for Active; 'I' for Inactive)
REMARK    1  A    between atoms: O1_2  and  C2_3 
REMARK    2  A    between atoms: C2_3  and  C3_4 
REMARK    3  A    between atoms: C3_4  and  O2_5 
REMARK    4  A    between atoms: C3_4  and  C27_38 
REMARK    5  A    between atoms: O2_5  and  C4_6 
REMARK    6  A    between atoms: C6_8  and  C7_9 
REMARK    7  A    between atoms: C7_9  and  C10_12 
REMARK    8  A    between atoms: C12_17  and  N1_18 
REMARK    9  A    between atoms: N1_18  and  C13_20 
REMARK   10  A    between atoms: C16_23  and  N2_24 
ROOT
HETATM    1  C4  UNL     1      -2.567   0.374   0.186  1.00  0.00     0.072 A 
HETATM    2  C5  UNL     1      -1.594  -0.344   0.842  1.00  0.00     0.046 A 
HETATM    3  C6  UNL     1      -0.193  -0.247   0.654  1.00  0.00    -0.024 A 
HETATM    4  C11 UNL     1       0.181   0.697  -0.322  1.00  0.00     0.026 A 
HETATM    5  C12 UNL     1       1.536   0.918  -0.666  1.00  0.00     0.068 A 
HETATM    6  C22 UNL     1       1.869   1.862  -1.649  1.00  0.00     0.087 A 
HETATM    7  C23 UNL     1       3.199   2.191  -2.058  1.00  0.00     0.103 C 
HETATM    8  N3  UNL     1       4.238   2.489  -2.414  1.00  0.00    -0.191 NA
HETATM    9  C24 UNL     1       0.832   2.540  -2.248  1.00  0.00     0.113 A 
HETATM   10  N4  UNL     1      -0.440   2.327  -1.928  1.00  0.00    -0.364 N 
ATOM     11  H4  UNL     1      -1.165   2.860  -2.409  1.00  0.00     0.165 HD
HETATM   12  C25 UNL     1      -0.805   1.433  -0.992  1.00  0.00     0.047 A 
HETATM   13  C26 UNL     1      -2.160   1.273  -0.739  1.00  0.00     0.067 A 
ENDROOT
BRANCH   5  14
HETATM   14  N1  UNL     1       2.398   0.255  -0.169  1.00  0.00    -0.354 N 
ATOM     15  H1  UNL     1       2.005  -0.425   0.481  1.00  0.00     0.166 HD
BRANCH  14  16
HETATM   16  C13 UNL     1       3.775   0.147  -0.224  1.00  0.00     0.038 A 
HETATM   17  C14 UNL     1       4.611   0.885   0.634  1.00  0.00     0.032 A 
HETATM   18  C15 UNL     1       5.966   0.754   0.664  1.00  0.00     0.031 A 
HETATM   19  C16 UNL     1       6.600  -0.134  -0.168  1.00  0.00     0.030 A 
HETATM   20  C19 UNL     1       5.787  -0.860  -1.011  1.00  0.00     0.038 A 
HETATM   21  C20 UNL     1       4.434  -0.746  -1.058  1.00  0.00    -0.033 A 
HETATM   22  C21 UNL     1       3.707  -1.595  -2.026  1.00  0.00     0.050 C 
BRANCH  19  23
HETATM   23  N2  UNL     1       8.024  -0.298  -0.165  1.00  0.00    -0.390 N 
HETATM   24  C17 UNL     1       8.697  -1.246   0.690  1.00  0.00     0.149 C 
HETATM   25  C18 UNL     1       8.799   0.533  -1.067  1.00  0.00     0.149 C 
ENDBRANCH  19  23
ENDBRANCH  14  16
ENDBRANCH   5  14
BRANCH   3  26
HETATM   26  C7  UNL     1       0.794  -0.951   1.430  1.00  0.00     0.078 C 
HETATM   27  C8  UNL     1      -0.278  -1.822   2.277  1.00  0.00     0.029 C 
HETATM   28  C9  UNL     1       1.433  -2.241   0.943  1.00  0.00     0.029 C 
BRANCH  26  29
HETATM   29  C10 UNL     1       1.359  -0.398   2.714  1.00  0.00     0.398 C 
HETATM   30  F1  UNL     1       0.405  -0.217   3.776  1.00  0.00    -0.170 F 
HETATM   31  F2  UNL     1       2.183  -1.275   3.366  1.00  0.00    -0.170 F 
HETATM   32  F3  UNL     1       1.736   0.924   2.763  1.00  0.00    -0.170 F 
ENDBRANCH  26  29
ENDBRANCH   3  26
BRANCH   1  33
HETATM   33  O2  UNL     1      -3.876   0.143   0.503  1.00  0.00    -0.343 OA
BRANCH  33  34
HETATM   34  C3  UNL     1      -4.996   0.764  -0.046  1.00  0.00     0.157 C 
BRANCH  34  35
HETATM   35  C2  UNL     1      -5.726   1.493   1.070  1.00  0.00     0.199 C 
BRANCH  35  36
HETATM   36  O1  UNL     1      -4.913   2.455   1.664  1.00  0.00    -0.393 OA
HETATM   37  C1  UNL     1      -5.679   3.061   2.671  1.00  0.00     0.201 C 
ENDBRANCH  35  36
ENDBRANCH  34  35
BRANCH  34  38
HETATM   38  C27 UNL     1      -5.974  -0.222  -0.650  1.00  0.00     0.021 C 
HETATM   39  C28 UNL     1      -6.471  -1.220   0.342  1.00  0.00     0.033 C 
HETATM   40  C29 UNL     1      -6.867  -2.486  -0.395  1.00  0.00     0.168 C 
HETATM   41  O3  UNL     1      -7.398  -2.181  -1.649  1.00  0.00    -0.391 OA
HETATM   42  C30 UNL     1      -6.357  -1.807  -2.508  1.00  0.00     0.168 C 
HETATM   43  C31 UNL     1      -5.315  -0.998  -1.785  1.00  0.00     0.033 C 
ENDBRANCH  34  38
ENDBRANCH  33  34
ENDBRANCH   1  33
TORSDOF 10
