REMARK  9 active torsions:
REMARK  status: ('A' for Active; 'I' for Inactive)
REMARK    1  A    between atoms: O1_2  and  C2_3 
REMARK    2  A    between atoms: C2_3  and  C3_5 
REMARK    3  A    between atoms: C13_17  and  C14_18 
REMARK    4  A    between atoms: C14_18  and  C15_19 
REMARK    5  A    between atoms: C15_19  and  O5_20 
REMARK    6  A    between atoms: C15_19  and  C16_22 
REMARK    7  A    between atoms: C16_22  and  C18_25 
REMARK    8  A    between atoms: C18_25  and  S1_26 
REMARK    9  A    between atoms: S1_26  and  C19_27 
ROOT
HETATM    1  C3  UNL     1      -1.576  -1.000   1.431  1.00  0.00     0.048 C 
HETATM    2  C4  UNL     1      -0.800  -1.457   2.693  1.00  0.00     0.026 C 
HETATM    3  C5  UNL     1      -1.625   0.513   1.408  1.00  0.00     0.025 C 
HETATM    4  C6  UNL     1      -2.925   1.154   1.185  1.00  0.00     0.003 A 
HETATM    5  C7  UNL     1      -3.064   2.412   0.366  1.00  0.00     0.011 A 
HETATM    6  C8  UNL     1      -2.081   2.870  -0.637  1.00  0.00     0.117 C 
HETATM    7  C9  UNL     1      -2.550   2.629  -2.052  1.00  0.00     0.259 C 
HETATM    8  O3  UNL     1      -2.168   3.320  -3.020  1.00  0.00    -0.265 OA
HETATM    9  O4  UNL     1      -3.433   1.596  -2.234  1.00  0.00    -0.315 OA
HETATM   10  C10 UNL     1      -3.348   0.533  -1.258  1.00  0.00     0.141 C 
HETATM   11  C11 UNL     1      -2.067  -0.166  -1.559  1.00  0.00     0.034 C 
HETATM   12  C12 UNL     1      -1.924  -1.541  -0.992  1.00  0.00     0.008 C 
HETATM   13  C13 UNL     1      -0.976  -1.601   0.240  1.00  0.00     0.006 C 
HETATM   14  C25 UNL     1      -3.698   1.062   0.022  1.00  0.00    -0.009 A 
HETATM   15  C26 UNL     1      -5.244   1.156   0.196  1.00  0.00     0.018 C 
ENDROOT
BRANCH  13  16
HETATM   16  C14 UNL     1       0.356  -1.301  -0.272  1.00  0.00     0.041 C 
BRANCH  16  17
HETATM   17  C15 UNL     1       1.618  -1.487   0.426  1.00  0.00     0.158 C 
BRANCH  17  18
HETATM   18  O5  UNL     1       1.871  -0.774   1.573  1.00  0.00    -0.392 OA
ATOM     19  H5  UNL     1       2.695  -0.896   2.029  1.00  0.00     0.210 HD
ENDBRANCH  17  18
BRANCH  17  20
HETATM   20  C16 UNL     1       2.847  -1.277  -0.451  1.00  0.00     0.134 C 
HETATM   21  C17 UNL     1       2.928  -2.190  -1.613  1.00  0.00     0.055 C 
HETATM   22  F1  UNL     1       2.886   0.035  -0.881  1.00  0.00    -0.240 F 
BRANCH  20  23
HETATM   23  C18 UNL     1       4.047  -1.503   0.438  1.00  0.00     0.125 C 
BRANCH  23  24
HETATM   24  S1  UNL     1       5.624  -1.328  -0.362  1.00  0.00    -0.127 SA
BRANCH  24  25
HETATM   25  C19 UNL     1       5.927   0.353  -0.869  1.00  0.00     0.000 A 
HETATM   26  C20 UNL     1       6.519   1.267  -0.006  1.00  0.00     0.020 A 
HETATM   27  C21 UNL     1       6.746   2.548  -0.448  1.00  0.00     0.020 A 
HETATM   28  C22 UNL     1       6.412   2.976  -1.719  1.00  0.00     0.011 A 
HETATM   29 BR1  UNL     1       6.735   4.761  -2.315  1.00  0.00    -0.051 Br
HETATM   30  C23 UNL     1       5.823   2.048  -2.562  1.00  0.00     0.020 A 
HETATM   31  C24 UNL     1       5.593   0.778  -2.136  1.00  0.00     0.020 A 
ENDBRANCH  24  25
ENDBRANCH  23  24
ENDBRANCH  20  23
ENDBRANCH  17  20
ENDBRANCH  16  17
ENDBRANCH  13  16
BRANCH   1  32
HETATM   32  C2  UNL     1      -2.891  -1.622   1.708  1.00  0.00     0.267 C 
HETATM   33  O2  UNL     1      -3.252  -2.643   1.147  1.00  0.00    -0.264 OA
BRANCH  32  34
HETATM   34  O1  UNL     1      -3.728  -1.042   2.626  1.00  0.00    -0.326 OA
HETATM   35  C1  UNL     1      -4.995  -1.632   2.912  1.00  0.00     0.213 C 
ENDBRANCH  32  34
ENDBRANCH   1  32
TORSDOF 9
