REMARK  10 active torsions:
REMARK  status: ('A' for Active; 'I' for Inactive)
REMARK    1  A    between atoms: C2_2  and  C4_4 
REMARK    2  A    between atoms: C7_7  and  O1_8 
REMARK    3  A    between atoms: C9_11  and  C10_12 
REMARK    4  A    between atoms: C13_15  and  O2_16 
REMARK    5  A    between atoms: O2_16  and  C14_17 
REMARK    6  A    between atoms: C14_17  and  C15_18 
REMARK    7  A    between atoms: C15_18  and  C18_21 
REMARK    8  A    between atoms: C18_21  and  O3_23 
REMARK    9  A    between atoms: C22_28  and  O4_29 
REMARK   10  A    between atoms: C23_31  and  O5_32 
ROOT
HETATM    1  C4  UNL     1      -4.989   0.104  -0.425  1.00  0.00     0.029 C 
HETATM    2  C5  UNL     1      -5.625  -1.268  -0.328  1.00  0.00     0.011 C 
HETATM    3  C6  UNL     1      -4.464  -2.279  -0.393  1.00  0.00     0.041 C 
HETATM    4  C7  UNL     1      -3.404  -1.457  -0.927  1.00  0.00     0.092 C 
HETATM    5  C8  UNL     1      -1.983  -1.696  -0.695  1.00  0.00     0.053 C 
HETATM    6  C9  UNL     1      -1.446  -0.306  -1.095  1.00  0.00     0.053 C 
HETATM    7  C22 UNL     1      -2.529   0.673  -0.689  1.00  0.00     0.164 C 
HETATM    8  C23 UNL     1      -3.583  -0.169  -0.086  1.00  0.00     0.119 C 
ENDROOT
BRANCH   6   9
HETATM    9  C10 UNL     1      -0.121  -0.024  -0.579  1.00  0.00    -0.050 A 
HETATM   10  C11 UNL     1       0.916   0.126  -1.474  1.00  0.00     0.010 A 
HETATM   11  C12 UNL     1       2.195   0.393  -1.137  1.00  0.00     0.039 A 
HETATM   12  C13 UNL     1       2.522   0.534   0.224  1.00  0.00     0.086 A 
HETATM   13  C20 UNL     1       1.473   0.383   1.145  1.00  0.00     0.044 A 
HETATM   14 BR1  UNL     1       1.893   0.572   3.015  1.00  0.00    -0.048 Br
HETATM   15  C21 UNL     1       0.199   0.114   0.746  1.00  0.00     0.029 A 
BRANCH  12  16
HETATM   16  O2  UNL     1       3.716   0.792   0.644  1.00  0.00    -0.349 OA
BRANCH  16  17
HETATM   17  C14 UNL     1       4.908   1.049   1.064  1.00  0.00     0.187 C 
BRANCH  17  18
HETATM   18  C15 UNL     1       6.065   0.104   0.803  1.00  0.00    -0.000 C 
HETATM   19  C16 UNL     1       5.692  -1.219   1.447  1.00  0.00     0.020 C 
HETATM   20  C17 UNL     1       7.334   0.660   1.466  1.00  0.00     0.020 C 
BRANCH  18  21
HETATM   21  C18 UNL     1       6.386  -0.136  -0.628  1.00  0.00     0.124 C 
HETATM   22  C19 UNL     1       6.746   1.121  -1.399  1.00  0.00     0.040 C 
BRANCH  21  23
HETATM   23  O3  UNL     1       5.507  -0.929  -1.322  1.00  0.00    -0.395 OA
ATOM     24  H3  UNL     1       5.712  -1.082  -2.237  1.00  0.00     0.210 HD
ENDBRANCH  21  23
ENDBRANCH  18  21
ENDBRANCH  17  18
ENDBRANCH  16  17
ENDBRANCH  12  16
ENDBRANCH   6   9
BRANCH   7  25
HETATM   25  O4  UNL     1      -2.964   1.437  -1.766  1.00  0.00    -0.392 OA
ATOM     26  H4  UNL     1      -3.643   2.051  -1.511  1.00  0.00     0.210 HD
ENDBRANCH   7  25
BRANCH   4  27
HETATM   27  O1  UNL     1      -3.622  -1.128  -2.253  1.00  0.00    -0.387 OA
ATOM     28  H1  UNL     1      -2.925  -0.587  -2.604  1.00  0.00     0.210 HD
ENDBRANCH   4  27
BRANCH   8  29
HETATM   29  O5  UNL     1      -3.447  -0.426   1.250  1.00  0.00    -0.384 OA
ATOM     30  H5  UNL     1      -2.539  -0.602   1.469  1.00  0.00     0.210 HD
ENDBRANCH   8  29
BRANCH   1  31
HETATM   31  C2  UNL     1      -5.624   1.113   0.475  1.00  0.00    -0.016 C 
HETATM   32  C1  UNL     1      -5.593   0.810   1.926  1.00  0.00     0.010 C 
HETATM   33  C3  UNL     1      -7.037   1.455   0.064  1.00  0.00     0.010 C 
ENDBRANCH   1  31
TORSDOF 10
