REMARK  8 active torsions:
REMARK  status: ('A' for Active; 'I' for Inactive)
REMARK    1  A    between atoms: C2_2  and  N1_3 
REMARK    2  A    between atoms: C3_4  and  O1_5 
REMARK    3  A    between atoms: C6_9  and  O2_10 
REMARK    4  A    between atoms: C13_20  and  O3_21 
REMARK    5  A    between atoms: C15_23  and  O4_24 
REMARK    6  A    between atoms: C19_28  and  C20_29 
REMARK    7  A    between atoms: C21_30  and  C22_31 
REMARK    8  A    between atoms: C22_31  and  C23_32 
ROOT
HETATM    1  N1  UNL     1      -2.882   2.682   0.748  1.00  0.00    -0.308 N 
HETATM    2  C3  UNL     1      -3.534   2.125  -0.282  1.00  0.00     0.153 A 
HETATM    3  C4  UNL     1      -2.625   1.751  -1.265  1.00  0.00     0.034 A 
HETATM    4  C5  UNL     1      -1.391   2.117  -0.761  1.00  0.00     0.039 A 
HETATM    5  C6  UNL     1      -1.574   2.678   0.457  1.00  0.00     0.153 A 
HETATM    6  C7  UNL     1      -0.413   1.722  -1.803  1.00  0.00     0.266 C 
HETATM    7  C8  UNL     1       0.978   1.667  -1.334  1.00  0.00     0.082 C 
HETATM    8  C9  UNL     1       1.410   0.497  -0.586  1.00  0.00    -0.020 A 
HETATM    9  C10 UNL     1       0.742  -0.625  -0.237  1.00  0.00     0.026 A 
HETATM   10  N2  UNL     1       1.587  -1.404   0.450  1.00  0.00    -0.358 N 
ATOM     11  H2  UNL     1       1.348  -2.316   0.838  1.00  0.00     0.166 HD
HETATM   12  C11 UNL     1       2.792  -0.820   0.558  1.00  0.00     0.046 A 
HETATM   13  C12 UNL     1       3.982  -1.188   1.150  1.00  0.00     0.070 A 
HETATM   14  C13 UNL     1       5.081  -0.377   1.107  1.00  0.00     0.103 A 
HETATM   15  C15 UNL     1       5.010   0.838   0.459  1.00  0.00     0.102 A 
HETATM   16  C17 UNL     1       3.823   1.206  -0.132  1.00  0.00     0.054 A 
HETATM   17  C18 UNL     1       2.692   0.386  -0.094  1.00  0.00     0.002 A 
HETATM   18  C19 UNL     1      -0.682  -0.940  -0.558  1.00  0.00     0.091 C 
HETATM   19  C25 UNL     1      -1.032  -0.645  -1.972  1.00  0.00     0.233 C 
HETATM   20  C26 UNL     1      -0.080  -1.488  -2.843  1.00  0.00     0.044 C 
HETATM   21  N3  UNL     1      -1.006   0.648  -2.437  1.00  0.00     0.107 N 
HETATM   22  C27 UNL     1      -2.375   1.139  -2.607  1.00  0.00     0.317 C 
ENDROOT
BRANCH  18  23
HETATM   23  C20 UNL     1      -0.825  -2.413  -0.353  1.00  0.00    -0.018 C 
HETATM   24  C21 UNL     1      -1.774  -2.937   0.408  1.00  0.00    -0.027 C 
BRANCH  24  25
HETATM   25  C22 UNL     1      -1.911  -4.386   0.607  1.00  0.00     0.063 C 
BRANCH  25  26
HETATM   26  C23 UNL     1      -3.272  -4.893   0.131  1.00  0.00     0.169 C 
HETATM   27  C24 UNL     1      -4.401  -4.230   0.876  1.00  0.00     0.045 C 
HETATM   28  F1  UNL     1      -3.368  -6.254   0.250  1.00  0.00    -0.250 F 
ENDBRANCH  25  26
ENDBRANCH  24  25
ENDBRANCH  18  23
BRANCH  15  29
HETATM   29  O4  UNL     1       6.095   1.700   0.385  1.00  0.00    -0.353 OA
HETATM   30  C16 UNL     1       5.987   2.940  -0.288  1.00  0.00     0.210 C 
ENDBRANCH  15  29
BRANCH  14  31
HETATM   31  O3  UNL     1       6.281  -0.732   1.696  1.00  0.00    -0.353 OA
HETATM   32  C14 UNL     1       6.474  -1.949   2.385  1.00  0.00     0.210 C 
ENDBRANCH  14  31
BRANCH   5  33
HETATM   33  O2  UNL     1      -0.530   3.169   1.264  1.00  0.00    -0.345 OA
ATOM     34  H2  UNL     1       0.397   3.166   1.058  1.00  0.00     0.219 HD
ENDBRANCH   5  33
BRANCH   2  35
HETATM   35  O1  UNL     1      -4.903   1.927  -0.403  1.00  0.00    -0.345 OA
ATOM     36  H1  UNL     1      -5.365   1.532  -1.133  1.00  0.00     0.219 HD
ENDBRANCH   2  35
BRANCH   1  37
HETATM   37  C2  UNL     1      -3.449   3.201   1.962  1.00  0.00     0.129 C 
HETATM   38  C1  UNL     1      -3.794   4.687   1.803  1.00  0.00     0.027 C 
ENDBRANCH   1  37
TORSDOF 8
