REMARK  8 active torsions:
REMARK  status: ('A' for Active; 'I' for Inactive)
REMARK    1  A    between atoms: N1_1  and  C1_4 
REMARK    2  A    between atoms: C3_10  and  N4_11 
REMARK    3  A    between atoms: C4_12  and  C5_13 
REMARK    4  A    between atoms: C5_13  and  C6_14 
REMARK    5  A    between atoms: C6_14  and  C7_15 
REMARK    6  A    between atoms: C7_15  and  C8_16 
REMARK    7  A    between atoms: C8_16  and  C9_17 
REMARK    8  A    between atoms: C22_39  and  C23_40 
ROOT
HETATM    1  N4  UNL     1      -1.458  -1.657   0.585  1.00  0.00    -0.282 N 
HETATM    2  C4  UNL     1      -0.175  -1.452   0.978  1.00  0.00     0.090 A 
HETATM    3  N7  UNL     1       0.239  -2.577   1.587  1.00  0.00    -0.341 N 
ATOM      4  H7  UNL     1       1.167  -2.716   1.987  1.00  0.00     0.167 HD
HETATM    5  C16 UNL     1      -0.744  -3.490   1.592  1.00  0.00     0.100 A 
HETATM    6  C17 UNL     1      -0.827  -4.787   2.086  1.00  0.00     0.145 A 
HETATM    7  F1  UNL     1       0.236  -5.372   2.717  1.00  0.00    -0.204 F 
HETATM    8  C18 UNL     1      -2.020  -5.456   1.915  1.00  0.00     0.045 A 
HETATM    9  C19 UNL     1      -3.088  -4.854   1.275  1.00  0.00     0.005 A 
HETATM   10  C20 UNL     1      -2.996  -3.555   0.783  1.00  0.00     0.032 A 
HETATM   11  C21 UNL     1      -1.810  -2.897   0.957  1.00  0.00     0.072 A 
ENDROOT
BRANCH   1  12
HETATM   12  C3  UNL     1      -2.242  -0.684  -0.100  1.00  0.00     0.146 A 
HETATM   13  C2  UNL     1      -2.528  -0.843  -1.445  1.00  0.00     0.123 A 
HETATM   14  N3  UNL     1      -2.209  -1.791  -2.345  1.00  0.00    -0.293 N 
HETATM   15  C29 UNL     1      -3.284   0.081  -2.128  1.00  0.00     0.111 A 
HETATM   16  N2  UNL     1      -2.737  -1.474  -3.524  1.00  0.00    -0.283 N 
ATOM     17  H3  UNL     1      -1.650  -2.622  -2.153  1.00  0.00     0.187 HD
HETATM   18  C1  UNL     1      -3.409  -0.326  -3.440  1.00  0.00     0.143 A 
ATOM     19  H2  UNL     1      -2.641  -2.031  -4.373  1.00  0.00     0.188 HD
HETATM   20  N9  UNL     1      -3.734   1.150  -1.430  1.00  0.00    -0.337 N 
HETATM   21  C22 UNL     1      -3.474   1.331  -0.129  1.00  0.00     0.117 A 
ATOM     22  H9  UNL     1      -4.296   1.848  -1.917  1.00  0.00     0.167 HD
HETATM   23  N8  UNL     1      -2.735   0.411   0.506  1.00  0.00    -0.325 N 
ATOM     24  H8  UNL     1      -2.537   0.548   1.497  1.00  0.00     0.169 HD
BRANCH  18  25
HETATM   25  N1  UNL     1      -4.048   0.305  -4.342  1.00  0.00    -0.383 N 
ATOM     26  H12 UNL     1      -4.140   0.004  -5.312  1.00  0.00     0.157 HD
ATOM     27  H11 UNL     1      -4.562   1.184  -4.278  1.00  0.00     0.157 HD
ENDBRANCH  18  25
BRANCH  21  28
HETATM   28  C23 UNL     1      -3.952   2.475   0.630  1.00  0.00     0.008 A 
HETATM   29  C24 UNL     1      -3.651   2.608   1.968  1.00  0.00     0.015 A 
HETATM   30  C25 UNL     1      -4.091   3.684   2.717  1.00  0.00     0.001 A 
HETATM   31  C26 UNL     1      -4.859   4.680   2.142  1.00  0.00     0.000 A 
HETATM   32  C27 UNL     1      -5.156   4.543   0.806  1.00  0.00     0.001 A 
HETATM   33  C28 UNL     1      -4.720   3.473   0.057  1.00  0.00     0.015 A 
ENDBRANCH  21  28
ENDBRANCH   1  12
BRANCH   2  34
HETATM   34  C5  UNL     1       0.628  -0.201   0.770  1.00  0.00     0.077 C 
BRANCH  34  35
HETATM   35  C6  UNL     1       1.382  -0.236  -0.541  1.00  0.00     0.008 C 
BRANCH  35  36
HETATM   36  C7  UNL     1       2.339  -1.354  -0.655  1.00  0.00     0.008 C 
BRANCH  36  37
HETATM   37  C8  UNL     1       3.435  -1.442   0.325  1.00  0.00     0.076 C 
BRANCH  37  38
HETATM   38  C9  UNL     1       4.409  -0.330   0.325  1.00  0.00     0.082 A 
HETATM   39  N5  UNL     1       5.396  -0.161   1.234  1.00  0.00    -0.344 N 
HETATM   40  C10 UNL     1       6.117   0.919   0.939  1.00  0.00     0.060 A 
ATOM     41  H5  UNL     1       5.564  -0.774   2.032  1.00  0.00     0.167 HD
HETATM   42  C11 UNL     1       7.204   1.526   1.516  1.00  0.00     0.032 A 
HETATM   43  C15 UNL     1       5.597   1.475  -0.189  1.00  0.00     0.060 A 
HETATM   44  C12 UNL     1       7.755   2.674   0.967  1.00  0.00     0.002 A 
HETATM   45  C13 UNL     1       7.208   3.217  -0.177  1.00  0.00     0.002 A 
HETATM   46  C14 UNL     1       6.124   2.604  -0.746  1.00  0.00     0.032 A 
HETATM   47  N6  UNL     1       4.553   0.684  -0.536  1.00  0.00    -0.344 N 
ATOM     48  H6  UNL     1       3.955   0.841  -1.347  1.00  0.00     0.167 HD
ENDBRANCH  37  38
ENDBRANCH  36  37
ENDBRANCH  35  36
ENDBRANCH  34  35
ENDBRANCH   2  34
TORSDOF 8
