REMARK  11 active torsions:
REMARK  status: ('A' for Active; 'I' for Inactive)
REMARK    1  A    between atoms: C3_3  and  C4_4 
REMARK    2  A    between atoms: C10_11  and  C12_13 
REMARK    3  A    between atoms: C12_13  and  O2_14 
REMARK    4  A    between atoms: C12_13  and  C13_16 
REMARK    5  A    between atoms: C13_16  and  C15_18 
REMARK    6  A    between atoms: C16_19  and  C17_20 
REMARK    7  A    between atoms: C17_20  and  O3_21 
REMARK    8  A    between atoms: C17_20  and  C18_23 
REMARK    9  A    between atoms: C18_23  and  C19_24 
REMARK   10  A    between atoms: C19_24  and  O4_26 
REMARK   11  A    between atoms: C27_35  and  O6_36 
ROOT
HETATM    1  C4  UNL     1      -3.773   0.152   0.642  1.00  0.00     0.054 C 
HETATM    2  C5  UNL     1      -3.875  -0.526   1.987  1.00  0.00     0.019 C 
HETATM    3  C6  UNL     1      -2.732  -0.455   2.898  1.00  0.00     0.080 C 
HETATM    4  C7  UNL     1      -1.491  -0.675   2.067  1.00  0.00     0.136 C 
HETATM    5  O1  UNL     1      -0.877  -1.590   2.473  1.00  0.00    -0.297 OA
HETATM    6  C8  UNL     1      -1.394   0.305   0.987  1.00  0.00     0.035 C 
HETATM    7  C9  UNL     1      -1.836   1.671   1.456  1.00  0.00     0.025 C 
HETATM    8  C10 UNL     1      -0.033   0.595   0.494  1.00  0.00    -0.003 C 
HETATM    9  C11 UNL     1       0.109   2.029  -0.122  1.00  0.00     0.019 C 
HETATM   10  C21 UNL     1       0.378  -0.265  -0.665  1.00  0.00     0.013 C 
HETATM   11  C22 UNL     1      -0.670  -0.174  -1.673  1.00  0.00     0.006 C 
HETATM   12  C23 UNL     1      -2.085   0.185  -1.312  1.00  0.00    -0.009 C 
HETATM   13  C24 UNL     1      -2.800  -0.312  -2.558  1.00  0.00     0.011 C 
HETATM   14  C25 UNL     1      -2.436  -0.278  -0.018  1.00  0.00    -0.016 C 
HETATM   15  C26 UNL     1      -2.472  -1.774   0.045  1.00  0.00     0.018 C 
ENDROOT
BRANCH   8  16
HETATM   16  C12 UNL     1       1.063   0.586   1.513  1.00  0.00     0.134 C 
BRANCH  16  17
HETATM   17  O2  UNL     1       1.305  -0.648   2.137  1.00  0.00    -0.394 OA
ATOM     18  H2  UNL     1       2.001  -0.654   2.784  1.00  0.00     0.210 HD
ENDBRANCH  16  17
BRANCH  16  19
HETATM   19  C13 UNL     1       2.418   1.067   1.245  1.00  0.00     0.033 C 
HETATM   20  C14 UNL     1       3.056   0.941   2.736  1.00  0.00     0.017 C 
BRANCH  19  21
HETATM   21  C15 UNL     1       3.398   0.095   0.630  1.00  0.00    -0.021 C 
HETATM   22  C16 UNL     1       4.239   0.543  -0.318  1.00  0.00     0.001 C 
BRANCH  22  23
HETATM   23  C17 UNL     1       5.242  -0.343  -0.986  1.00  0.00     0.143 C 
BRANCH  23  24
HETATM   24  O3  UNL     1       4.979  -0.503  -2.341  1.00  0.00    -0.392 OA
ATOM     25  H3  UNL     1       5.616  -1.066  -2.765  1.00  0.00     0.210 HD
ENDBRANCH  23  24
BRANCH  23  26
HETATM   26  C18 UNL     1       6.615   0.264  -0.842  1.00  0.00     0.067 C 
BRANCH  26  27
HETATM   27  C19 UNL     1       7.733  -0.467  -1.472  1.00  0.00     0.116 C 
HETATM   28  C20 UNL     1       8.028  -1.848  -1.032  1.00  0.00     0.039 C 
BRANCH  27  29
HETATM   29  O4  UNL     1       8.910   0.333  -1.305  1.00  0.00    -0.396 OA
ATOM     30  H4  UNL     1       9.629  -0.137  -1.710  1.00  0.00     0.210 HD
ENDBRANCH  27  29
ENDBRANCH  26  27
ENDBRANCH  23  26
ENDBRANCH  22  23
ENDBRANCH  19  21
ENDBRANCH  16  19
ENDBRANCH   8  16
BRANCH   1  31
HETATM   31  C3  UNL     1      -4.962  -0.353  -0.130  1.00  0.00     0.068 A 
HETATM   32  C2  UNL     1      -6.071   0.460  -0.461  1.00  0.00    -0.005 A 
HETATM   33  C1  UNL     1      -6.363   1.859  -0.069  1.00  0.00     0.052 C 
HETATM   34  C28 UNL     1      -6.906  -0.357  -1.167  1.00  0.00     0.100 A 
HETATM   35  C27 UNL     1      -6.347  -1.613  -1.272  1.00  0.00     0.206 A 
HETATM   36 CL1  UNL     1      -8.486   0.091  -1.855  1.00  0.00    -0.079 Cl
HETATM   37  O5  UNL     1      -5.216  -1.502  -0.632  1.00  0.00    -0.290 OA
BRANCH  35  38
HETATM   38  O6  UNL     1      -6.853  -2.765  -1.913  1.00  0.00    -0.339 OA
ATOM     39  H6  UNL     1      -7.677  -2.846  -2.379  1.00  0.00     0.220 HD
ENDBRANCH  35  38
ENDBRANCH   1  31
TORSDOF 11
