REMARK  6 active torsions:
REMARK  status: ('A' for Active; 'I' for Inactive)
REMARK    1  A    between atoms: O1_2  and  C2_3 
REMARK    2  A    between atoms: C5_8  and  C6_9 
REMARK    3  A    between atoms: C6_9  and  N2_11 
REMARK    4  A    between atoms: N2_11  and  C8_13 
REMARK    5  A    between atoms: C9_16  and  C10_17 
REMARK    6  A    between atoms: C25_45  and  O2_46 
ROOT
HETATM    1  C8  UNL     1      -2.306   0.208  -0.180  1.00  0.00     0.119 A 
HETATM    2  N3  UNL     1      -2.293  -0.871  -0.980  1.00  0.00    -0.327 N 
ATOM      3  H3  UNL     1      -1.621  -0.893  -1.747  1.00  0.00     0.169 HD
HETATM    4  C9  UNL     1      -3.119  -1.927  -0.826  1.00  0.00     0.121 A 
HETATM    5  N6  UNL     1      -3.994  -1.884   0.183  1.00  0.00    -0.326 N 
ATOM      6  H6  UNL     1      -4.625  -2.674   0.314  1.00  0.00     0.169 HD
HETATM    7  C14 UNL     1      -4.081  -0.830   1.046  1.00  0.00     0.138 A 
HETATM    8  N7  UNL     1      -4.852  -0.578   2.113  1.00  0.00    -0.284 N 
ATOM      9  H7  UNL     1      -5.578  -1.191   2.485  1.00  0.00     0.188 HD
HETATM   10  N8  UNL     1      -4.512   0.590   2.595  1.00  0.00    -0.297 N 
ATOM     11  H8  UNL     1      -4.940   1.027   3.411  1.00  0.00     0.187 HD
HETATM   12  C15 UNL     1      -3.500   1.148   1.853  1.00  0.00     0.076 A 
HETATM   13  C16 UNL     1      -2.888   2.422   2.148  1.00  0.00    -0.007 A 
HETATM   14  C17 UNL     1      -2.331   2.623   3.388  1.00  0.00     0.017 A 
HETATM   15  C18 UNL     1      -1.778   3.851   3.742  1.00  0.00     0.043 A 
HETATM   16  C19 UNL     1      -1.784   4.892   2.841  1.00  0.00     0.116 A 
HETATM   17  F1  UNL     1      -1.242   6.111   3.174  1.00  0.00    -0.206 F 
HETATM   18  C20 UNL     1      -2.342   4.690   1.601  1.00  0.00     0.043 A 
HETATM   19  C21 UNL     1      -2.892   3.451   1.265  1.00  0.00     0.017 A 
HETATM   20  C22 UNL     1      -3.225   0.226   0.858  1.00  0.00     0.082 A 
ENDROOT
BRANCH   1  21
HETATM   21  N2  UNL     1      -1.460   1.186  -0.364  1.00  0.00    -0.364 N 
ATOM     22  H2  UNL     1      -1.475   2.003   0.246  1.00  0.00     0.162 HD
BRANCH  21  23
HETATM   23  C6  UNL     1      -0.506   1.096  -1.440  1.00  0.00     0.147 C 
HETATM   24  C7  UNL     1      -0.374   2.408  -2.183  1.00  0.00     0.040 C 
BRANCH  23  25
HETATM   25  C5  UNL     1       0.815   0.616  -1.026  1.00  0.00     0.105 A 
HETATM   26  N1  UNL     1       1.986   1.161  -1.414  1.00  0.00    -0.342 N 
HETATM   27  C4  UNL     1       3.018   0.514  -0.878  1.00  0.00     0.063 A 
ATOM     28  H1  UNL     1       2.070   1.964  -2.037  1.00  0.00     0.167 HD
HETATM   29  C3  UNL     1       4.385   0.727  -1.002  1.00  0.00     0.071 A 
HETATM   30  C23 UNL     1       2.491  -0.489  -0.114  1.00  0.00     0.063 A 
HETATM   31  C2  UNL     1       5.265  -0.096  -0.335  1.00  0.00     0.103 A 
HETATM   32  C25 UNL     1       4.758  -1.115   0.443  1.00  0.00     0.103 A 
HETATM   33  C24 UNL     1       3.380  -1.315   0.556  1.00  0.00     0.071 A 
HETATM   34  N9  UNL     1       1.159  -0.406  -0.220  1.00  0.00    -0.342 N 
ATOM     35  H9  UNL     1       0.498  -1.029   0.244  1.00  0.00     0.167 HD
BRANCH  31  36
HETATM   36  O1  UNL     1       6.631   0.121  -0.462  1.00  0.00    -0.353 OA
HETATM   37  C1  UNL     1       7.169   1.157  -1.250  1.00  0.00     0.210 C 
ENDBRANCH  31  36
BRANCH  32  38
HETATM   38  O2  UNL     1       5.672  -1.922   1.098  1.00  0.00    -0.353 OA
HETATM   39  C26 UNL     1       5.275  -3.001   1.926  1.00  0.00     0.210 C 
ENDBRANCH  32  38
ENDBRANCH  23  25
ENDBRANCH  21  23
ENDBRANCH   1  21
BRANCH   4  40
HETATM   40  C10 UNL     1      -3.075  -3.072  -1.709  1.00  0.00     0.039 A 
HETATM   41  C11 UNL     1      -3.875  -4.172  -1.616  1.00  0.00     0.105 A 
HETATM   42  N4  UNL     1      -3.761  -5.213  -2.501  1.00  0.00    -0.361 N 
HETATM   43  C12 UNL     1      -2.855  -5.179  -3.487  1.00  0.00     0.180 A 
ATOM     44  H4  UNL     1      -4.374  -6.023  -2.407  1.00  0.00     0.166 HD
HETATM   45  N5  UNL     1      -2.061  -4.106  -3.592  1.00  0.00    -0.361 N 
HETATM   46  C13 UNL     1      -2.139  -3.066  -2.749  1.00  0.00     0.105 A 
ATOM     47  H5  UNL     1      -1.370  -4.079  -4.342  1.00  0.00     0.166 HD
ENDBRANCH   4  40
TORSDOF 6
