REMARK  11 active torsions:
REMARK  status: ('A' for Active; 'I' for Inactive)
REMARK    1  A    between atoms: C2_2  and  C3_3 
REMARK    2  A    between atoms: C3_3  and  C4_4 
REMARK    3  A    between atoms: C4_4  and  C5_5 
REMARK    4  A    between atoms: C5_5  and  C6_6 
REMARK    5  A    between atoms: C8_8  and  C9_9 
REMARK    6  A    between atoms: C10_10  and  C11_11 
REMARK    7  A    between atoms: C21_22  and  C23_24 
REMARK    8  A    between atoms: C23_24  and  O1_25 
REMARK    9  A    between atoms: C24_27  and  O2_28 
REMARK   10  A    between atoms: C28_33  and  O3_34 
REMARK   11  A    between atoms: C29_36  and  O4_37 
ROOT
HETATM    1  C11 UNL     1      -1.364   1.270   0.473  1.00  0.00    -0.050 C 
HETATM    2  C12 UNL     1      -1.255   2.303   1.333  1.00  0.00    -0.019 C 
HETATM    3  C13 UNL     1      -2.031   3.432   1.780  1.00  0.00     0.028 C 
HETATM    4  C14 UNL     1      -2.490   4.340   0.661  1.00  0.00     0.008 C 
HETATM    5  C15 UNL     1      -2.336   3.596  -0.658  1.00  0.00    -0.013 C 
HETATM    6  C16 UNL     1      -2.652   4.583  -1.754  1.00  0.00     0.010 C 
HETATM    7  C17 UNL     1      -3.221   2.429  -0.746  1.00  0.00     0.006 C 
HETATM    8  C18 UNL     1      -4.529   2.510  -0.057  1.00  0.00     0.009 C 
HETATM    9  C19 UNL     1      -4.956   1.023  -0.192  1.00  0.00     0.046 C 
HETATM   10  C20 UNL     1      -3.713   0.375   0.355  1.00  0.00     0.127 C 
HETATM   11  F1  UNL     1      -3.753   0.678   1.725  1.00  0.00    -0.241 F 
HETATM   12  C21 UNL     1      -3.774  -1.095   0.296  1.00  0.00     0.040 C 
HETATM   13  C22 UNL     1      -2.945  -1.712   1.440  1.00  0.00     0.024 C 
HETATM   14  C24 UNL     1      -3.488  -1.722  -1.026  1.00  0.00     0.131 C 
HETATM   15  C25 UNL     1      -2.914  -0.819  -2.031  1.00  0.00     0.034 C 
HETATM   16  C26 UNL     1      -2.275   0.439  -1.646  1.00  0.00     0.020 C 
HETATM   17  C27 UNL     1      -2.581   1.072  -0.341  1.00  0.00     0.028 C 
ENDROOT
BRANCH   1  18
HETATM   18  C10 UNL     1      -0.192   0.450   0.475  1.00  0.00     0.004 C 
HETATM   19  C9  UNL     1       0.236  -0.620  -0.116  1.00  0.00    -0.019 C 
BRANCH  19  20
HETATM   20  C8  UNL     1       1.618  -1.213   0.170  1.00  0.00     0.040 C 
HETATM   21  C7  UNL     1       2.337  -1.097  -1.141  1.00  0.00     0.023 C 
HETATM   22  C6  UNL     1       3.666  -1.805  -1.160  1.00  0.00     0.059 C 
HETATM   23  C30 UNL     1       3.697  -2.982  -0.274  1.00  0.00     0.162 C 
HETATM   24  C29 UNL     1       2.941  -3.070   1.002  1.00  0.00     0.217 C 
HETATM   25  O5  UNL     1       4.383  -3.941  -0.607  1.00  0.00    -0.295 OA
HETATM   26  C28 UNL     1       1.513  -2.611   0.674  1.00  0.00     0.162 C 
BRANCH  22  27
HETATM   27  C5  UNL     1       4.797  -0.878  -0.789  1.00  0.00     0.012 C 
BRANCH  27  28
HETATM   28  C4  UNL     1       6.137  -1.537  -0.802  1.00  0.00     0.001 C 
BRANCH  28  29
HETATM   29  C3  UNL     1       7.245  -0.572  -0.424  1.00  0.00    -0.000 C 
BRANCH  29  30
HETATM   30  C2  UNL     1       7.053  -0.007   0.954  1.00  0.00    -0.005 C 
HETATM   31  C1  UNL     1       8.206   0.942   1.230  1.00  0.00     0.005 C 
ENDBRANCH  29  30
ENDBRANCH  28  29
ENDBRANCH  27  28
ENDBRANCH  22  27
BRANCH  24  32
HETATM   32  O4  UNL     1       2.839  -4.409   1.390  1.00  0.00    -0.385 OA
ATOM     33  H4  UNL     1       3.723  -4.693   1.593  1.00  0.00     0.210 HD
ENDBRANCH  24  32
BRANCH  26  34
HETATM   34  O3  UNL     1       1.002  -3.416  -0.348  1.00  0.00    -0.392 OA
ATOM     35  H3  UNL     1       0.935  -4.307  -0.027  1.00  0.00     0.210 HD
ENDBRANCH  26  34
ENDBRANCH  19  20
ENDBRANCH   1  18
BRANCH  12  36
HETATM   36  C23 UNL     1      -5.199  -1.569   0.626  1.00  0.00     0.179 C 
BRANCH  36  37
HETATM   37  O1  UNL     1      -6.158  -1.162  -0.247  1.00  0.00    -0.400 OA
ATOM     38  H1  UNL     1      -7.038  -1.455  -0.043  1.00  0.00     0.209 HD
ENDBRANCH  36  37
ENDBRANCH  12  36
BRANCH  14  39
HETATM   39  O2  UNL     1      -2.600  -2.803  -0.806  1.00  0.00    -0.395 OA
ATOM     40  H2  UNL     1      -2.418  -3.203  -1.648  1.00  0.00     0.210 HD
ENDBRANCH  14  39
TORSDOF 11
