REMARK  8 active torsions:
REMARK  status: ('A' for Active; 'I' for Inactive)
REMARK    1  A    between atoms: O1_2  and  C2_3 
REMARK    2  A    between atoms: C4_5  and  C5_6 
REMARK    3  A    between atoms: C9_15  and  N3_16 
REMARK    4  A    between atoms: C11_20  and  C12_21 
REMARK    5  A    between atoms: C14_24  and  O2_25 
REMARK    6  A    between atoms: O2_25  and  C15_26 
REMARK    7  A    between atoms: C15_26  and  C16_27 
REMARK    8  A    between atoms: N4_29  and  C18_30 
ROOT
HETATM    1  C2  UNL     1      -1.072   1.653   1.261  1.00  0.00     0.102 A 
HETATM    2  C3  UNL     1      -2.148   0.802   1.316  1.00  0.00     0.052 A 
HETATM    3  C4  UNL     1      -2.385  -0.137   0.351  1.00  0.00    -0.015 A 
HETATM    4  C11 UNL     1      -1.558  -0.271  -0.716  1.00  0.00    -0.034 A 
HETATM    5  C13 UNL     1      -0.461   0.607  -0.758  1.00  0.00     0.048 A 
HETATM    6  C14 UNL     1      -0.197   1.557   0.192  1.00  0.00     0.103 A 
ENDROOT
BRANCH   3   7
HETATM    7  C5  UNL     1      -3.542  -1.073   0.509  1.00  0.00    -0.002 A 
HETATM    8  C6  UNL     1      -3.380  -2.318   1.042  1.00  0.00     0.065 A 
HETATM    9  S1  UNL     1      -4.961  -2.928   1.122  1.00  0.00    -0.082 SA
HETATM   10  C7  UNL     1      -5.809  -1.592   0.476  1.00  0.00     0.089 A 
HETATM   11  N1  UNL     1      -7.131  -1.336   0.212  1.00  0.00    -0.346 N 
HETATM   12  C10 UNL     1      -4.814  -0.675   0.204  1.00  0.00     0.053 A 
HETATM   13  C8  UNL     1      -7.526  -0.182  -0.324  1.00  0.00     0.182 A 
ATOM     14  H1  UNL     1      -7.829  -2.047   0.432  1.00  0.00     0.167 HD
HETATM   15  N2  UNL     1      -6.588   0.718  -0.596  1.00  0.00    -0.338 N 
HETATM   16  C9  UNL     1      -5.285   0.537  -0.366  1.00  0.00     0.113 A 
ATOM     17  H2  UNL     1      -6.882   1.604  -1.007  1.00  0.00     0.168 HD
BRANCH  16  18
HETATM   18  N3  UNL     1      -4.445   1.454  -0.674  1.00  0.00    -0.385 N 
ATOM     19  H32 UNL     1      -4.783   2.325  -1.084  1.00  0.00     0.157 HD
ATOM     20  H31 UNL     1      -3.450   1.316  -0.498  1.00  0.00     0.157 HD
ENDBRANCH  16  18
ENDBRANCH   3   7
BRANCH   4  21
HETATM   21  C12 UNL     1      -1.720  -1.239  -1.829  1.00  0.00     0.124 C 
HETATM   22 BR1  UNL     1      -1.121  -3.026  -1.499  1.00  0.00    -0.091 Br
ENDBRANCH   4  21
BRANCH   1  23
HETATM   23  O1  UNL     1      -0.891   2.570   2.258  1.00  0.00    -0.353 OA
HETATM   24  C1  UNL     1      -1.693   2.763   3.377  1.00  0.00     0.210 C 
ENDBRANCH   1  23
BRANCH   6  25
HETATM   25  O2  UNL     1       0.854   2.420   0.174  1.00  0.00    -0.342 OA
BRANCH  25  26
HETATM   26  C15 UNL     1       1.892   2.635  -0.685  1.00  0.00     0.236 C 
BRANCH  26  27
HETATM   27  C16 UNL     1       2.834   1.539  -0.942  1.00  0.00     0.068 A 
HETATM   28  C17 UNL     1       3.647   0.811  -0.104  1.00  0.00     0.141 A 
HETATM   29  N4  UNL     1       4.352  -0.077  -0.834  1.00  0.00    -0.278 N 
HETATM   30  N5  UNL     1       3.992   0.087  -2.096  1.00  0.00    -0.240 N 
HETATM   31  N6  UNL     1       3.101   1.033  -2.176  1.00  0.00    -0.287 N 
ATOM     32  H5  UNL     1       4.357  -0.446  -2.886  1.00  0.00     0.208 HD
ATOM     33  H6  UNL     1       2.665   1.350  -3.042  1.00  0.00     0.188 HD
BRANCH  29  34
HETATM   34  C18 UNL     1       5.332  -1.044  -0.410  1.00  0.00     0.043 C 
HETATM   35  C19 UNL     1       4.583  -2.283   0.074  1.00  0.00     0.039 C 
HETATM   36  C20 UNL     1       6.145  -1.459  -1.619  1.00  0.00     0.039 C 
HETATM   37  C21 UNL     1       6.226  -0.501   0.687  1.00  0.00     0.039 C 
ENDBRANCH  29  34
ENDBRANCH  26  27
ENDBRANCH  25  26
ENDBRANCH   6  25
TORSDOF 8
