REMARK  7 active torsions:
REMARK  status: ('A' for Active; 'I' for Inactive)
REMARK    1  A    between atoms: O1_2  and  C2_3 
REMARK    2  A    between atoms: C2_3  and  C3_4 
REMARK    3  A    between atoms: C4_8  and  C5_9 
REMARK    4  A    between atoms: C7_11  and  N2_12 
REMARK    5  A    between atoms: N2_12  and  C8_14 
REMARK    6  A    between atoms: C17_28  and  O3_29 
REMARK    7  A    between atoms: C19_31  and  O4_32 
ROOT
HETATM    1  C5  UNL     1       1.191   0.137   0.115  1.00  0.00     0.088 A 
HETATM    2  C6  UNL     1      -0.006   0.803   0.015  1.00  0.00     0.064 A 
HETATM    3  C7  UNL     1      -1.194   0.082  -0.130  1.00  0.00     0.047 A 
HETATM    4  C15 UNL     1      -1.108  -1.294  -0.167  1.00  0.00     0.020 A 
HETATM    5  C16 UNL     1      -2.284  -2.013  -0.311  1.00  0.00     0.055 A 
HETATM    6  C17 UNL     1      -2.184  -3.388  -0.346  1.00  0.00     0.102 A 
HETATM    7  C19 UNL     1      -0.996  -4.081  -0.248  1.00  0.00     0.103 A 
HETATM    8  C21 UNL     1       0.162  -3.307  -0.104  1.00  0.00     0.070 A 
HETATM    9  C22 UNL     1       0.115  -1.944  -0.064  1.00  0.00     0.048 A 
HETATM   10  N5  UNL     1       1.227  -1.214   0.074  1.00  0.00    -0.352 N 
ATOM     11  H5  UNL     1       2.126  -1.689   0.150  1.00  0.00     0.166 HD
ENDROOT
BRANCH   3  12
HETATM   12  N2  UNL     1      -2.348   0.633  -0.230  1.00  0.00    -0.354 N 
ATOM     13  H2  UNL     1      -3.176   0.047  -0.335  1.00  0.00     0.166 HD
BRANCH  12  14
HETATM   14  C8  UNL     1      -2.491   2.047  -0.197  1.00  0.00     0.051 A 
HETATM   15  C9  UNL     1      -2.861   2.679   0.972  1.00  0.00     0.046 A 
HETATM   16  C10 UNL     1      -3.004   4.034   1.024  1.00  0.00     0.011 A 
HETATM   17  C11 UNL     1      -3.361   4.897   2.061  1.00  0.00     0.120 A 
HETATM   18  C12 UNL     1      -2.768   4.760  -0.123  1.00  0.00     0.061 A 
HETATM   19  N3  UNL     1      -3.329   6.119   1.506  1.00  0.00    -0.311 N 
HETATM   20  N4  UNL     1      -2.984   6.047   0.228  1.00  0.00    -0.300 N 
ATOM     21  H3  UNL     1      -3.541   6.985   2.001  1.00  0.00     0.186 HD
ATOM     22  H4  UNL     1      -2.895   6.847  -0.399  1.00  0.00     0.187 HD
HETATM   23  C13 UNL     1      -2.398   4.151  -1.301  1.00  0.00     0.053 A 
HETATM   24  C14 UNL     1      -2.255   2.777  -1.349  1.00  0.00     0.040 A 
HETATM   25 BR1  UNL     1      -1.739   1.892  -2.977  1.00  0.00    -0.049 Br
ENDBRANCH  12  14
ENDBRANCH   3  12
BRANCH   1  26
HETATM   26  C4  UNL     1       2.444   0.847   0.267  1.00  0.00     0.198 A 
HETATM   27  O2  UNL     1       2.516   2.162   0.317  1.00  0.00    -0.216 OA
HETATM   28  N1  UNL     1       3.751   2.523   0.455  1.00  0.00    -0.244 N 
HETATM   29  C3  UNL     1       4.519   1.415   0.497  1.00  0.00     0.128 A 
ATOM     30  H1  UNL     1       4.087   3.484   0.521  1.00  0.00     0.196 HD
HETATM   31  N6  UNL     1       3.686   0.378   0.378  1.00  0.00    -0.320 N 
ATOM     32  H6  UNL     1       3.955  -0.606   0.373  1.00  0.00     0.169 HD
BRANCH  29  33
HETATM   33  C2  UNL     1       5.988   1.425   0.654  1.00  0.00     0.245 C 
BRANCH  33  34
HETATM   34  O1  UNL     1       6.611   0.221   0.484  1.00  0.00    -0.389 OA
HETATM   35  C1  UNL     1       6.482  -0.375  -0.740  1.00  0.00     0.202 C 
ENDBRANCH  33  34
ENDBRANCH  29  33
ENDBRANCH   1  26
BRANCH   6  36
HETATM   36  O3  UNL     1      -3.331  -4.188  -0.490  1.00  0.00    -0.353 OA
HETATM   37  C18 UNL     1      -4.576  -3.536  -0.595  1.00  0.00     0.210 C 
ENDBRANCH   6  36
BRANCH   7  38
HETATM   38  O4  UNL     1      -0.943  -5.468  -0.288  1.00  0.00    -0.353 OA
HETATM   39  C20 UNL     1       0.327  -6.079  -0.179  1.00  0.00     0.210 C 
ENDBRANCH   7  38
TORSDOF 7
