REMARK  5 active torsions:
REMARK  status: ('A' for Active; 'I' for Inactive)
REMARK    1  A    between atoms: N1_4  and  C4_5 
REMARK    2  A    between atoms: C7_8  and  C8_9 
REMARK    3  A    between atoms: C8_9  and  N2_10 
REMARK    4  A    between atoms: C11_13  and  C12_14 
REMARK    5  A    between atoms: C15_21  and  N5_22 
ROOT
HETATM    1  N2  UNL     1       0.736  -0.672  -0.504  1.00  0.00    -0.389 N 
HETATM    2  C9  UNL     1       0.606   0.246   0.570  1.00  0.00     0.123 C 
HETATM    3  C10 UNL     1      -0.586  -0.179   1.399  1.00  0.00     0.030 C 
HETATM    4  C11 UNL     1      -1.894  -0.095   0.606  1.00  0.00     0.042 C 
HETATM    5  C20 UNL     1      -1.598   0.017  -0.849  1.00  0.00     0.030 C 
HETATM    6  C21 UNL     1      -0.486  -0.995  -1.170  1.00  0.00     0.123 C 
ENDROOT
BRANCH   4   7
HETATM    7  C12 UNL     1      -2.707   0.919   1.216  1.00  0.00     0.058 A 
HETATM    8  N3  UNL     1      -2.118   1.737   2.122  1.00  0.00    -0.365 N 
HETATM    9  C13 UNL     1      -2.708   2.732   2.761  1.00  0.00     0.105 A 
ATOM     10  H3  UNL     1      -1.133   1.570   2.329  1.00  0.00     0.165 HD
HETATM   11  C14 UNL     1      -4.038   2.964   2.487  1.00  0.00     0.106 A 
HETATM   12  N4  UNL     1      -4.665   2.185   1.601  1.00  0.00    -0.349 N 
HETATM   13  C15 UNL     1      -4.008   1.150   0.953  1.00  0.00     0.126 A 
ATOM     14  H4  UNL     1      -5.650   2.356   1.397  1.00  0.00     0.167 HD
BRANCH  13  15
HETATM   15  N5  UNL     1      -4.719   0.372   0.058  1.00  0.00    -0.362 N 
HETATM   16  C16 UNL     1      -4.979  -1.020   0.266  1.00  0.00     0.152 C 
HETATM   17  C17 UNL     1      -6.427  -1.364  -0.069  1.00  0.00     0.252 C 
HETATM   18  N6  UNL     1      -6.767  -0.870  -1.395  1.00  0.00    -0.072 N 
HETATM   19  C18 UNL     1      -6.724   0.576  -1.327  1.00  0.00     0.252 C 
ATOM     20  H62 UNL     1      -6.176  -1.255  -2.131  1.00  0.00     0.277 HD
ATOM     21  H61 UNL     1      -7.656  -1.230  -1.742  1.00  0.00     0.277 HD
HETATM   22  C19 UNL     1      -5.272   0.970  -1.135  1.00  0.00     0.152 C 
ENDBRANCH  13  15
ENDBRANCH   4   7
BRANCH   1  23
HETATM   23  C8  UNL     1       1.705  -1.677  -0.441  1.00  0.00     0.096 C 
BRANCH  23  24
HETATM   24  C7  UNL     1       3.117  -1.233  -0.336  1.00  0.00    -0.021 A 
HETATM   25  C6  UNL     1       3.869  -0.939  -1.469  1.00  0.00     0.015 A 
HETATM   26  C5  UNL     1       5.184  -0.532  -1.366  1.00  0.00     0.031 A 
HETATM   27  C4  UNL     1       5.818  -0.396  -0.145  1.00  0.00     0.038 A 
HETATM   28  C23 UNL     1       5.075  -0.686   0.980  1.00  0.00     0.031 A 
HETATM   29  C22 UNL     1       3.762  -1.092   0.881  1.00  0.00     0.015 A 
BRANCH  27  30
HETATM   30  N1  UNL     1       7.177   0.026  -0.078  1.00  0.00    -0.333 N 
HETATM   31  C3  UNL     1       7.539   1.314  -0.190  1.00  0.00     0.096 A 
HETATM   32  C2  UNL     1       8.895   1.408  -0.088  1.00  0.00     0.019 A 
HETATM   33  C1  UNL     1       9.385   0.131   0.093  1.00  0.00     0.019 A 
HETATM   34  C24 UNL     1       8.294  -0.717   0.096  1.00  0.00     0.096 A 
ENDBRANCH  27  30
ENDBRANCH  23  24
ENDBRANCH   1  23
TORSDOF 5
