REMARK  12 active torsions:
REMARK  status: ('A' for Active; 'I' for Inactive)
REMARK    1  A    between atoms: C5_5  and  N1_6 
REMARK       I    between atoms: N1_6  and  C6_8 
REMARK    2  A    between atoms: C9_12  and  C10_13 
REMARK    3  A    between atoms: C10_13  and  C12_15 
REMARK    4  A    between atoms: C12_15  and  C13_16 
REMARK    5  A    between atoms: C13_16  and  C14_17 
REMARK    6  A    between atoms: C14_17  and  C15_18 
REMARK    7  A    between atoms: C15_18  and  C16_19 
REMARK    8  A    between atoms: C16_19  and  O2_20 
REMARK    9  A    between atoms: O2_20  and  C17_21 
REMARK   10  A    between atoms: C17_21  and  C18_23 
REMARK   11  A    between atoms: C24_29  and  O4_30 
REMARK   12  A    between atoms: N2_33  and  O5_35 
ROOT
HETATM    1  C1  UNL     1      -6.827  -2.098   1.103  1.00  0.00     0.021 C 
HETATM    2  C2  UNL     1      -5.596  -1.852   0.712  1.00  0.00    -0.040 C 
HETATM    3  C3  UNL     1      -5.198  -0.540   0.142  1.00  0.00     0.047 C 
HETATM    4  C4  UNL     1      -3.899  -0.100   0.745  1.00  0.00     0.024 C 
HETATM    5  C5  UNL     1      -3.315   1.107   0.051  1.00  0.00     0.090 C 
HETATM    6  C8  UNL     1      -2.288   0.422  -0.875  1.00  0.00     0.031 C 
HETATM    7  C9  UNL     1      -1.659  -0.477   0.125  1.00  0.00     0.003 C 
HETATM    8  C22 UNL     1      -2.826  -1.180   0.736  1.00  0.00    -0.003 C 
HETATM    9  C23 UNL     1      -2.438  -1.499   2.191  1.00  0.00     0.019 C 
HETATM   10  C24 UNL     1      -3.247  -2.462   0.137  1.00  0.00     0.179 C 
HETATM   11  C25 UNL     1      -4.540  -2.850   0.811  1.00  0.00     0.067 C 
HETATM   12  N2  UNL     1      -4.705  -3.954   1.418  1.00  0.00    -0.270 N 
ATOM     13  H2  UNL     1      -5.618  -4.121   1.842  1.00  0.00     0.194 HD
ENDROOT
BRANCH   7  14
HETATM   14  C10 UNL     1      -0.457  -1.215  -0.195  1.00  0.00    -0.014 C 
HETATM   15  C11 UNL     1      -0.425  -2.129  -1.364  1.00  0.00     0.010 C 
BRANCH  14  16
HETATM   16  C12 UNL     1       0.818  -0.467  -0.046  1.00  0.00     0.005 C 
BRANCH  16  17
HETATM   17  C13 UNL     1       1.005   0.771  -0.849  1.00  0.00     0.000 C 
BRANCH  17  18
HETATM   18  C14 UNL     1       2.394   1.374  -0.638  1.00  0.00     0.002 C 
BRANCH  18  19
HETATM   19  C15 UNL     1       2.666   1.751   0.781  1.00  0.00     0.027 C 
BRANCH  19  20
HETATM   20  C16 UNL     1       4.070   2.334   0.823  1.00  0.00     0.178 C 
BRANCH  20  21
HETATM   21  O2  UNL     1       4.966   1.326   0.367  1.00  0.00    -0.321 OA
BRANCH  21  22
HETATM   22  C17 UNL     1       6.322   1.565   0.293  1.00  0.00     0.266 C 
HETATM   23  O3  UNL     1       6.717   2.714   0.649  1.00  0.00    -0.264 OA
BRANCH  22  24
HETATM   24  C18 UNL     1       7.308   0.571  -0.169  1.00  0.00     0.037 C 
HETATM   25  C19 UNL     1       7.039   0.120  -1.598  1.00  0.00     0.025 C 
HETATM   26  C20 UNL     1       8.700   1.143  -0.098  1.00  0.00     0.025 C 
HETATM   27  C21 UNL     1       7.258  -0.615   0.784  1.00  0.00     0.025 C 
ENDBRANCH  22  24
ENDBRANCH  21  22
ENDBRANCH  20  21
ENDBRANCH  19  20
ENDBRANCH  18  19
ENDBRANCH  17  18
ENDBRANCH  16  17
ENDBRANCH  14  16
ENDBRANCH   7  14
BRANCH   5  28
HETATM   28  N1  UNL     1      -4.250   1.907  -0.659  1.00  0.00    -0.356 N 
HETATM   29  C6  UNL     1      -4.434   3.298  -0.504  1.00  0.00     0.213 C 
HETATM   30  C7  UNL     1      -5.435   4.044  -1.290  1.00  0.00     0.117 C 
HETATM   31  O1  UNL     1      -3.731   3.918   0.322  1.00  0.00    -0.274 OA
ATOM     32  H1  UNL     1      -4.841   1.434  -1.342  1.00  0.00     0.162 HD
ENDBRANCH   5  28
BRANCH  10  33
HETATM   33  O4  UNL     1      -3.527  -2.447  -1.209  1.00  0.00    -0.389 OA
ATOM     34  H4  UNL     1      -3.798  -3.272  -1.594  1.00  0.00     0.210 HD
ENDBRANCH  10  33
BRANCH  12  35
HETATM   35  O5  UNL     1      -3.772  -4.929   1.551  1.00  0.00    -0.290 OA
ATOM     36  H5  UNL     1      -3.895  -5.754   2.005  1.00  0.00     0.244 HD
ENDBRANCH  12  35
TORSDOF 12
