REMARK  8 active torsions:
REMARK  status: ('A' for Active; 'I' for Inactive)
REMARK    1  A    between atoms: N2_9  and  C5_10 
REMARK    2  A    between atoms: C5_10  and  C6_11 
REMARK    3  A    between atoms: C6_11  and  C7_12 
REMARK    4  A    between atoms: C6_11  and  N4_20 
REMARK    5  A    between atoms: C8_13  and  C9_14 
REMARK    6  A    between atoms: C9_14  and  N3_15 
REMARK    7  A    between atoms: C18_26  and  N5_27 
REMARK    8  A    between atoms: N5_27  and  C19_29 
ROOT
HETATM    1  N4  UNL     1      -1.415   0.672   1.226  1.00  0.00    -0.364 N 
HETATM    2  C14 UNL     1      -2.279   0.521   2.396  1.00  0.00     0.151 C 
HETATM    3  C15 UNL     1      -1.733  -0.523   3.342  1.00  0.00     0.195 C 
HETATM    4  O2  UNL     1      -0.351  -0.658   3.279  1.00  0.00    -0.347 OA
HETATM    5  C16 UNL     1       0.525  -0.038   2.434  1.00  0.00     0.097 A 
HETATM    6  C17 UNL     1       1.886  -0.053   2.565  1.00  0.00     0.068 A 
HETATM    7  C18 UNL     1       2.752   0.593   1.680  1.00  0.00     0.036 A 
HETATM    8  C26 UNL     1       2.178   1.273   0.628  1.00  0.00     0.032 A 
HETATM    9  C27 UNL     1       0.806   1.324   0.443  1.00  0.00     0.034 A 
HETATM   10  C28 UNL     1       0.001   0.670   1.345  1.00  0.00     0.065 A 
ENDROOT
BRANCH   1  11
HETATM   11  C6  UNL     1      -2.010   0.805  -0.080  1.00  0.00     0.146 C 
BRANCH  11  12
HETATM   12  C5  UNL     1      -2.852   1.993  -0.264  1.00  0.00     0.096 C 
BRANCH  12  13
HETATM   13  N2  UNL     1      -2.302   3.282  -0.295  1.00  0.00    -0.327 N 
HETATM   14  C1  UNL     1      -2.219   4.046   0.913  1.00  0.00     0.249 C 
HETATM   15  O1  UNL     1      -3.071   3.973   1.828  1.00  0.00    -0.271 OA
HETATM   16  C2  UNL     1      -1.081   4.988   1.126  1.00  0.00     0.335 C 
HETATM   17  N1  UNL     1      -0.792   5.727  -0.082  1.00  0.00    -0.065 N 
HETATM   18  C3  UNL     1      -1.739   5.463  -1.130  1.00  0.00     0.253 C 
ATOM     19  H12 UNL     1      -0.724   6.727   0.107  1.00  0.00     0.277 HD
ATOM     20  H11 UNL     1       0.162   5.554  -0.398  1.00  0.00     0.277 HD
HETATM   21  C4  UNL     1      -1.768   3.973  -1.452  1.00  0.00     0.158 C 
ENDBRANCH  12  13
ENDBRANCH  11  12
BRANCH  11  22
HETATM   22  C7  UNL     1      -2.964  -0.386  -0.125  1.00  0.00     0.001 C 
HETATM   23  C8  UNL     1      -2.561  -1.586  -0.518  1.00  0.00     0.001 C 
BRANCH  23  24
HETATM   24  C9  UNL     1      -3.504  -2.733  -0.557  1.00  0.00     0.299 C 
BRANCH  24  25
HETATM   25  N3  UNL     1      -3.668  -3.316  -1.858  1.00  0.00     0.091 N 
HETATM   26  C10 UNL     1      -4.642  -4.391  -1.738  1.00  0.00     0.273 C 
HETATM   27  C11 UNL     1      -3.896  -5.675  -1.592  1.00  0.00     0.032 C 
HETATM   28  C12 UNL     1      -2.453  -5.258  -1.505  1.00  0.00     0.032 C 
HETATM   29  C13 UNL     1      -2.437  -3.951  -2.262  1.00  0.00     0.273 C 
ENDBRANCH  24  25
ENDBRANCH  23  24
ENDBRANCH  11  22
ENDBRANCH   1  11
BRANCH   7  30
HETATM   30  N5  UNL     1       4.135   0.572   1.823  1.00  0.00    -0.342 N 
ATOM     31  H5  UNL     1       4.474   0.865   2.739  1.00  0.00     0.167 HD
BRANCH  30  32
HETATM   32  C19 UNL     1       5.043   0.248   0.999  1.00  0.00     0.107 A 
HETATM   33  C20 UNL     1       6.365   0.336   1.445  1.00  0.00     0.049 A 
HETATM   34  C21 UNL     1       7.436   0.002   0.644  1.00  0.00     0.019 A 
HETATM   35  C22 UNL     1       7.219  -0.433  -0.636  1.00  0.00     0.009 A 
HETATM   36  C23 UNL     1       8.034  -0.838  -1.674  1.00  0.00     0.032 A 
HETATM   37  C25 UNL     1       5.914  -0.515  -1.062  1.00  0.00     0.117 A 
HETATM   38  C24 UNL     1       7.224  -1.168  -2.739  1.00  0.00     0.090 A 
HETATM   39  N6  UNL     1       5.962  -0.960  -2.331  1.00  0.00    -0.352 N 
ATOM     40  H6  UNL     1       5.139  -1.120  -2.912  1.00  0.00     0.166 HD
HETATM   41  N7  UNL     1       4.861  -0.178  -0.252  1.00  0.00    -0.328 N 
ATOM     42  H7  UNL     1       3.911  -0.255  -0.616  1.00  0.00     0.169 HD
ENDBRANCH  30  32
ENDBRANCH   7  30
TORSDOF 8
