REMARK  9 active torsions:
REMARK  status: ('A' for Active; 'I' for Inactive)
REMARK    1  A    between atoms: O1_1  and  C1_3 
REMARK    2  A    between atoms: C1_3  and  C2_4 
REMARK    3  A    between atoms: C1_3  and  C20_25 
REMARK    4  A    between atoms: C2_4  and  O2_5 
REMARK    5  A    between atoms: O2_5  and  C3_6 
REMARK    6  A    between atoms: C3_6  and  C4_7 
REMARK    7  A    between atoms: C3_6  and  C10_13 
REMARK    8  A    between atoms: C3_6  and  C16_19 
REMARK    9  A    between atoms: C20_25  and  N2_26 
ROOT
HETATM    1  C2  UNL     1      -0.759   0.169   1.197  1.00  0.00     0.203 C 
ENDROOT
BRANCH   1   2
HETATM    2  C1  UNL     1       0.736   0.113   0.941  1.00  0.00     0.161 C 
BRANCH   2   3
HETATM    3  O1  UNL     1       1.186   1.090   0.085  1.00  0.00    -0.392 OA
ATOM      4  H1  UNL     1       2.122   1.055  -0.075  1.00  0.00     0.210 HD
ENDBRANCH   2   3
BRANCH   2   5
HETATM    5  C20 UNL     1       1.191  -1.250   0.531  1.00  0.00     0.177 C 
BRANCH   5   6
HETATM    6  N2  UNL     1       2.661  -1.328   0.515  1.00  0.00    -0.314 N 
HETATM    7  C21 UNL     1       3.196  -2.619   0.128  1.00  0.00     0.221 C 
HETATM    8  S1  UNL     1       4.720  -2.345  -0.862  1.00  0.00    -0.104 SA
HETATM    9  C22 UNL     1       5.384  -0.799  -0.263  1.00  0.00     0.060 A 
HETATM   10  C23 UNL     1       6.553  -0.188  -0.384  1.00  0.00     0.014 A 
HETATM   11  C29 UNL     1       4.579   0.091   0.553  1.00  0.00     0.138 A 
HETATM   12  C24 UNL     1       7.678  -0.647  -1.084  1.00  0.00     0.015 A 
HETATM   13  C28 UNL     1       6.580   1.011   0.275  1.00  0.00     0.084 A 
HETATM   14  C25 UNL     1       8.829   0.101  -1.121  1.00  0.00     0.004 A 
HETATM   15  C26 UNL     1       8.843   1.305  -0.454  1.00  0.00     0.045 A 
HETATM   16  C27 UNL     1       7.753   1.767   0.235  1.00  0.00     0.143 A 
HETATM   17  F1  UNL     1       7.728   2.939   0.899  1.00  0.00    -0.204 F 
HETATM   18  N3  UNL     1       5.439   1.192   0.827  1.00  0.00    -0.337 N 
ATOM     19  H3  UNL     1       5.183   2.008   1.383  1.00  0.00     0.167 HD
HETATM   20  N4  UNL     1       3.375  -0.213   0.857  1.00  0.00    -0.286 N 
ATOM     21  H4  UNL     1       2.880   0.468   1.432  1.00  0.00     0.188 HD
ENDBRANCH   5   6
ENDBRANCH   2   5
ENDBRANCH   1   2
BRANCH   1  22
HETATM   22  O2  UNL     1      -1.387   0.014  -0.005  1.00  0.00    -0.361 OA
BRANCH  22  23
HETATM   23  C3  UNL     1      -2.770   0.034   0.022  1.00  0.00     0.157 C 
BRANCH  23  24
HETATM   24  C4  UNL     1      -3.231  -0.228  -1.395  1.00  0.00    -0.013 A 
HETATM   25  C5  UNL     1      -4.471  -0.684  -1.709  1.00  0.00     0.011 A 
HETATM   26  C6  UNL     1      -4.817  -0.893  -3.046  1.00  0.00     0.001 A 
HETATM   27  C7  UNL     1      -3.919  -0.644  -4.054  1.00  0.00     0.000 A 
HETATM   28  C8  UNL     1      -2.670  -0.184  -3.737  1.00  0.00     0.001 A 
HETATM   29  C9  UNL     1      -2.352   0.013  -2.428  1.00  0.00     0.011 A 
ENDBRANCH  23  24
BRANCH  23  30
HETATM   30  C10 UNL     1      -3.360   1.341   0.366  1.00  0.00    -0.013 A 
HETATM   31  C11 UNL     1      -4.655   1.417   0.795  1.00  0.00     0.011 A 
HETATM   32  C12 UNL     1      -5.183   2.680   1.098  1.00  0.00     0.001 A 
HETATM   33  C13 UNL     1      -4.433   3.829   0.975  1.00  0.00     0.000 A 
HETATM   34  C14 UNL     1      -3.133   3.740   0.544  1.00  0.00     0.001 A 
HETATM   35  C15 UNL     1      -2.615   2.481   0.243  1.00  0.00     0.011 A 
ENDBRANCH  23  30
BRANCH  23  36
HETATM   36  C16 UNL     1      -3.243  -1.057   0.936  1.00  0.00     0.053 A 
HETATM   37  C17 UNL     1      -3.670  -0.951   2.237  1.00  0.00     0.030 A 
HETATM   38  C18 UNL     1      -4.000  -2.205   2.660  1.00  0.00     0.019 A 
HETATM   39  C19 UNL     1      -3.762  -3.057   1.587  1.00  0.00     0.088 A 
HETATM   40  N1  UNL     1      -3.301  -2.340   0.544  1.00  0.00    -0.366 N 
ATOM     41  H1  UNL     1      -3.044  -2.704  -0.373  1.00  0.00     0.165 HD
ENDBRANCH  23  36
ENDBRANCH  22  23
ENDBRANCH   1  22
TORSDOF 9
