REMARK  8 active torsions:
REMARK  status: ('A' for Active; 'I' for Inactive)
REMARK    1  A    between atoms: C11_14  and  N3_15 
REMARK    2  A    between atoms: N3_15  and  C12_17 
REMARK    3  A    between atoms: C15_20  and  C16_21 
REMARK    4  A    between atoms: N7_32  and  C21_33 
REMARK    5  A    between atoms: C21_33  and  C22_34 
REMARK    6  A    between atoms: C22_34  and  C23_35 
REMARK    7  A    between atoms: C23_35  and  C24_36 
REMARK    8  A    between atoms: C24_36  and  N8_37 
ROOT
HETATM    1  N1  UNL     1       4.596   4.051   3.313  1.00  0.00    -0.191 NA
HETATM    2  C1  UNL     1       3.568   3.893   2.817  1.00  0.00     0.099 C 
HETATM    3  C2  UNL     1       2.264   3.703   2.203  1.00  0.00     0.045 A 
HETATM    4  C3  UNL     1       1.222   4.564   2.445  1.00  0.00     0.025 A 
HETATM    5  C4  UNL     1       0.009   4.334   1.835  1.00  0.00     0.032 A 
HETATM    6  C5  UNL     1      -0.171   3.250   0.985  1.00  0.00     0.045 A 
HETATM    7  N2  UNL     1      -1.255   2.837   0.291  1.00  0.00    -0.341 N 
ATOM      8  H2  UNL     1      -2.166   3.296   0.290  1.00  0.00     0.167 HD
HETATM    9  C6  UNL     1      -0.942   1.725  -0.399  1.00  0.00     0.122 A 
HETATM   10  C7  UNL     1       0.380   1.431  -0.129  1.00  0.00     0.038 A 
HETATM   11  C8  UNL     1       0.889   2.396   0.755  1.00  0.00     0.007 A 
HETATM   12  C9  UNL     1       2.109   2.605   1.352  1.00  0.00     0.037 A 
HETATM   13  C10 UNL     1       0.718   0.303  -0.824  1.00  0.00     0.067 A 
HETATM   14  C11 UNL     1       1.856  -0.454  -0.957  1.00  0.00     0.121 A 
HETATM   15  N5  UNL     1       1.808  -1.545  -1.766  1.00  0.00    -0.338 N 
ATOM     16  H5  UNL     1       2.650  -2.112  -1.869  1.00  0.00     0.168 HD
HETATM   17  C19 UNL     1       0.709  -1.909  -2.432  1.00  0.00     0.183 A 
HETATM   18  N6  UNL     1      -0.377  -1.163  -2.288  1.00  0.00    -0.338 N 
ATOM     19  H6  UNL     1      -1.216  -1.441  -2.797  1.00  0.00     0.168 HD
HETATM   20  C20 UNL     1      -0.447  -0.070  -1.520  1.00  0.00     0.125 A 
HETATM   21  N7  UNL     1      -1.430   0.804  -1.246  1.00  0.00    -0.318 N 
ENDROOT
BRANCH  21  22
HETATM   22  C21 UNL     1      -2.761   0.766  -1.754  1.00  0.00     0.133 C 
BRANCH  22  23
HETATM   23  C22 UNL     1      -3.737  -0.045  -0.941  1.00  0.00     0.026 C 
BRANCH  23  24
HETATM   24  C23 UNL     1      -3.896   0.430   0.453  1.00  0.00     0.064 C 
BRANCH  24  25
HETATM   25  C24 UNL     1      -4.836  -0.339   1.303  1.00  0.00     0.257 C 
BRANCH  25  26
HETATM   26  N8  UNL     1      -6.194  -0.410   0.933  1.00  0.00     0.100 N 
HETATM   27  O2  UNL     1      -6.956  -0.561   2.084  1.00  0.00    -0.052 OA
HETATM   28  C25 UNL     1      -6.619  -1.462   0.025  1.00  0.00     0.338 C 
HETATM   29  C26 UNL     1      -7.619  -0.487  -0.586  1.00  0.00     0.159 C 
HETATM   30  C27 UNL     1      -6.757   0.556   0.084  1.00  0.00     0.385 C 
HETATM   31  O3  UNL     1      -6.642   1.741  -0.086  1.00  0.00    -0.255 OA
ENDBRANCH  25  26
ENDBRANCH  24  25
ENDBRANCH  23  24
ENDBRANCH  22  23
ENDBRANCH  21  22
BRANCH  14  32
HETATM   32  N3  UNL     1       2.940  -0.207  -0.382  1.00  0.00    -0.342 N 
ATOM     33  H3  UNL     1       2.955   0.616   0.220  1.00  0.00     0.167 HD
BRANCH  32  34
HETATM   34  C12 UNL     1       4.137  -0.935  -0.472  1.00  0.00     0.033 A 
HETATM   35  C13 UNL     1       4.256  -2.091   0.284  1.00  0.00     0.030 A 
HETATM   36  C14 UNL     1       5.400  -2.867   0.256  1.00  0.00     0.019 A 
HETATM   37  C15 UNL     1       6.469  -2.506  -0.537  1.00  0.00     0.029 A 
HETATM   38  C17 UNL     1       6.362  -1.361  -1.290  1.00  0.00     0.019 A 
HETATM   39  C18 UNL     1       5.213  -0.587  -1.259  1.00  0.00     0.030 A 
BRANCH  37  40
HETATM   40  C16 UNL     1       7.678  -3.319  -0.571  1.00  0.00     0.264 C 
HETATM   41  N4  UNL     1       7.729  -4.518   0.216  1.00  0.00    -0.057 NA
HETATM   42  O1  UNL     1       8.672  -3.008  -1.264  1.00  0.00    -0.271 OA
ENDBRANCH  37  40
ENDBRANCH  32  34
ENDBRANCH  14  32
TORSDOF 8
