REMARK  7 active torsions:
REMARK  status: ('A' for Active; 'I' for Inactive)
REMARK    1  A    between atoms: N1_4  and  C4_5 
REMARK    2  A    between atoms: C4_5  and  C5_6 
REMARK    3  A    between atoms: C5_6  and  S1_7 
REMARK    4  A    between atoms: S1_7  and  C6_8 
REMARK    5  A    between atoms: C6_8  and  C7_9 
REMARK    6  A    between atoms: C7_9  and  N2_10 
REMARK    7  A    between atoms: C11_17  and  O1_18 
ROOT
HETATM    1  C1  UNL     1      -4.258   0.320   3.129  1.00  0.00     0.026 C 
HETATM    2  C2  UNL     1      -3.576   0.369   1.993  1.00  0.00    -0.017 A 
HETATM    3  C3  UNL     1      -2.171   0.705   1.810  1.00  0.00     0.102 A 
HETATM    4  N1  UNL     1      -1.852   0.649   0.549  1.00  0.00    -0.354 N 
HETATM    5  C9  UNL     1      -2.988   0.279  -0.207  1.00  0.00     0.048 A 
HETATM    6  C10 UNL     1      -3.213   0.081  -1.557  1.00  0.00     0.067 A 
HETATM    7  C11 UNL     1      -4.461  -0.288  -2.074  1.00  0.00     0.067 A 
HETATM    8  C12 UNL     1      -5.488  -0.454  -1.192  1.00  0.00     0.037 A 
HETATM    9  C13 UNL     1      -5.316  -0.266   0.176  1.00  0.00     0.017 A 
HETATM   10  C14 UNL     1      -4.079   0.096   0.654  1.00  0.00     0.002 A 
ENDROOT
BRANCH   4  11
HETATM   11  C4  UNL     1      -0.528   0.929   0.049  1.00  0.00     0.139 C 
BRANCH  11  12
HETATM   12  C5  UNL     1       0.133  -0.294  -0.543  1.00  0.00     0.094 C 
BRANCH  12  13
HETATM   13  S1  UNL     1       1.788   0.077  -1.170  1.00  0.00    -0.166 SA
BRANCH  13  14
HETATM   14  C6  UNL     1       2.852   0.503   0.216  1.00  0.00     0.093 C 
BRANCH  14  15
HETATM   15  C7  UNL     1       4.258   0.829  -0.231  1.00  0.00     0.132 C 
BRANCH  15  16
HETATM   16  N2  UNL     1       4.875  -0.282  -0.910  1.00  0.00    -0.366 N 
HETATM   17  C8  UNL     1       5.885  -0.900  -0.401  1.00  0.00     0.196 C 
HETATM   18  N3  UNL     1       6.513  -1.994  -1.039  1.00  0.00    -0.067 NA
HETATM   19  N4  UNL     1       6.388  -0.466   0.856  1.00  0.00    -0.067 NA
ATOM     20  H2  UNL     1       4.505  -0.585  -1.811  1.00  0.00     0.161 HD
ENDBRANCH  15  16
ENDBRANCH  14  15
ENDBRANCH  13  14
ENDBRANCH  12  13
ENDBRANCH  11  12
ENDBRANCH   4  11
BRANCH   7  21
HETATM   21  O1  UNL     1      -4.603  -0.468  -3.440  1.00  0.00    -0.361 OA
ATOM     22  H1  UNL     1      -5.450  -0.718  -3.791  1.00  0.00     0.217 HD
ENDBRANCH   7  21
TORSDOF 7
