REMARK  7 active torsions:
REMARK  status: ('A' for Active; 'I' for Inactive)
REMARK    1  A    between atoms: C3_3  and  C4_4 
REMARK    2  A    between atoms: C4_4  and  C5_5 
REMARK    3  A    between atoms: C8_11  and  N1_12 
REMARK    4  A    between atoms: N1_12  and  C9_14 
REMARK    5  A    between atoms: C13_20  and  N3_21 
REMARK    6  A    between atoms: N3_21  and  C14_23 
REMARK    7  A    between atoms: C14_23  and  C15_24 
ROOT
HETATM    1  C9  UNL     1      -0.552   0.194   0.131  1.00  0.00     0.684 A 
HETATM    2  N2  UNL     1      -0.189   1.487   0.167  1.00  0.00    -0.201 N 
ATOM      3  H2  UNL     1       0.804   1.712   0.229  1.00  0.00     0.183 HD
HETATM    4  C10 UNL     1      -1.081   2.504   0.125  1.00  0.00     0.116 A 
HETATM    5  C11 UNL     1      -2.429   2.235   0.042  1.00  0.00    -0.002 A 
HETATM    6  C12 UNL     1      -3.434   3.312  -0.004  1.00  0.00     0.054 C 
HETATM    7  C13 UNL     1      -2.813   0.890   0.005  1.00  0.00     0.124 A 
HETATM    8  N4  UNL     1      -1.869  -0.070   0.050  1.00  0.00    -0.176 N 
ATOM      9  H4  UNL     1      -2.167  -1.045   0.021  1.00  0.00     0.186 HD
ENDROOT
BRANCH   1  10
HETATM   10  N1  UNL     1       0.276  -0.795   0.171  1.00  0.00    -0.188 N 
ATOM     11  H1  UNL     1      -0.111  -1.738   0.138  1.00  0.00     0.184 HD
BRANCH  10  12
HETATM   12  C8  UNL     1       1.668  -0.666   0.256  1.00  0.00     0.094 A 
HETATM   13  C7  UNL     1       2.244  -0.224   1.454  1.00  0.00     0.144 A 
HETATM   14  C6  UNL     1       3.608  -0.082   1.571  1.00  0.00     0.052 A 
HETATM   15  F1  UNL     1       1.481   0.073   2.534  1.00  0.00    -0.204 F 
HETATM   16  C3  UNL     1       4.471  -0.369   0.510  1.00  0.00    -0.039 A 
HETATM   17  C2  UNL     1       3.928  -0.800  -0.664  1.00  0.00    -0.047 A 
HETATM   18  C1  UNL     1       4.814  -1.094  -1.820  1.00  0.00     0.049 C 
HETATM   19  C18 UNL     1       2.548  -0.938  -0.764  1.00  0.00    -0.025 A 
HETATM   20  C19 UNL     1       1.991  -1.403  -2.046  1.00  0.00     0.051 C 
BRANCH  16  21
HETATM   21  C4  UNL     1       5.948  -0.221   0.684  1.00  0.00     0.152 C 
BRANCH  21  22
HETATM   22  C5  UNL     1       6.631  -1.477   0.959  1.00  0.00     0.176 C 
HETATM   23  O1  UNL     1       6.001  -2.555   1.081  1.00  0.00    -0.648 OA
HETATM   24  O2  UNL     1       8.031  -1.449   1.085  1.00  0.00    -0.648 OA
ENDBRANCH  21  22
ENDBRANCH  16  21
ENDBRANCH  10  12
ENDBRANCH   1  10
BRANCH   7  25
HETATM   25  N3  UNL     1      -4.060   0.662  -0.073  1.00  0.00    -0.375 N 
ATOM     26  H3  UNL     1      -4.668   1.480  -0.101  1.00  0.00     0.161 HD
BRANCH  25  27
HETATM   27  C14 UNL     1      -4.708  -0.612  -0.126  1.00  0.00     0.126 C 
BRANCH  27  28
HETATM   28  C15 UNL     1      -6.080  -0.526  -0.761  1.00  0.00     0.003 A 
HETATM   29  C16 UNL     1      -7.062   0.421  -0.003  1.00  0.00     0.007 A 
HETATM   30  C17 UNL     1      -7.292  -1.031  -0.111  1.00  0.00     0.007 A 
ENDBRANCH  27  28
ENDBRANCH  25  27
ENDBRANCH   7  25
TORSDOF 7
