REMARK  1 active torsions:
REMARK  status: ('A' for Active; 'I' for Inactive)
REMARK    1  A    between atoms: C2_2  and  C4_4 
ROOT
HETATM    1  C4  UNL     1       0.476  -0.285   0.544  1.00  0.00     0.448 C 
HETATM    2  N1  UNL     1      -0.263   0.909   0.895  1.00  0.00    -0.035 N 
ATOM      3  H11 UNL     1       0.160   1.754   0.510  1.00  0.00     0.280 HD
ATOM      4  H12 UNL     1      -0.176   1.142   1.884  1.00  0.00     0.280 HD
HETATM    5  C5  UNL     1      -1.657   0.748   0.483  1.00  0.00     0.192 C 
HETATM    6  C6  UNL     1      -2.079  -0.710   0.566  1.00  0.00     0.063 C 
HETATM    7  C7  UNL     1      -1.238  -1.501  -0.415  1.00  0.00     0.277 C 
HETATM    8  N2  UNL     1      -0.027  -0.716  -0.743  1.00  0.00     0.123 N 
HETATM    9  C8  UNL     1      -0.440   0.397  -1.589  1.00  0.00     0.277 C 
HETATM   10  C9  UNL     1      -1.675   1.096  -1.011  1.00  0.00     0.063 C 
ENDROOT
BRANCH   1  11
HETATM   11  C2  UNL     1       1.928  -0.141   0.524  1.00  0.00    -0.033 C 
HETATM   12  C1  UNL     1       2.678  -0.906   1.302  1.00  0.00     0.018 C 
HETATM   13  C3  UNL     1       2.630   0.850  -0.349  1.00  0.00     0.046 C 
ENDBRANCH   1  11
TORSDOF 1
