REMARK  1 active torsions:
REMARK  status: ('A' for Active; 'I' for Inactive)
REMARK    1  A    between atoms: C2_2  and  N1_3 
ROOT
HETATM    1  N1  UNL     1      -1.259  -0.428   0.385  1.00  0.00     0.118 N 
HETATM    2  C3  UNL     1      -0.399   0.317   1.251  1.00  0.00     0.310 C 
HETATM    3  C4  UNL     1       0.732   0.772   0.364  1.00  0.00     0.257 C 
HETATM    4  C5  UNL     1       1.807  -0.289   0.330  1.00  0.00     0.018 C 
HETATM    5  C6  UNL     1       2.733  -0.227   1.497  1.00  0.00     0.012 C 
HETATM    6  C7  UNL     1       2.498   0.078  -0.989  1.00  0.00     0.037 C 
HETATM    7  C8  UNL     1       1.263   0.298  -1.863  1.00  0.00     0.275 C 
HETATM    8  N2  UNL     1       0.209   0.736  -0.969  1.00  0.00     0.123 N 
HETATM    9  C9  UNL     1      -0.897  -0.195  -0.972  1.00  0.00     0.543 C 
ENDROOT
BRANCH   1  10
HETATM   10  C2  UNL     1      -2.611  -0.079   0.718  1.00  0.00     0.270 C 
HETATM   11  C1  UNL     1      -3.598  -0.428  -0.357  1.00  0.00     0.037 C 
ENDBRANCH   1  10
TORSDOF 1
