REMARK  6 active torsions:
REMARK  status: ('A' for Active; 'I' for Inactive)
REMARK    1  A    between atoms: N3_4  and  C2_6 
REMARK    2  A    between atoms: C2_6  and  C3_7 
REMARK    3  A    between atoms: C3_7  and  C4_8 
REMARK    4  A    between atoms: C4_8  and  C5_9 
REMARK    5  A    between atoms: C5_9  and  C6_10 
REMARK    6  A    between atoms: C6_10  and  N4_11 
ROOT
HETATM    1  N4  UNL     1      -1.486  -1.247  -0.629  1.00  0.00     0.126 N 
HETATM    2  C7  UNL     1      -1.767  -2.625  -0.111  1.00  0.00     0.378 C 
HETATM    3  C8  UNL     1      -2.050  -2.322   1.309  1.00  0.00     0.248 C 
HETATM    4  O1  UNL     1      -1.790  -3.057   2.305  1.00  0.00    -0.272 OA
HETATM    5  N5  UNL     1      -2.668  -1.042   1.322  1.00  0.00    -0.325 N 
ATOM      6  H5  UNL     1      -3.087  -0.565   2.120  1.00  0.00     0.165 HD
HETATM    7  C9  UNL     1      -2.574  -0.551  -0.065  1.00  0.00     0.235 C 
HETATM    8  C10 UNL     1      -3.868  -0.895  -0.808  1.00  0.00     0.064 C 
HETATM    9  C11 UNL     1      -4.977  -0.651   0.197  1.00  0.00     0.004 C 
HETATM   10  C12 UNL     1      -4.949   0.795   0.638  1.00  0.00     0.000 C 
HETATM   11  C13 UNL     1      -3.901   1.592  -0.089  1.00  0.00     0.004 C 
HETATM   12  C14 UNL     1      -2.528   0.949  -0.082  1.00  0.00     0.064 C 
ENDROOT
BRANCH   1  13
HETATM   13  C6  UNL     1      -0.168  -0.991  -0.197  1.00  0.00     0.276 C 
BRANCH  13  14
HETATM   14  C5  UNL     1       0.544   0.225  -0.648  1.00  0.00     0.030 C 
BRANCH  14  15
HETATM   15  C4  UNL     1       1.977   0.259  -0.085  1.00  0.00     0.003 C 
BRANCH  15  16
HETATM   16  C3  UNL     1       2.665   1.515  -0.569  1.00  0.00     0.020 C 
BRANCH  16  17
HETATM   17  C2  UNL     1       4.074   1.554  -0.019  1.00  0.00     0.122 C 
BRANCH  17  18
HETATM   18  N3  UNL     1       4.839   0.409  -0.457  1.00  0.00    -0.367 N 
HETATM   19  C1  UNL     1       6.086   0.364  -0.122  1.00  0.00     0.196 C 
HETATM   20  N1  UNL     1       6.712   1.366   0.634  1.00  0.00    -0.067 NA
HETATM   21  N2  UNL     1       6.839  -0.770  -0.558  1.00  0.00    -0.067 NA
ATOM     22  H3  UNL     1       4.411  -0.335  -1.009  1.00  0.00     0.161 HD
ENDBRANCH  17  18
ENDBRANCH  16  17
ENDBRANCH  15  16
ENDBRANCH  14  15
ENDBRANCH  13  14
ENDBRANCH   1  13
TORSDOF 6
