REMARK  6 active torsions:
REMARK  status: ('A' for Active; 'I' for Inactive)
REMARK    1  A    between atoms: N3_4  and  C2_6 
REMARK    2  A    between atoms: C2_6  and  C3_7 
REMARK    3  A    between atoms: C3_7  and  C4_8 
REMARK    4  A    between atoms: C8_12  and  C9_13 
REMARK    5  A    between atoms: C9_13  and  C10_14 
REMARK    6  A    between atoms: C10_14  and  N4_15 
ROOT
HETATM    1  C4  UNL     1       2.540   1.281  -1.144  1.00  0.00    -0.056 A 
HETATM    2  C5  UNL     1       2.662   0.947  -2.491  1.00  0.00     0.007 A 
HETATM    3  C6  UNL     1       1.575   0.731  -3.296  1.00  0.00     0.001 A 
HETATM    4  C7  UNL     1       0.312   0.842  -2.777  1.00  0.00     0.007 A 
HETATM    5  C8  UNL     1       0.140   1.171  -1.450  1.00  0.00    -0.056 A 
HETATM    6  C16 UNL     1       1.246   1.385  -0.653  1.00  0.00     0.014 A 
ENDROOT
BRANCH   5   7
HETATM    7  C9  UNL     1      -1.224   1.292  -0.883  1.00  0.00     0.068 C 
BRANCH   7   8
HETATM    8  C10 UNL     1      -1.626  -0.057  -0.362  1.00  0.00     0.277 C 
BRANCH   8   9
HETATM    9  N4  UNL     1      -2.955  -0.061   0.222  1.00  0.00     0.090 N 
HETATM   10  C11 UNL     1      -3.238  -1.397   0.688  1.00  0.00     0.274 C 
HETATM   11  C12 UNL     1      -4.167  -1.472   1.835  1.00  0.00     0.049 C 
HETATM   12  C13 UNL     1      -5.074  -0.328   2.041  1.00  0.00     0.115 C 
HETATM   13  N5  UNL     1      -5.388   0.462   0.915  1.00  0.00    -0.419 N 
HETATM   14  C14 UNL     1      -5.256  -0.166  -0.357  1.00  0.00     0.144 C 
ATOM     15  H5  UNL     1      -5.693   1.431   1.007  1.00  0.00     0.153 HD
HETATM   16  C15 UNL     1      -3.884   0.181  -0.895  1.00  0.00     0.291 C 
ENDBRANCH   8   9
ENDBRANCH   7   8
ENDBRANCH   5   7
BRANCH   1  17
HETATM   17  C3  UNL     1       3.728   1.513  -0.283  1.00  0.00     0.058 C 
BRANCH  17  18
HETATM   18  C2  UNL     1       4.121   0.189   0.335  1.00  0.00     0.126 C 
BRANCH  18  19
HETATM   19  N3  UNL     1       5.274   0.315   1.194  1.00  0.00    -0.367 N 
HETATM   20  C1  UNL     1       5.908  -0.738   1.547  1.00  0.00     0.196 C 
HETATM   21  N1  UNL     1       7.034  -0.617   2.386  1.00  0.00    -0.067 NA
HETATM   22  N2  UNL     1       5.476  -2.007   1.095  1.00  0.00    -0.067 NA
ATOM     23  H3  UNL     1       5.580   1.233   1.516  1.00  0.00     0.161 HD
ENDBRANCH  18  19
ENDBRANCH  17  18
ENDBRANCH   1  17
TORSDOF 6
