REMARK  5 active torsions:
REMARK  status: ('A' for Active; 'I' for Inactive)
REMARK    1  A    between atoms: C9_9  and  N1_10 
REMARK       I    between atoms: N1_10  and  C10_12 
REMARK    2  A    between atoms: C10_12  and  C11_14 
REMARK    3  A    between atoms: C11_14  and  N2_15 
REMARK    4  A    between atoms: C11_14  and  C17_24 
REMARK       I    between atoms: N2_15  and  C12_17 
REMARK    5  A    between atoms: C12_17  and  C13_19 
ROOT
HETATM    1  C11 UNL     1       1.515   0.503  -0.280  1.00  0.00     0.217 C 
ENDROOT
BRANCH   1   2
HETATM    2  C10 UNL     1       0.223  -0.193  -0.187  1.00  0.00     0.245 C 
HETATM    3  N1  UNL     1      -0.976   0.553  -0.216  1.00  0.00    -0.354 N 
ATOM      4  H1  UNL     1      -0.916   1.568  -0.298  1.00  0.00     0.162 HD
HETATM    5  O1  UNL     1       0.111  -1.444  -0.083  1.00  0.00    -0.271 OA
BRANCH   3   6
HETATM    6  C9  UNL     1      -2.287  -0.058  -0.134  1.00  0.00     0.088 C 
HETATM    7  C4  UNL     1      -3.116   0.467   0.988  1.00  0.00     0.009 C 
HETATM    8  C3  UNL     1      -3.918  -0.653   1.619  1.00  0.00     0.011 C 
HETATM    9  C5  UNL     1      -4.226   1.378   0.492  1.00  0.00     0.011 C 
HETATM   10  C2  UNL     1      -5.209  -0.730   0.852  1.00  0.00    -0.014 C 
HETATM   11  C1  UNL     1      -6.391  -0.606   1.781  1.00  0.00     0.010 C 
HETATM   12  C6  UNL     1      -5.158   0.388  -0.160  1.00  0.00    -0.010 C 
HETATM   13  C7  UNL     1      -4.461  -0.168  -1.394  1.00  0.00     0.007 C 
HETATM   14  C8  UNL     1      -3.012   0.197  -1.458  1.00  0.00     0.026 C 
ENDBRANCH   3   6
ENDBRANCH   1   2
BRANCH   1  15
HETATM   15  N2  UNL     1       2.637  -0.418  -0.264  1.00  0.00    -0.341 N 
HETATM   16  C12 UNL     1       3.552  -0.553  -1.317  1.00  0.00     0.247 C 
HETATM   17  O2  UNL     1       3.404   0.169  -2.358  1.00  0.00    -0.271 OA
ATOM     18  H2  UNL     1       2.767  -1.001   0.563  1.00  0.00     0.163 HD
BRANCH  16  19
HETATM   19  C13 UNL     1       4.670  -1.495  -1.260  1.00  0.00     0.213 C 
HETATM   20  C14 UNL     1       5.705  -1.118  -0.208  1.00  0.00     0.043 C 
HETATM   21  C15 UNL     1       6.902  -1.923  -0.677  1.00  0.00     0.029 C 
HETATM   22  C16 UNL     1       6.631  -2.096  -2.133  1.00  0.00     0.168 C 
HETATM   23  O3  UNL     1       5.435  -1.451  -2.418  1.00  0.00    -0.376 OA
ENDBRANCH  16  19
ENDBRANCH   1  15
BRANCH   1  24
HETATM   24  C17 UNL     1       1.656   1.514   0.819  1.00  0.00     0.014 A 
HETATM   25  C18 UNL     1       2.773   2.218   1.167  1.00  0.00     0.017 A 
HETATM   26  C19 UNL     1       2.675   3.071   2.190  1.00  0.00     0.008 A 
HETATM   27  C20 UNL     1       1.457   3.173   2.812  1.00  0.00     0.050 A 
HETATM   28  S1  UNL     1       0.495   2.067   1.937  1.00  0.00    -0.104 SA
ENDBRANCH   1  24
TORSDOF 5
