REMARK  6 active torsions:
REMARK  status: ('A' for Active; 'I' for Inactive)
REMARK    1  A    between atoms: C1_2  and  C2_3 
REMARK       I    between atoms: C1_2  and  N1_9 
REMARK    2  A    between atoms: C2_3  and  C3_4 
REMARK    3  A    between atoms: N1_9  and  C8_11 
REMARK    4  A    between atoms: N2_16  and  C12_17 
REMARK    5  A    between atoms: C12_17  and  C13_18 
REMARK       I    between atoms: C13_18  and  N3_20 
REMARK    6  A    between atoms: N3_20  and  C14_22 
ROOT
HETATM    1  C8  UNL     1      -0.965   1.962  -0.136  1.00  0.00     0.105 A 
HETATM    2  C9  UNL     1      -1.265   2.545  -1.331  1.00  0.00     0.060 A 
HETATM    3  C10 UNL     1      -0.352   3.303  -2.077  1.00  0.00     0.052 A 
HETATM    4 CL1  UNL     1      -0.859   3.996  -3.575  1.00  0.00    -0.083 Cl
HETATM    5  C11 UNL     1       0.909   3.469  -1.586  1.00  0.00     0.118 A 
HETATM    6  N2  UNL     1       1.252   2.902  -0.392  1.00  0.00    -0.312 N 
HETATM    7  C20 UNL     1       0.360   2.187   0.294  1.00  0.00     0.274 A 
HETATM    8  O3  UNL     1       0.721   1.688   1.394  1.00  0.00    -0.265 OA
ENDROOT
BRANCH   6   9
HETATM    9  C12 UNL     1       2.589   3.051   0.099  1.00  0.00     0.234 C 
BRANCH   9  10
HETATM   10  C13 UNL     1       3.505   2.099  -0.538  1.00  0.00     0.236 C 
HETATM   11  O2  UNL     1       4.328   2.501  -1.440  1.00  0.00    -0.272 OA
HETATM   12  N3  UNL     1       3.550   0.739  -0.222  1.00  0.00    -0.355 N 
ATOM     13  H3  UNL     1       2.915   0.357   0.478  1.00  0.00     0.162 HD
BRANCH  12  14
HETATM   14  C14 UNL     1       4.520  -0.147  -0.904  1.00  0.00     0.084 C 
HETATM   15  C15 UNL     1       5.572  -0.483   0.159  1.00  0.00     0.025 C 
HETATM   16  C16 UNL     1       6.271  -1.740  -0.229  1.00  0.00     0.002 C 
HETATM   17  C17 UNL     1       5.313  -2.908  -0.013  1.00  0.00     0.000 C 
HETATM   18  C18 UNL     1       3.885  -2.441  -0.295  1.00  0.00     0.002 C 
HETATM   19  C19 UNL     1       3.897  -1.404  -1.405  1.00  0.00     0.025 C 
ENDBRANCH  12  14
ENDBRANCH   9  10
ENDBRANCH   6   9
BRANCH   1  20
HETATM   20  N1  UNL     1      -1.817   1.192   0.655  1.00  0.00    -0.323 N 
HETATM   21  C1  UNL     1      -3.148   0.860   0.387  1.00  0.00     0.222 C 
HETATM   22  O1  UNL     1      -3.769   1.215  -0.608  1.00  0.00    -0.273 OA
ATOM     23  H1  UNL     1      -1.426   0.831   1.525  1.00  0.00     0.169 HD
BRANCH  21  24
HETATM   24  C2  UNL     1      -3.866   0.006   1.394  1.00  0.00     0.107 C 
BRANCH  24  25
HETATM   25  C3  UNL     1      -5.224  -0.339   0.905  1.00  0.00    -0.006 C 
HETATM   26  C4  UNL     1      -5.204  -1.117  -0.401  1.00  0.00     0.005 C 
HETATM   27  C5  UNL     1      -6.453  -1.994  -0.344  1.00  0.00     0.000 C 
HETATM   28  C6  UNL     1      -7.033  -1.824   1.039  1.00  0.00     0.000 C 
HETATM   29  C7  UNL     1      -5.813  -1.402   1.846  1.00  0.00     0.005 C 
ENDBRANCH  24  25
ENDBRANCH  21  24
ENDBRANCH   1  20
TORSDOF 6
