REMARK  8 active torsions:
REMARK  status: ('A' for Active; 'I' for Inactive)
REMARK    1  A    between atoms: O1_2  and  C2_3 
REMARK    2  A    between atoms: C2_3  and  C3_5 
REMARK    3  A    between atoms: C3_5  and  O3_6 
REMARK    4  A    between atoms: O3_6  and  C4_7 
REMARK    5  A    between atoms: C6_9  and  N1_10 
REMARK    6  A    between atoms: N1_10  and  C7_12 
REMARK    7  A    between atoms: C7_12  and  N2_14 
REMARK    8  A    between atoms: N2_14  and  C8_16 
ROOT
HETATM    1  N1  UNL     1       0.797  -1.629  -1.255  1.00  0.00    -0.333 N 
ATOM      2  H1  UNL     1       1.204  -2.095  -2.066  1.00  0.00     0.168 HD
ENDROOT
BRANCH   1   3
HETATM    3  C6  UNL     1       1.618  -1.437  -0.134  1.00  0.00     0.037 A 
HETATM    4  C5  UNL     1       2.887  -0.887  -0.370  1.00  0.00     0.068 A 
HETATM    5  C4  UNL     1       3.761  -0.719   0.679  1.00  0.00     0.093 A 
HETATM    6  C20 UNL     1       3.451  -1.070   1.979  1.00  0.00     0.067 A 
HETATM    7  C19 UNL     1       2.212  -1.606   2.206  1.00  0.00     0.029 A 
HETATM    8 CL1  UNL     1       4.620  -0.825   3.273  1.00  0.00    -0.081 Cl
HETATM    9  C18 UNL     1       1.330  -1.780   1.167  1.00  0.00     0.031 A 
BRANCH   5  10
HETATM   10  O3  UNL     1       5.029  -0.175   0.475  1.00  0.00    -0.340 OA
BRANCH  10  11
HETATM   11  C3  UNL     1       5.388   0.195  -0.829  1.00  0.00     0.286 C 
BRANCH  11  12
HETATM   12  C2  UNL     1       6.756   0.746  -0.844  1.00  0.00     0.282 C 
HETATM   13  O2  UNL     1       7.283   1.144  -1.918  1.00  0.00    -0.263 OA
BRANCH  12  14
HETATM   14  O1  UNL     1       7.533   0.859   0.302  1.00  0.00    -0.325 OA
HETATM   15  C1  UNL     1       8.843   1.396   0.235  1.00  0.00     0.213 C 
ENDBRANCH  12  14
ENDBRANCH  11  12
ENDBRANCH  10  11
ENDBRANCH   5  10
ENDBRANCH   1   3
BRANCH   1  16
HETATM   16  C7  UNL     1      -0.535  -1.229  -1.341  1.00  0.00     0.172 C 
HETATM   17  S1  UNL     1      -1.330  -1.600  -2.730  1.00  0.00    -0.041 SA
BRANCH  16  18
HETATM   18  N2  UNL     1      -1.205  -0.553  -0.320  1.00  0.00    -0.358 N 
ATOM     19  H2  UNL     1      -0.659  -0.347   0.517  1.00  0.00     0.162 HD
BRANCH  18  20
HETATM   20  C8  UNL     1      -2.575  -0.112  -0.309  1.00  0.00     0.033 C 
HETATM   21  C9  UNL     1      -2.818   0.499   1.109  1.00  0.00     0.035 C 
HETATM   22  C10 UNL     1      -4.236   0.944   1.181  1.00  0.00    -0.012 C 
HETATM   23  C11 UNL     1      -4.403   2.063   0.164  1.00  0.00     0.009 C 
HETATM   24  C15 UNL     1      -5.262  -0.104   0.916  1.00  0.00     0.009 C 
HETATM   25  C12 UNL     1      -4.186   1.525  -1.212  1.00  0.00    -0.012 C 
HETATM   26  C13 UNL     1      -5.117   0.362  -1.545  1.00  0.00     0.009 C 
HETATM   27  C17 UNL     1      -2.784   0.954  -1.329  1.00  0.00     0.035 C 
HETATM   28  C14 UNL     1      -4.975  -0.676  -0.478  1.00  0.00    -0.012 C 
HETATM   29  C16 UNL     1      -3.561  -1.217  -0.407  1.00  0.00     0.035 C 
ENDBRANCH  18  20
ENDBRANCH  16  18
ENDBRANCH   1  16
TORSDOF 8
