REMARK  10 active torsions:
REMARK  status: ('A' for Active; 'I' for Inactive)
REMARK    1  A    between atoms: N1_1  and  C1_4 
REMARK    2  A    between atoms: N4_13  and  C5_14 
REMARK    3  A    between atoms: C5_14  and  C6_15 
REMARK    4  A    between atoms: C6_15  and  N5_16 
REMARK    5  A    between atoms: N5_16  and  C7_17 
REMARK    6  A    between atoms: N5_16  and  C13_23 
REMARK    7  A    between atoms: C16_26  and  O2_27 
REMARK    8  A    between atoms: O2_27  and  C17_28 
REMARK    9  A    between atoms: C17_28  and  C18_29 
REMARK   10  A    between atoms: C24_35  and  O3_36 
ROOT
HETATM    1  N5  UNL     1      -1.328  -1.717  -0.491  1.00  0.00    -0.345 N 
ENDROOT
BRANCH   1   2
HETATM    2  C6  UNL     1      -2.313  -0.820  -1.009  1.00  0.00     0.149 C 
BRANCH   2   3
HETATM    3  C5  UNL     1      -3.599  -0.742  -0.229  1.00  0.00     0.151 C 
BRANCH   3   4
HETATM    4  N4  UNL     1      -4.486   0.247  -0.818  1.00  0.00    -0.325 N 
HETATM    5  C4  UNL     1      -5.420   0.100  -1.753  1.00  0.00     0.185 A 
HETATM    6  N3  UNL     1      -5.987   1.321  -1.991  1.00  0.00    -0.345 N 
HETATM    7  C3  UNL     1      -5.394   2.221  -1.196  1.00  0.00     0.147 A 
ATOM      8  H3  UNL     1      -6.733   1.513  -2.659  1.00  0.00     0.167 HD
HETATM    9  C2  UNL     1      -5.572   3.586  -1.032  1.00  0.00     0.290 A 
HETATM   10  C26 UNL     1      -4.434   1.561  -0.437  1.00  0.00     0.156 A 
HETATM   11  N2  UNL     1      -4.797   4.213  -0.132  1.00  0.00    -0.154 N 
HETATM   12  O1  UNL     1      -6.421   4.237  -1.686  1.00  0.00    -0.265 OA
HETATM   13  C1  UNL     1      -3.866   3.543   0.598  1.00  0.00     0.680 A 
ATOM     14  H2  UNL     1      -4.910   5.217   0.007  1.00  0.00     0.187 HD
HETATM   15  N6  UNL     1      -3.687   2.238   0.448  1.00  0.00    -0.174 N 
ATOM     16  H6  UNL     1      -2.984   1.751   1.003  1.00  0.00     0.186 HD
BRANCH  13  17
HETATM   17  N1  UNL     1      -3.155   4.208   1.454  1.00  0.00    -0.234 N 
ATOM     18  H12 UNL     1      -3.293   5.212   1.569  1.00  0.00     0.174 HD
ATOM     19  H11 UNL     1      -2.457   3.705   2.002  1.00  0.00     0.174 HD
ENDBRANCH  13  17
ENDBRANCH   3   4
ENDBRANCH   2   3
ENDBRANCH   1   2
BRANCH   1  20
HETATM   20  C7  UNL     1      -1.486  -3.102  -0.256  1.00  0.00     0.034 A 
HETATM   21  C8  UNL     1      -2.267  -3.594   0.766  1.00  0.00     0.029 A 
HETATM   22  C9  UNL     1      -2.408  -4.957   1.015  1.00  0.00     0.002 A 
HETATM   23  C10 UNL     1      -1.738  -5.855   0.208  1.00  0.00     0.000 A 
HETATM   24  C11 UNL     1      -0.940  -5.396  -0.832  1.00  0.00     0.002 A 
HETATM   25  C12 UNL     1      -0.818  -4.046  -1.058  1.00  0.00     0.029 A 
ENDBRANCH   1  20
BRANCH   1  26
HETATM   26  C13 UNL     1      -0.035  -1.152  -0.219  1.00  0.00     0.037 A 
HETATM   27  C14 UNL     1       0.421  -0.767   0.997  1.00  0.00     0.032 A 
HETATM   28  C15 UNL     1       1.689  -0.194   1.158  1.00  0.00     0.042 A 
HETATM   29  C16 UNL     1       2.452  -0.039   0.023  1.00  0.00     0.102 A 
HETATM   30  C24 UNL     1       1.986  -0.433  -1.225  1.00  0.00     0.101 A 
HETATM   31  C25 UNL     1       0.757  -0.987  -1.361  1.00  0.00     0.069 A 
BRANCH  29  32
HETATM   32  O2  UNL     1       3.710   0.509   0.039  1.00  0.00    -0.344 OA
BRANCH  32  33
HETATM   33  C17 UNL     1       4.304   0.943   1.232  1.00  0.00     0.214 C 
BRANCH  33  34
HETATM   34  C18 UNL     1       5.643   1.517   0.918  1.00  0.00    -0.034 A 
HETATM   35  C19 UNL     1       6.417   2.052   1.912  1.00  0.00     0.009 A 
HETATM   36  C20 UNL     1       7.644   2.592   1.618  1.00  0.00     0.001 A 
HETATM   37  C21 UNL     1       8.133   2.618   0.341  1.00  0.00     0.000 A 
HETATM   38  C22 UNL     1       7.369   2.086  -0.671  1.00  0.00     0.001 A 
HETATM   39  C23 UNL     1       6.125   1.539  -0.368  1.00  0.00     0.009 A 
ENDBRANCH  33  34
ENDBRANCH  32  33
ENDBRANCH  29  32
BRANCH  30  40
HETATM   40  O3  UNL     1       2.776  -0.264  -2.358  1.00  0.00    -0.358 OA
ATOM     41  H3  UNL     1       2.457  -0.533  -3.211  1.00  0.00     0.217 HD
ENDBRANCH  30  40
ENDBRANCH   1  26
TORSDOF 10
