REMARK  5 active torsions:
REMARK  status: ('A' for Active; 'I' for Inactive)
REMARK    1  A    between atoms: C2_2  and  C3_3 
REMARK    2  A    between atoms: C3_3  and  C4_4 
REMARK    3  A    between atoms: C6_6  and  O1_7 
REMARK    4  A    between atoms: C20_22  and  C21_23 
REMARK    5  A    between atoms: C21_23  and  O2_24 
ROOT
HETATM    1  C4  UNL     1      -1.988   0.116   0.504  1.00  0.00    -0.010 C 
HETATM    2  C5  UNL     1      -2.481  -0.024   1.970  1.00  0.00     0.018 C 
HETATM    3  C6  UNL     1      -2.896  -0.753  -0.303  1.00  0.00     0.127 C 
HETATM    4  C7  UNL     1      -2.502  -2.184  -0.490  1.00  0.00     0.033 C 
HETATM    5  C8  UNL     1      -1.018  -2.352  -0.755  1.00  0.00     0.012 C 
HETATM    6  C9  UNL     1      -0.330  -1.734   0.379  1.00  0.00    -0.038 C 
HETATM    7  C10 UNL     1      -0.646  -2.492   1.637  1.00  0.00     0.015 C 
HETATM    8  C11 UNL     1       1.209  -1.783   0.327  1.00  0.00     0.015 C 
HETATM    9  C12 UNL     1       1.432  -0.695  -0.631  1.00  0.00    -0.000 C 
HETATM   10  C13 UNL     1       2.775  -0.269  -1.004  1.00  0.00    -0.004 C 
HETATM   11  C14 UNL     1       2.572   0.335  -2.407  1.00  0.00     0.005 C 
HETATM   12  C15 UNL     1       1.436   1.284  -2.466  1.00  0.00     0.001 C 
HETATM   13  C16 UNL     1       0.317   1.162  -1.514  1.00  0.00     0.010 C 
HETATM   14  C17 UNL     1       0.503   0.474  -0.233  1.00  0.00    -0.031 C 
HETATM   15  C18 UNL     1       1.245   1.436   0.668  1.00  0.00     0.011 C 
HETATM   16  C19 UNL     1       2.638   1.726   0.401  1.00  0.00     0.008 C 
HETATM   17  C20 UNL     1       3.519   0.725  -0.219  1.00  0.00     0.014 C 
HETATM   18  C22 UNL     1      -0.551  -0.219   0.491  1.00  0.00     0.013 C 
ENDROOT
BRANCH   1  19
HETATM   19  C3  UNL     1      -2.368   1.529   0.153  1.00  0.00     0.038 C 
BRANCH  19  20
HETATM   20  C2  UNL     1      -3.837   1.709   0.318  1.00  0.00    -0.036 C 
HETATM   21  C1  UNL     1      -4.365   2.636   1.124  1.00  0.00     0.007 C 
ENDBRANCH  19  20
ENDBRANCH   1  19
BRANCH   3  22
HETATM   22  O1  UNL     1      -3.170  -0.231  -1.596  1.00  0.00    -0.395 OA
ATOM     23  H1  UNL     1      -3.748  -0.784  -2.109  1.00  0.00     0.210 HD
ENDBRANCH   3  22
BRANCH  17  24
HETATM   24  C21 UNL     1       4.628   0.203   0.667  1.00  0.00     0.169 C 
BRANCH  24  25
HETATM   25  O2  UNL     1       4.185  -0.690   1.623  1.00  0.00    -0.400 OA
ATOM     26  H2  UNL     1       4.882  -1.018   2.180  1.00  0.00     0.209 HD
ENDBRANCH  24  25
ENDBRANCH  17  24
TORSDOF 5
