REMARK  6 active torsions:
REMARK  status: ('A' for Active; 'I' for Inactive)
REMARK    1  A    between atoms: O1_2  and  C2_3 
REMARK       I    between atoms: C2_3  and  N1_5 
REMARK    2  A    between atoms: N2_9  and  C5_10 
REMARK    3  A    between atoms: C5_10  and  C6_11 
REMARK    4  A    between atoms: C6_11  and  N3_12 
REMARK    5  A    between atoms: N3_12  and  C7_15 
REMARK    6  A    between atoms: C7_15  and  C8_16 
ROOT
HETATM    1  N3  UNL     1       0.530  -0.907  -0.830  1.00  0.00    -0.074 N 
ATOM      2  H31 UNL     1       0.260  -1.868  -1.038  1.00  0.00     0.277 HD
ATOM      3  H32 UNL     1       0.108  -0.460  -1.644  1.00  0.00     0.277 HD
ENDROOT
BRANCH   1   4
HETATM    4  C6  UNL     1       1.940  -0.739  -0.792  1.00  0.00     0.248 C 
BRANCH   4   5
HETATM    5  C5  UNL     1       2.603  -1.561   0.270  1.00  0.00     0.148 C 
BRANCH   5   6
HETATM    6  N2  UNL     1       4.053  -1.237   0.116  1.00  0.00    -0.194 NA
HETATM    7  O3  UNL     1       4.502  -1.930  -0.985  1.00  0.00    -0.302 OA
HETATM    8  C4  UNL     1       5.463  -1.165  -1.604  1.00  0.00     0.213 C 
HETATM    9  C3  UNL     1       5.659   0.172  -0.886  1.00  0.00     0.156 C 
HETATM   10  N1  UNL     1       6.272  -0.017   0.402  1.00  0.00    -0.325 N 
HETATM   11  C2  UNL     1       7.399   0.845   0.649  1.00  0.00     0.362 C 
HETATM   12  C21 UNL     1       5.963  -0.911   1.486  1.00  0.00     0.145 C 
HETATM   13  O2  UNL     1       8.059   0.821   1.710  1.00  0.00    -0.238 OA
HETATM   14  C20 UNL     1       4.751  -1.787   1.235  1.00  0.00     0.140 C 
BRANCH  11  15
HETATM   15  O1  UNL     1       7.800   1.765  -0.326  1.00  0.00    -0.309 OA
HETATM   16  C1  UNL     1       8.896   2.626  -0.133  1.00  0.00     0.215 C 
ENDBRANCH  11  15
ENDBRANCH   5   6
ENDBRANCH   4   5
ENDBRANCH   1   4
BRANCH   1  17
HETATM   17  C7  UNL     1      -0.029  -0.440   0.396  1.00  0.00     0.237 C 
BRANCH  17  18
HETATM   18  C8  UNL     1      -1.475  -0.079   0.341  1.00  0.00     0.011 C 
HETATM   19  C9  UNL     1      -1.900   0.325   1.737  1.00  0.00     0.011 C 
HETATM   20  C10 UNL     1      -2.726   1.538   1.824  1.00  0.00     0.044 C 
HETATM   21  C11 UNL     1      -3.595   1.879   0.667  1.00  0.00     0.058 C 
HETATM   22  N4  UNL     1      -4.725   1.084   0.437  1.00  0.00    -0.388 N 
HETATM   23  C12 UNL     1      -5.936   1.823   0.188  1.00  0.00     0.122 C 
HETATM   24  C17 UNL     1      -4.638  -0.222  -0.043  1.00  0.00     0.087 C 
HETATM   25  C13 UNL     1      -6.379   1.649  -1.227  1.00  0.00     0.020 C 
HETATM   26  C14 UNL     1      -6.758   0.198  -1.380  1.00  0.00     0.008 C 
HETATM   27  C15 UNL     1      -5.948  -0.758  -0.595  1.00  0.00     0.004 C 
HETATM   28  C16 UNL     1      -6.750  -1.432   0.519  1.00  0.00     0.012 C 
HETATM   29  C18 UNL     1      -3.520  -0.551  -1.003  1.00  0.00     0.026 C 
HETATM   30  C19 UNL     1      -2.288  -1.124  -0.301  1.00  0.00     0.008 C 
ENDBRANCH  17  18
ENDBRANCH   1  17
TORSDOF 6
