REMARK  4 active torsions:
REMARK  status: ('A' for Active; 'I' for Inactive)
REMARK    1  A    between atoms: C2_3  and  C3_4 
REMARK       I    between atoms: C3_4  and  N2_6 
REMARK    2  A    between atoms: N2_6  and  N3_8 
REMARK    3  A    between atoms: C4_15  and  N6_16 
REMARK    4  A    between atoms: C5_19  and  N7_20 
ROOT
HETATM    1  C1  UNL     1      -0.752  -1.909  -0.654  1.00  0.00     0.159 C 
HETATM    2  N1  UNL     1      -0.819  -0.574  -0.152  1.00  0.00    -0.315 N 
HETATM    3  C2  UNL     1       0.327   0.143   0.027  1.00  0.00     0.194 A 
HETATM    4  N4  UNL     1       0.258   1.430   0.505  1.00  0.00    -0.279 N 
ATOM      5  H4  UNL     1       1.120   1.959   0.637  1.00  0.00     0.189 HD
HETATM    6  N5  UNL     1      -0.883   1.992   0.794  1.00  0.00    -0.281 N 
ATOM      7  H5  UNL     1      -0.895   2.949   1.145  1.00  0.00     0.188 HD
HETATM    8  C4  UNL     1      -2.037   1.336   0.638  1.00  0.00     0.158 A 
HETATM    9  C5  UNL     1      -1.969   0.020   0.150  1.00  0.00     0.148 A 
ENDROOT
BRANCH   3  10
HETATM   10  C3  UNL     1       1.634  -0.405  -0.260  1.00  0.00     0.305 C 
HETATM   11  O1  UNL     1       1.808  -1.558  -0.669  1.00  0.00    -0.263 OA
HETATM   12  N2  UNL     1       2.797   0.395  -0.073  1.00  0.00    -0.270 N 
ATOM     13  H2  UNL     1       2.677   1.350   0.264  1.00  0.00     0.189 HD
BRANCH  12  14
HETATM   14  N3  UNL     1       4.086  -0.057  -0.326  1.00  0.00    -0.342 N 
ATOM     15  H32 UNL     1       4.187  -1.014  -0.663  1.00  0.00     0.176 HD
ATOM     16  H31 UNL     1       4.919   0.516  -0.192  1.00  0.00     0.176 HD
ENDBRANCH  12  14
ENDBRANCH   3  10
BRANCH   9  17
HETATM   17  N7  UNL     1      -3.102  -0.536   0.036  1.00  0.00    -0.382 N 
ATOM     18  H72 UNL     1      -3.053  -1.491  -0.318  1.00  0.00     0.157 HD
ATOM     19  H71 UNL     1      -3.985  -0.080   0.268  1.00  0.00     0.157 HD
ENDBRANCH   9  17
BRANCH   8  20
HETATM   20  N6  UNL     1      -3.166   1.890   0.924  1.00  0.00    -0.381 N 
ATOM     21  H62 UNL     1      -3.215   2.845   1.278  1.00  0.00     0.157 HD
ATOM     22  H61 UNL     1      -4.047   1.389   0.805  1.00  0.00     0.157 HD
ENDBRANCH   8  20
TORSDOF 4
