REMARK  5 active torsions:
REMARK  status: ('A' for Active; 'I' for Inactive)
REMARK    1  A    between atoms: O1_2  and  C2_3 
REMARK    2  A    between atoms: C2_3  and  C3_4 
REMARK    3  A    between atoms: C3_4  and  N1_5 
REMARK    4  A    between atoms: N1_5  and  N2_6 
REMARK    5  A    between atoms: N2_6  and  C4_8 
ROOT
HETATM    1  C2  UNL     1      -0.550  -0.129   0.325  1.00  0.00     0.075 C 
HETATM    2  C5  UNL     1      -1.186   1.153   0.816  1.00  0.00     0.039 C 
HETATM    3  C6  UNL     1      -2.172   1.611  -0.228  1.00  0.00     0.003 C 
HETATM    4  C7  UNL     1      -2.369   0.324  -1.047  1.00  0.00     0.003 C 
HETATM    5  C8  UNL     1      -0.926  -0.133  -1.138  1.00  0.00     0.039 C 
ENDROOT
BRANCH   1   6
HETATM    6  O1  UNL     1      -1.142  -1.157   1.004  1.00  0.00    -0.384 OA
HETATM    7  C1  UNL     1      -0.769  -2.427   0.679  1.00  0.00     0.202 C 
ENDBRANCH   1   6
BRANCH   1   8
HETATM    8  C3  UNL     1       0.938  -0.139   0.534  1.00  0.00     0.173 C 
BRANCH   8   9
HETATM    9  N1  UNL     1       1.654   0.896  -0.136  1.00  0.00    -0.136 NA
BRANCH   9  10
HETATM   10  N2  UNL     1       3.015   0.762   0.170  1.00  0.00    -0.281 N 
ATOM     11  H2  UNL     1       3.397   1.361   0.902  1.00  0.00     0.184 HD
BRANCH  10  12
HETATM   12  C4  UNL     1       3.891  -0.140  -0.461  1.00  0.00     0.365 C 
HETATM   13  O2  UNL     1       3.439  -0.878  -1.363  1.00  0.00    -0.282 OA
ENDBRANCH  10  12
ENDBRANCH   9  10
ENDBRANCH   8   9
ENDBRANCH   1   8
TORSDOF 5
