REMARK  4 active torsions:
REMARK  status: ('A' for Active; 'I' for Inactive)
REMARK    1  A    between atoms: C2_2  and  C3_3 
REMARK    2  A    between atoms: C3_3  and  O1_4 
REMARK    3  A    between atoms: O1_4  and  C4_5 
REMARK    4  A    between atoms: C4_5  and  C5_6 
ROOT
HETATM    1  C5  UNL     1       0.821   0.068  -0.312  1.00  0.00     0.235 C 
HETATM    2  C6  UNL     1       1.370   0.056   1.082  1.00  0.00     0.267 C 
HETATM    3  N1  UNL     1       2.541   0.934   1.090  1.00  0.00    -0.071 N 
ATOM      4  H11 UNL     1       3.019   0.919   1.991  1.00  0.00     0.277 HD
ATOM      5  H12 UNL     1       2.276   1.919   1.075  1.00  0.00     0.277 HD
HETATM    6  C7  UNL     1       3.431   0.603   0.006  1.00  0.00     0.259 C 
HETATM    7  C8  UNL     1       3.079  -0.690  -0.679  1.00  0.00     0.260 C 
HETATM    8  N2  UNL     1       1.709  -0.702  -1.150  1.00  0.00    -0.066 N 
ATOM      9  H21 UNL     1       1.654  -0.393  -2.121  1.00  0.00     0.277 HD
ATOM     10  H22 UNL     1       1.369  -1.657  -1.260  1.00  0.00     0.277 HD
ENDROOT
BRANCH   1  11
HETATM   11  C4  UNL     1      -0.590  -0.462  -0.380  1.00  0.00     0.202 C 
BRANCH  11  12
HETATM   12  O1  UNL     1      -1.462   0.271   0.423  1.00  0.00    -0.385 OA
BRANCH  12  13
HETATM   13  C3  UNL     1      -2.727  -0.336   0.257  1.00  0.00     0.194 C 
BRANCH  13  14
HETATM   14  C2  UNL     1      -3.771   0.317   1.040  1.00  0.00    -0.011 C 
HETATM   15  C1  UNL     1      -4.814   0.843   0.435  1.00  0.00     0.009 C 
ENDBRANCH  13  14
ENDBRANCH  12  13
ENDBRANCH  11  12
ENDBRANCH   1  11
TORSDOF 4
