REMARK  1 active torsions:
REMARK  status: ('A' for Active; 'I' for Inactive)
REMARK    1  A    between atoms: C3_3  and  N1_4 
REMARK       I    between atoms: C4_6  and  N3_8 
ROOT
HETATM    1  C1  UNL     1      -3.377  -0.559   0.329  1.00  0.00     0.113 C 
HETATM    2  C2  UNL     1      -1.939  -0.648   0.039  1.00  0.00    -0.088 C 
HETATM    3  C3  UNL     1      -0.755  -0.729  -0.179  1.00  0.00     0.012 C 
ENDROOT
BRANCH   3   4
HETATM    4  N1  UNL     1       0.617  -0.836  -0.412  1.00  0.00    -0.289 N 
HETATM    5  C4  UNL     1       1.348   0.222  -0.421  1.00  0.00     0.209 C 
HETATM    6  N2  UNL     1       0.720   1.475  -0.190  1.00  0.00    -0.062 NA
HETATM    7  N3  UNL     1       2.761   0.140  -0.658  1.00  0.00    -0.267 N 
HETATM    8  C5  UNL     1       3.504  -0.672   0.205  1.00  0.00     0.184 C 
ATOM      9  H3  UNL     1       3.204   0.651  -1.422  1.00  0.00     0.180 HD
HETATM   10  N4  UNL     1       4.106  -1.333   0.931  1.00  0.00    -0.172 NA
ATOM     11  H1  UNL     1       1.039  -1.750  -0.575  1.00  0.00     0.179 HD
ENDBRANCH   3   4
TORSDOF 1
