REMARK  5 active torsions:
REMARK  status: ('A' for Active; 'I' for Inactive)
REMARK    1  A    between atoms: C1_1  and  C2_2 
REMARK    2  A    between atoms: C1_1  and  N2_9 
REMARK    3  A    between atoms: C2_2  and  N1_3 
REMARK    4  A    between atoms: N1_3  and  C3_6 
REMARK    5  A    between atoms: N2_9  and  C6_11 
ROOT
HETATM    1  C2  UNL     1      -0.582  -0.538   0.485  1.00  0.00     0.277 C 
ENDROOT
BRANCH   1   2
HETATM    2  C1  UNL     1       0.712  -1.247   0.163  1.00  0.00     0.083 C 
BRANCH   2   3
HETATM    3  N2  UNL     1       1.758  -0.903   1.038  1.00  0.00    -0.396 N 
ATOM      4  H2  UNL     1       2.116  -1.599   1.692  1.00  0.00     0.159 HD
BRANCH   3   5
HETATM    5  C6  UNL     1       2.319   0.390   1.023  1.00  0.00     0.081 A 
HETATM    6  C7  UNL     1       3.032   0.993  -0.103  1.00  0.00     0.027 A 
HETATM    7  C8  UNL     1       3.871   0.379   0.988  1.00  0.00     0.027 A 
ENDBRANCH   3   5
ENDBRANCH   2   3
ENDBRANCH   1   2
BRANCH   1   8
HETATM    8  N1  UNL     1      -1.660  -0.976  -0.408  1.00  0.00    -0.067 N 
ATOM      9  H12 UNL     1      -1.446  -0.823  -1.393  1.00  0.00     0.278 HD
ATOM     10  H11 UNL     1      -1.755  -1.991  -0.447  1.00  0.00     0.278 HD
BRANCH   8  11
HETATM   11  C3  UNL     1      -2.867  -0.317   0.011  1.00  0.00     0.186 A 
HETATM   12  C4  UNL     1      -2.841   1.200  -0.160  1.00  0.00     0.035 A 
HETATM   13  C5  UNL     1      -3.811   0.341  -0.905  1.00  0.00     0.035 A 
ENDBRANCH   8  11
ENDBRANCH   1   8
TORSDOF 5
