REMARK  4 active torsions:
REMARK  status: ('A' for Active; 'I' for Inactive)
REMARK    1  A    between atoms: N1_2  and  C2_4 
REMARK    2  A    between atoms: C3_7  and  C4_8 
REMARK    3  A    between atoms: C4_8  and  C5_9 
REMARK    4  A    between atoms: C18_37  and  N8_38 
ROOT
HETATM    1  C5  UNL     1       0.420  -0.625   0.716  1.00  0.00     0.194 C 
HETATM    2  C6  UNL     1       0.181   0.708   0.013  1.00  0.00     0.060 C 
HETATM    3  C7  UNL     1      -0.267   1.792   0.929  1.00  0.00     0.234 C 
HETATM    4  N3  UNL     1      -1.707   1.874   1.070  1.00  0.00    -0.073 N 
ATOM      5  H31 UNL     1      -1.993   2.020   2.038  1.00  0.00     0.277 HD
ATOM      6  H32 UNL     1      -2.162   0.974   0.919  1.00  0.00     0.277 HD
HETATM    7  C8  UNL     1      -2.209   2.888   0.198  1.00  0.00     0.259 C 
HETATM    8  C9  UNL     1      -3.566   2.641  -0.349  1.00  0.00     0.259 C 
HETATM    9  N4  UNL     1      -4.364   1.738   0.452  1.00  0.00    -0.072 N 
ATOM     10  H41 UNL     1      -4.614   2.150   1.351  1.00  0.00     0.277 HD
ATOM     11  H42 UNL     1      -3.815   0.949   0.793  1.00  0.00     0.277 HD
HETATM   12  C10 UNL     1      -5.529   1.302  -0.279  1.00  0.00     0.259 C 
HETATM   13  C11 UNL     1      -6.005  -0.068   0.182  1.00  0.00     0.259 C 
HETATM   14  N5  UNL     1      -4.890  -0.986   0.336  1.00  0.00    -0.072 N 
ATOM     15  H51 UNL     1      -4.961  -1.516   1.205  1.00  0.00     0.277 HD
ATOM     16  H52 UNL     1      -4.020  -0.487   0.525  1.00  0.00     0.277 HD
HETATM   17  C12 UNL     1      -4.759  -1.864  -0.810  1.00  0.00     0.258 C 
HETATM   18  C13 UNL     1      -3.366  -1.799  -1.408  1.00  0.00     0.195 C 
HETATM   19  O1  UNL     1      -2.544  -2.812  -0.924  1.00  0.00    -0.388 OA
HETATM   20  C14 UNL     1      -2.072  -2.414   0.317  1.00  0.00     0.195 C 
HETATM   21  C15 UNL     1      -0.601  -2.734   0.437  1.00  0.00     0.258 C 
HETATM   22  N6  UNL     1       0.237  -1.736  -0.159  1.00  0.00    -0.069 N 
ATOM     23  H61 UNL     1       1.130  -2.127  -0.460  1.00  0.00     0.277 HD
ATOM     24  H62 UNL     1      -0.119  -1.442  -1.068  1.00  0.00     0.277 HD
ENDROOT
BRANCH   1  25
HETATM   25  C4  UNL     1       1.651  -0.669   1.544  1.00  0.00     0.109 C 
BRANCH  25  26
HETATM   26  C3  UNL     1       2.927  -0.436   0.848  1.00  0.00     0.087 A 
HETATM   27  N2  UNL     1       3.453   0.798   0.699  1.00  0.00    -0.330 N 
HETATM   28  C2  UNL     1       4.595   1.109   0.093  1.00  0.00     0.132 A 
ATOM     29  H2  UNL     1       2.919   1.573   1.092  1.00  0.00     0.168 HD
HETATM   30  C19 UNL     1       5.373   0.068  -0.470  1.00  0.00     0.113 A 
HETATM   31  C17 UNL     1       4.843  -1.176  -0.319  1.00  0.00     0.111 A 
HETATM   32  N9  UNL     1       6.524   0.170  -1.106  1.00  0.00    -0.332 N 
HETATM   33  N7  UNL     1       3.653  -1.433   0.321  1.00  0.00    -0.333 N 
HETATM   34  S1  UNL     1       6.014  -2.164  -1.097  1.00  0.00    -0.034 SA
HETATM   35  C16 UNL     1       3.292  -2.811   0.375  1.00  0.00     0.158 C 
HETATM   36  C18 UNL     1       7.101  -0.935  -1.563  1.00  0.00     0.144 A 
ATOM     37  H9  UNL     1       6.963   1.081  -1.244  1.00  0.00     0.168 HD
BRANCH  28  38
HETATM   38  N1  UNL     1       4.999   2.337   0.011  1.00  0.00    -0.379 N 
HETATM   39  C1  UNL     1       4.158   3.352   0.606  1.00  0.00     0.147 C 
ATOM     40  H1  UNL     1       5.874   2.578  -0.454  1.00  0.00     0.160 HD
ENDBRANCH  28  38
BRANCH  36  41
HETATM   41  N8  UNL     1       8.230  -1.060  -2.214  1.00  0.00    -0.380 N 
ATOM     42  H82 UNL     1       8.673  -1.909  -2.565  1.00  0.00     0.158 HD
ATOM     43  H81 UNL     1       8.880  -0.325  -2.493  1.00  0.00     0.158 HD
ENDBRANCH  36  41
ENDBRANCH  25  26
ENDBRANCH   1  25
TORSDOF 4
