REMARK  10 active torsions:
REMARK  status: ('A' for Active; 'I' for Inactive)
REMARK    1  A    between atoms: C2_2  and  N1_3 
REMARK    2  A    between atoms: C2_2  and  C4_8 
REMARK       I    between atoms: N1_3  and  C3_5 
REMARK       I    between atoms: C4_8  and  N3_10 
REMARK    3  A    between atoms: N3_10  and  C5_12 
REMARK    4  A    between atoms: C8_15  and  C9_16 
REMARK    5  A    between atoms: C10_17  and  C11_18 
REMARK    6  A    between atoms: C12_21  and  N5_22 
REMARK    7  A    between atoms: N6_25  and  C15_26 
REMARK    8  A    between atoms: C17_28  and  N7_29 
REMARK    9  A    between atoms: N7_29  and  C18_31 
REMARK   10  A    between atoms: C25_44  and  N11_45 
ROOT
HETATM    1  C11 UNL     1       1.294  -3.566  -0.884  1.00  0.00     0.191 A 
HETATM    2  N4  UNL     1       0.045  -3.125  -0.647  1.00  0.00    -0.167 N 
ATOM      3  H4  UNL     1      -0.059  -2.190  -0.253  1.00  0.00     0.186 HD
HETATM    4  C12 UNL     1      -1.067  -3.820  -0.889  1.00  0.00     0.697 A 
HETATM    5  N10 UNL     1      -0.923  -5.047  -1.407  1.00  0.00    -0.022 N 
ATOM      6  H10 UNL     1      -1.740  -5.622  -1.612  1.00  0.00     0.203 HD
HETATM    7  C25 UNL     1       0.324  -5.513  -1.654  1.00  0.00     0.692 A 
HETATM    8  N12 UNL     1       1.432  -4.781  -1.396  1.00  0.00    -0.168 N 
ATOM      9  H12 UNL     1       2.359  -5.158  -1.592  1.00  0.00     0.186 HD
ENDROOT
BRANCH   1  10
HETATM   10  C10 UNL     1       2.455  -2.770  -0.605  1.00  0.00    -0.024 C 
HETATM   11  C9  UNL     1       3.413  -2.083  -0.365  1.00  0.00    -0.057 C 
BRANCH  11  12
HETATM   12  C8  UNL     1       4.534  -1.244  -0.072  1.00  0.00     0.033 A 
HETATM   13  C7  UNL     1       5.840  -1.540  -0.384  1.00  0.00     0.026 A 
HETATM   14  C6  UNL     1       6.894  -0.657  -0.060  1.00  0.00     0.050 A 
HETATM   15  C5  UNL     1       6.642   0.524   0.576  1.00  0.00     0.107 A 
HETATM   16  N13 UNL     1       5.338   0.788   0.871  1.00  0.00    -0.351 N 
HETATM   17  C26 UNL     1       4.327  -0.041   0.570  1.00  0.00     0.110 A 
ATOM     18  H13 UNL     1       5.119   1.663   1.346  1.00  0.00     0.166 HD
BRANCH  15  19
HETATM   19  N3  UNL     1       7.611   1.462   0.938  1.00  0.00    -0.311 N 
HETATM   20  C4  UNL     1       9.004   1.405   0.737  1.00  0.00     0.245 C 
HETATM   21  O2  UNL     1       9.591   0.454   0.174  1.00  0.00    -0.271 OA
ATOM     22  H3  UNL     1       7.265   2.298   1.410  1.00  0.00     0.170 HD
BRANCH  20  23
HETATM   23  C2  UNL     1       9.822   2.574   1.238  1.00  0.00     0.174 C 
HETATM   24  C1  UNL     1       9.565   2.727   2.708  1.00  0.00     0.042 C 
BRANCH  23  25
HETATM   25  N1  UNL     1      11.205   2.312   0.933  1.00  0.00    -0.333 N 
HETATM   26  C3  UNL     1      11.894   3.164   0.050  1.00  0.00     0.329 C 
HETATM   27  N2  UNL     1      13.275   2.899  -0.253  1.00  0.00    -0.040 NA
HETATM   28  O1  UNL     1      11.318   4.161  -0.483  1.00  0.00    -0.251 OA
ATOM     29  H1  UNL     1      11.682   1.515   1.354  1.00  0.00     0.164 HD
ENDBRANCH  23  25
ENDBRANCH  20  23
ENDBRANCH  15  19
ENDBRANCH  11  12
ENDBRANCH   1  10
BRANCH   4  30
HETATM   30  N5  UNL     1      -2.318  -3.224  -0.585  1.00  0.00    -0.214 N 
HETATM   31  C13 UNL     1      -3.554  -3.885  -0.857  1.00  0.00     0.161 C 
HETATM   32  C14 UNL     1      -4.716  -2.992  -1.150  1.00  0.00     0.145 C 
HETATM   33  N6  UNL     1      -4.767  -1.796  -0.327  1.00  0.00    -0.364 N 
HETATM   34  C23 UNL     1      -3.707  -1.589   0.621  1.00  0.00     0.145 C 
HETATM   35  C24 UNL     1      -2.350  -1.909   0.024  1.00  0.00     0.161 C 
BRANCH  33  36
HETATM   36  C15 UNL     1      -5.860  -0.912  -0.526  1.00  0.00     0.107 A 
HETATM   37  C16 UNL     1      -6.069   0.243   0.194  1.00  0.00     0.096 A 
HETATM   38  C17 UNL     1      -7.148   1.092  -0.033  1.00  0.00     0.105 A 
HETATM   39  N8  UNL     1      -8.016   0.763  -0.992  1.00  0.00    -0.339 N 
HETATM   40  C22 UNL     1      -7.836  -0.354  -1.705  1.00  0.00     0.183 A 
ATOM     41  H8  UNL     1      -8.818   1.364  -1.181  1.00  0.00     0.168 HD
HETATM   42  N9  UNL     1      -6.795  -1.159  -1.476  1.00  0.00    -0.339 N 
ATOM     43  H9  UNL     1      -6.699  -2.001  -2.044  1.00  0.00     0.168 HD
BRANCH  38  44
HETATM   44  N7  UNL     1      -7.221   2.117   0.695  1.00  0.00    -0.368 N 
ATOM     45  H7  UNL     1      -6.469   2.209   1.378  1.00  0.00     0.161 HD
BRANCH  44  46
HETATM   46  C18 UNL     1      -8.180   3.168   0.722  1.00  0.00     0.021 C 
HETATM   47  C19 UNL     1      -8.298   3.919  -0.567  1.00  0.00     0.037 C 
HETATM   48  C20 UNL     1      -9.533   2.585   1.065  1.00  0.00     0.037 C 
HETATM   49  C21 UNL     1      -7.851   4.186   1.822  1.00  0.00     0.037 C 
ENDBRANCH  44  46
ENDBRANCH  38  44
ENDBRANCH  33  36
ENDBRANCH   4  30
BRANCH   7  50
HETATM   50  N11 UNL     1       0.444  -6.705  -2.156  1.00  0.00    -0.234 N 
ATOM     51 2H11 UNL     1      -0.391  -7.257  -2.351  1.00  0.00     0.174 HD
ATOM     52 1H11 UNL     1       1.383  -7.056  -2.342  1.00  0.00     0.174 HD
ENDBRANCH   7  50
TORSDOF 10
