REMARK  5 active torsions:
REMARK  status: ('A' for Active; 'I' for Inactive)
REMARK    1  A    between atoms: C2_2  and  C3_3 
REMARK    2  A    between atoms: C3_3  and  C5_5 
REMARK    3  A    between atoms: C7_10  and  C8_11 
REMARK    4  A    between atoms: C23_36  and  C24_37 
REMARK    5  A    between atoms: C24_37  and  C25_38 
ROOT
HETATM    1  C5  UNL     1      -2.756  -0.239  -0.171  1.00  0.00     0.182 C 
HETATM    2  C6  UNL     1      -2.061   0.710  -1.067  1.00  0.00     0.241 C 
HETATM    3  O1  UNL     1      -2.249   0.467  -2.328  1.00  0.00    -0.271 OA
HETATM    4  N1  UNL     1      -1.253   1.796  -0.778  1.00  0.00    -0.345 N 
ATOM      5  H1  UNL     1      -0.327   1.749  -1.203  1.00  0.00     0.163 HD
HETATM    6  C7  UNL     1      -1.476   2.973   0.007  1.00  0.00     0.187 C 
HETATM    7  C11 UNL     1      -0.158   3.602   0.407  1.00  0.00     0.283 C 
HETATM    8  O2  UNL     1      -0.311   4.804   0.831  1.00  0.00    -0.263 OA
HETATM    9  O3  UNL     1       1.048   3.001   0.337  1.00  0.00    -0.300 OA
HETATM   10  C12 UNL     1       1.659   2.023   1.108  1.00  0.00     0.308 C 
HETATM   11  N2  UNL     1       2.289   0.985   0.299  1.00  0.00    -0.315 N 
HETATM   12  C13 UNL     1       3.193   1.748  -0.495  1.00  0.00     0.244 C 
HETATM   13  O4  UNL     1       2.831   2.957  -0.654  1.00  0.00    -0.271 OA
HETATM   14  C14 UNL     1       4.470   1.557  -1.217  1.00  0.00     0.172 C 
HETATM   15  C15 UNL     1       5.336   2.783  -1.017  1.00  0.00     0.042 C 
HETATM   16  N3  UNL     1       5.212   0.414  -0.807  1.00  0.00    -0.348 N 
ATOM     17  H3  UNL     1       6.142   0.406  -1.227  1.00  0.00     0.163 HD
HETATM   18  C16 UNL     1       5.016  -0.703   0.015  1.00  0.00     0.226 C 
HETATM   19  O5  UNL     1       5.597  -1.747  -0.455  1.00  0.00    -0.273 OA
HETATM   20  C17 UNL     1       4.291  -0.929   1.289  1.00  0.00     0.036 C 
HETATM   21  C18 UNL     1       4.944  -2.214   1.867  1.00  0.00     0.025 C 
HETATM   22  C19 UNL     1       4.559   0.122   2.336  1.00  0.00     0.025 C 
HETATM   23  C20 UNL     1       2.874  -1.299   1.120  1.00  0.00     0.053 C 
HETATM   24  C21 UNL     1       1.940  -0.392   0.425  1.00  0.00     0.182 C 
HETATM   25  C22 UNL     1       1.409  -0.963  -0.848  1.00  0.00     0.241 C 
HETATM   26  O6  UNL     1       2.071  -0.756  -1.892  1.00  0.00    -0.271 OA
HETATM   27  N4  UNL     1       0.218  -1.720  -0.977  1.00  0.00    -0.346 N 
ATOM     28  H4  UNL     1      -0.249  -1.673  -1.883  1.00  0.00     0.163 HD
HETATM   29  C23 UNL     1      -0.402  -2.536   0.004  1.00  0.00     0.177 C 
HETATM   30  C28 UNL     1      -1.219  -1.889   1.027  1.00  0.00     0.243 C 
HETATM   31  O7  UNL     1      -1.205  -2.505   2.165  1.00  0.00    -0.271 OA
HETATM   32  N5  UNL     1      -2.002  -0.712   0.944  1.00  0.00    -0.341 N 
HETATM   33  C29 UNL     1      -2.010   0.078   2.196  1.00  0.00     0.153 C 
ENDROOT
BRANCH   1  34
HETATM   34  C3  UNL     1      -4.112   0.352   0.194  1.00  0.00     0.013 C 
HETATM   35  C4  UNL     1      -4.871   0.427  -1.142  1.00  0.00     0.012 C 
BRANCH  34  36
HETATM   36  C2  UNL     1      -4.914  -0.533   1.085  1.00  0.00     0.002 C 
HETATM   37  C1  UNL     1      -6.321   0.015   1.315  1.00  0.00     0.005 C 
ENDBRANCH  34  36
ENDBRANCH   1  34
BRANCH   6  38
HETATM   38  C8  UNL     1      -2.238   3.983  -0.879  1.00  0.00     0.010 C 
HETATM   39  C9  UNL     1      -1.473   4.351  -2.102  1.00  0.00     0.012 C 
HETATM   40  C10 UNL     1      -2.708   5.171  -0.111  1.00  0.00     0.012 C 
ENDBRANCH   6  38
BRANCH  29  41
HETATM   41  C24 UNL     1      -1.260  -3.630  -0.650  1.00  0.00     0.038 C 
BRANCH  41  42
HETATM   42  C25 UNL     1      -0.282  -4.451  -1.504  1.00  0.00    -0.020 C 
HETATM   43  C26 UNL     1      -1.040  -5.571  -2.199  1.00  0.00     0.009 C 
HETATM   44  C27 UNL     1       0.734  -5.062  -0.570  1.00  0.00     0.009 C 
ENDBRANCH  41  42
ENDBRANCH  29  41
TORSDOF 5
