REMARK  9 active torsions:
REMARK  status: ('A' for Active; 'I' for Inactive)
REMARK    1  A    between atoms: N1_1  and  N2_4 
REMARK    2  A    between atoms: C1_6  and  C2_7 
REMARK    3  A    between atoms: C1_6  and  O2_10 
REMARK    4  A    between atoms: C2_7  and  O1_8 
REMARK    5  A    between atoms: O2_10  and  C3_11 
REMARK    6  A    between atoms: C3_11  and  C4_12 
REMARK    7  A    between atoms: C3_11  and  C7_20 
REMARK    8  A    between atoms: C3_11  and  C13_27 
REMARK    9  A    between atoms: C4_12  and  N3_13 
ROOT
HETATM    1  C3  UNL     1      -0.101  -0.480  -0.046  1.00  0.00     0.161 C 
ENDROOT
BRANCH   1   2
HETATM    2  O2  UNL     1      -1.440  -0.052   0.049  1.00  0.00    -0.309 OA
BRANCH   2   3
HETATM    3  C1  UNL     1      -2.228   0.850  -0.401  1.00  0.00     0.158 C 
HETATM    4  N2  UNL     1      -1.848   1.955   0.017  1.00  0.00    -0.288 N 
ATOM      5  H2  UNL     1      -1.018   1.903   0.608  1.00  0.00     0.188 HD
BRANCH   4   6
HETATM    6  N1  UNL     1      -2.314   3.220  -0.153  1.00  0.00    -0.343 N 
ATOM      7  H12 UNL     1      -3.143   3.249  -0.746  1.00  0.00     0.176 HD
ATOM      8  H11 UNL     1      -2.002   4.128   0.191  1.00  0.00     0.176 HD
ENDBRANCH   4   6
BRANCH   3   9
HETATM    9  C2  UNL     1      -3.415   0.769  -1.264  1.00  0.00     0.249 C 
BRANCH   9  10
HETATM   10  O1  UNL     1      -3.991   2.015  -1.522  1.00  0.00    -0.393 OA
ATOM     11  H1  UNL     1      -4.758   1.963  -2.080  1.00  0.00     0.210 HD
ENDBRANCH   9  10
ENDBRANCH   3   9
ENDBRANCH   2   3
ENDBRANCH   1   2
BRANCH   1  12
HETATM   12  C4  UNL     1       0.097  -0.765  -1.448  1.00  0.00     0.139 C 
BRANCH  12  13
HETATM   13  N3  UNL     1       1.218  -1.248  -2.112  1.00  0.00    -0.262 N 
HETATM   14  C5  UNL     1       1.556  -2.562  -2.321  1.00  0.00     0.206 A 
HETATM   15  N4  UNL     1       2.657  -2.673  -3.035  1.00  0.00    -0.346 N 
HETATM   16  C6  UNL     1       3.054  -1.419  -3.301  1.00  0.00     0.198 A 
ATOM     17  H4  UNL     1       3.115  -3.537  -3.327  1.00  0.00     0.167 HD
HETATM   18  N5  UNL     1       2.181  -0.610  -2.741  1.00  0.00    -0.289 N 
ATOM     19  H5  UNL     1       2.244   0.407  -2.790  1.00  0.00     0.188 HD
ENDBRANCH  12  13
ENDBRANCH   1  12
BRANCH   1  20
HETATM   20  C7  UNL     1       0.475   0.728   0.571  1.00  0.00    -0.013 A 
HETATM   21  C8  UNL     1       0.361   0.917   1.951  1.00  0.00     0.012 A 
HETATM   22  C9  UNL     1       0.882   1.982   2.639  1.00  0.00     0.024 A 
HETATM   23  C10 UNL     1       1.572   2.946   1.939  1.00  0.00     0.034 A 
HETATM   24 CL1  UNL     1       2.260   4.330   2.785  1.00  0.00    -0.084 Cl
HETATM   25  C11 UNL     1       1.702   2.789   0.578  1.00  0.00     0.024 A 
HETATM   26  C12 UNL     1       1.167   1.705  -0.099  1.00  0.00     0.012 A 
ENDBRANCH   1  20
BRANCH   1  27
HETATM   27  C13 UNL     1       0.241  -1.552   0.927  1.00  0.00     0.033 A 
HETATM   28  C14 UNL     1       1.515  -1.861   1.343  1.00  0.00     0.061 A 
HETATM   29 CL2  UNL     1       2.895  -0.877   0.834  1.00  0.00    -0.082 Cl
HETATM   30  C15 UNL     1       1.805  -2.925   2.224  1.00  0.00     0.112 A 
HETATM   31  N6  UNL     1       0.812  -3.686   2.697  1.00  0.00    -0.372 N 
HETATM   32  C16 UNL     1      -0.436  -3.414   2.318  1.00  0.00     0.112 A 
ATOM     33  H6  UNL     1       1.006  -4.458   3.334  1.00  0.00     0.164 HD
HETATM   34  C17 UNL     1      -0.750  -2.378   1.453  1.00  0.00     0.061 A 
HETATM   35 CL3  UNL     1      -2.389  -2.099   1.006  1.00  0.00    -0.082 Cl
ENDBRANCH   1  27
TORSDOF 9
