REMARK  3 active torsions:
REMARK  status: ('A' for Active; 'I' for Inactive)
REMARK    1  A    between atoms: C2_2  and  C3_3 
REMARK    2  A    between atoms: C3_3  and  N1_6 
REMARK    3  A    between atoms: N1_6  and  C5_8 
ROOT
HETATM    1  N1  UNL     1       0.011  -0.391   0.960  1.00  0.00    -0.386 N 
ATOM      2  H1  UNL     1       0.095  -1.201   1.574  1.00  0.00     0.160 HD
ENDROOT
BRANCH   1   3
HETATM    3  C3  UNL     1      -1.275   0.060   0.572  1.00  0.00     0.016 C 
HETATM    4  C4  UNL     1      -1.720   1.223   1.005  1.00  0.00     0.109 C 
HETATM    5 CL1  UNL     1      -0.738   2.229   2.061  1.00  0.00    -0.095 Cl
BRANCH   3   6
HETATM    6  C2  UNL     1      -2.089  -0.783  -0.309  1.00  0.00     0.053 C 
HETATM    7  C1  UNL     1      -3.423  -0.183  -0.637  1.00  0.00     0.011 C 
ENDBRANCH   3   6
ENDBRANCH   1   3
BRANCH   1   8
HETATM    8  C5  UNL     1       1.208   0.282   0.497  1.00  0.00     0.102 A 
HETATM    9  C6  UNL     1       1.405   0.323  -0.962  1.00  0.00     0.049 A 
HETATM   10  C7  UNL     1       2.299  -0.498  -0.134  1.00  0.00     0.037 A 
HETATM   11  C8  UNL     1       3.719   0.012   0.026  1.00  0.00     0.030 C 
HETATM   12 BR1  UNL     1       2.103  -2.420  -0.090  1.00  0.00    -0.084 Br
ENDBRANCH   1   8
TORSDOF 3
