REMARK  4 active torsions:
REMARK  status: ('A' for Active; 'I' for Inactive)
REMARK    1  A    between atoms: N1_2  and  C1_4 
REMARK    2  A    between atoms: N2_6  and  N3_7 
REMARK    3  A    between atoms: C3_9  and  C4_10 
REMARK    4  A    between atoms: C7_13  and  O3_14 
ROOT
HETATM    1  N3  UNL     1       1.020  -0.577  -0.028  1.00  0.00    -0.285 N 
ATOM      2  H3  UNL     1       0.621  -1.475   0.247  1.00  0.00     0.188 HD
HETATM    3  C3  UNL     1       0.248   0.429  -0.261  1.00  0.00     0.120 C 
ENDROOT
BRANCH   1   4
HETATM    4  N2  UNL     1       2.405  -0.435  -0.153  1.00  0.00    -0.161 N 
HETATM    5  C2  UNL     1       3.399  -1.238  -0.554  1.00  0.00     0.208 A 
HETATM    6  C1  UNL     1       4.311  -0.229  -0.321  1.00  0.00     0.257 A 
HETATM    7  O4  UNL     1       3.287   0.496   0.058  1.00  0.00    -0.190 OA
BRANCH   6   8
HETATM    8  N1  UNL     1       5.723  -0.091  -0.450  1.00  0.00    -0.087 N 
HETATM    9  O1  UNL     1       6.298   0.972  -0.156  1.00  0.00    -0.530 OA
HETATM   10  O2  UNL     1       6.494  -1.129  -0.905  1.00  0.00    -0.530 OA
ENDBRANCH   6   8
ENDBRANCH   1   4
BRANCH   3  11
HETATM   11  C4  UNL     1      -1.207   0.334  -0.145  1.00  0.00    -0.019 A 
HETATM   12  C5  UNL     1      -2.018   1.419  -0.398  1.00  0.00     0.015 A 
HETATM   13  C6  UNL     1      -3.399   1.318  -0.285  1.00  0.00     0.037 A 
HETATM   14  C7  UNL     1      -4.015   0.140   0.082  1.00  0.00     0.065 A 
HETATM   15  C8  UNL     1      -3.202  -0.945   0.334  1.00  0.00     0.037 A 
HETATM   16  C9  UNL     1      -1.819  -0.846   0.222  1.00  0.00     0.015 A 
BRANCH  14  17
HETATM   17  O3  UNL     1      -5.408   0.044   0.194  1.00  0.00    -0.361 OA
ATOM     18  H3  UNL     1      -5.832  -0.767   0.447  1.00  0.00     0.217 HD
ENDBRANCH  14  17
ENDBRANCH   3  11
TORSDOF 4
