REMARK  2 active torsions:
REMARK  status: ('A' for Active; 'I' for Inactive)
REMARK    1  A    between atoms: C2_2  and  N1_4 
REMARK       I    between atoms: N1_4  and  C4_6 
REMARK       I    between atoms: C4_6  and  N2_8 
REMARK    2  A    between atoms: N2_8  and  C5_10 
ROOT
HETATM    1  C5  UNL     1      -1.029   0.485   0.114  1.00  0.00     0.042 C 
HETATM    2  C6  UNL     1      -2.023   1.519  -0.420  1.00  0.00     0.036 C 
HETATM    3  C7  UNL     1      -3.432   1.011  -0.391  1.00  0.00    -0.009 C 
HETATM    4  C8  UNL     1      -3.552  -0.028  -1.509  1.00  0.00     0.042 C 
HETATM    5  C9  UNL     1      -2.442  -0.996  -1.344  1.00  0.00     0.177 C 
HETATM    6  F1  UNL     1      -2.976  -2.279  -1.365  1.00  0.00    -0.249 F 
HETATM    7  C10 UNL     1      -1.628  -0.857  -0.117  1.00  0.00     0.052 C 
HETATM    8  C11 UNL     1      -2.444  -0.635   1.144  1.00  0.00    -0.003 C 
HETATM    9  C12 UNL     1      -3.646   0.247   0.897  1.00  0.00     0.010 C 
HETATM   10  C13 UNL     1      -1.284   0.270   1.595  1.00  0.00     0.036 C 
ENDROOT
BRANCH   1  11
HETATM   11  N2  UNL     1       0.298   0.734  -0.293  1.00  0.00    -0.333 N 
HETATM   12  C4  UNL     1       1.420  -0.057   0.044  1.00  0.00     0.317 C 
HETATM   13  N1  UNL     1       2.734   0.256  -0.402  1.00  0.00    -0.339 N 
HETATM   14  O1  UNL     1       1.336  -1.096   0.764  1.00  0.00    -0.247 OA
ATOM     15  H1  UNL     1       2.850   1.085  -0.985  1.00  0.00     0.164 HD
ATOM     16  H2  UNL     1       0.462   1.553  -0.879  1.00  0.00     0.165 HD
BRANCH  13  17
HETATM   17  C2  UNL     1       3.901  -0.505  -0.094  1.00  0.00     0.078 C 
HETATM   18  C1  UNL     1       4.937   0.268   0.677  1.00  0.00     0.032 C 
HETATM   19  C3  UNL     1       4.576  -1.007  -1.372  1.00  0.00     0.032 C 
ENDBRANCH  13  17
ENDBRANCH   1  11
TORSDOF 2
