REMARK  4 active torsions:
REMARK  status: ('A' for Active; 'I' for Inactive)
REMARK    1  A    between atoms: O1_2  and  C2_3 
REMARK    2  A    between atoms: C2_3  and  C3_5 
REMARK    3  A    between atoms: C5_10  and  N3_11 
REMARK    4  A    between atoms: N3_11  and  N4_13 
ROOT
HETATM    1  C3  UNL     1       0.114  -0.048   0.494  1.00  0.00     0.125 A 
HETATM    2  C4  UNL     1       0.499  -0.007  -0.852  1.00  0.00     0.152 A 
HETATM    3  N1  UNL     1       1.883  -0.195  -1.118  1.00  0.00    -0.081 NA
HETATM    4  N2  UNL     1      -0.392   0.198  -1.830  1.00  0.00    -0.176 N 
ATOM      5  H2  UNL     1      -0.074   0.222  -2.799  1.00  0.00     0.185 HD
HETATM    6  C5  UNL     1      -1.688   0.372  -1.563  1.00  0.00     0.699 A 
HETATM    7  N5  UNL     1      -2.102   0.341  -0.297  1.00  0.00    -0.175 N 
ATOM      8  H5  UNL     1      -3.092   0.474  -0.091  1.00  0.00     0.186 HD
HETATM    9  C6  UNL     1      -1.210   0.131   0.750  1.00  0.00     0.134 A 
HETATM   10  N6  UNL     1      -1.686   0.117   1.925  1.00  0.00    -0.384 N 
ATOM     11  H61 UNL     1      -2.679   0.251   2.117  1.00  0.00     0.157 HD
ATOM     12  H62 UNL     1      -1.032  -0.037   2.693  1.00  0.00     0.157 HD
ENDROOT
BRANCH   6  13
HETATM   13  N3  UNL     1      -2.558   0.572  -2.513  1.00  0.00    -0.138 N 
ATOM     14  H3  UNL     1      -2.232   0.594  -3.479  1.00  0.00     0.205 HD
BRANCH  13  15
HETATM   15  N4  UNL     1      -3.909   0.756  -2.263  1.00  0.00    -0.331 N 
ATOM     16  H42 UNL     1      -4.218   0.731  -1.291  1.00  0.00     0.177 HD
ATOM     17  H41 UNL     1      -4.590   0.912  -3.006  1.00  0.00     0.177 HD
ENDBRANCH  13  15
ENDBRANCH   6  13
BRANCH   1  18
HETATM   18  C2  UNL     1       1.123  -0.272   1.493  1.00  0.00     0.300 C 
HETATM   19  O2  UNL     1       0.970  -0.340   2.731  1.00  0.00    -0.259 OA
BRANCH  18  20
HETATM   20  O1  UNL     1       2.479  -0.447   1.103  1.00  0.00    -0.322 OA
HETATM   21  C1  UNL     1       3.513  -0.668   2.018  1.00  0.00     0.213 C 
ENDBRANCH  18  20
ENDBRANCH   1  18
TORSDOF 4
