REMARK  1 active torsions:
REMARK  status: ('A' for Active; 'I' for Inactive)
REMARK    1  A    between atoms: C2_3  and  C3_4 
ROOT
HETATM    1  C1  UNL     1       0.458  -2.104   0.374  1.00  0.00     0.157 C 
HETATM    2  N1  UNL     1       0.101  -0.726   0.120  1.00  0.00    -0.341 N 
HETATM    3  C2  UNL     1       0.998   0.292   0.168  1.00  0.00     0.127 A 
HETATM    4  C4  UNL     1       0.347   1.454  -0.117  1.00  0.00     0.108 A 
HETATM    5  N3  UNL     1       0.882   2.769  -0.181  1.00  0.00    -0.097 NA
HETATM    6  C5  UNL     1      -0.984   1.122  -0.342  1.00  0.00     0.105 A 
HETATM    7  N4  UNL     1      -2.202   1.579  -0.649  1.00  0.00    -0.295 N 
ATOM      8  H4  UNL     1      -2.410   2.563  -0.820  1.00  0.00     0.187 HD
HETATM    9  N5  UNL     1      -3.100   0.628  -0.706  1.00  0.00    -0.283 N 
ATOM     10  H5  UNL     1      -4.091   0.735  -0.921  1.00  0.00     0.188 HD
HETATM   11  C6  UNL     1      -2.445  -0.538  -0.420  1.00  0.00     0.143 A 
HETATM   12  N6  UNL     1      -3.039  -1.661  -0.393  1.00  0.00    -0.383 N 
ATOM     13  H61 UNL     1      -2.550  -2.531  -0.180  1.00  0.00     0.157 HD
ATOM     14  H62 UNL     1      -4.022  -1.873  -0.564  1.00  0.00     0.157 HD
HETATM   15  C7  UNL     1      -1.122  -0.252  -0.190  1.00  0.00     0.110 A 
ENDROOT
BRANCH   3  16
HETATM   16  C3  UNL     1       2.407   0.182   0.467  1.00  0.00     0.283 C 
HETATM   17  N2  UNL     1       3.098  -1.011   0.763  1.00  0.00    -0.056 NA
HETATM   18  O1  UNL     1       3.147   1.233   0.479  1.00  0.00    -0.269 OA
ENDBRANCH   3  16
TORSDOF 1
