REMARK  6 active torsions:
REMARK  status: ('A' for Active; 'I' for Inactive)
REMARK    1  A    between atoms: C1_4  and  C2_6 
REMARK    2  A    between atoms: N3_9  and  C5_10 
REMARK    3  A    between atoms: C6_11  and  N4_12 
REMARK    4  A    between atoms: N4_12  and  C7_14 
REMARK    5  A    between atoms: C9_18  and  N6_19 
REMARK    6  A    between atoms: C13_28  and  C14_29 
ROOT
HETATM    1  C5  UNL     1      -0.743  -0.802   0.924  1.00  0.00     0.098 A 
HETATM    2  C6  UNL     1      -0.335   0.379   0.308  1.00  0.00     0.063 A 
HETATM    3  C11 UNL     1       0.994   0.484  -0.068  1.00  0.00     0.046 A 
HETATM    4  C12 UNL     1       1.925  -0.569   0.166  1.00  0.00     0.004 A 
HETATM    5  C13 UNL     1       3.287  -0.670  -0.035  1.00  0.00    -0.026 A 
HETATM    6  C19 UNL     1       3.693  -1.907   0.478  1.00  0.00     0.097 A 
HETATM    7  N8  UNL     1       2.561  -2.495   0.965  1.00  0.00    -0.362 N 
ATOM      8  H8  UNL     1       2.533  -3.413   1.408  1.00  0.00     0.165 HD
HETATM    9  C20 UNL     1       1.489  -1.706   0.784  1.00  0.00     0.084 A 
HETATM   10  C21 UNL     1       0.182  -1.806   1.147  1.00  0.00     0.172 A 
HETATM   11  F2  UNL     1      -0.243  -2.958   1.765  1.00  0.00    -0.201 F 
ENDROOT
BRANCH   2  12
HETATM   12  N4  UNL     1      -1.270   1.395   0.238  1.00  0.00    -0.350 N 
ATOM     13  H4  UNL     1      -2.126   1.120   0.721  1.00  0.00     0.166 HD
BRANCH  12  14
HETATM   14  C7  UNL     1      -1.403   2.663  -0.282  1.00  0.00     0.106 A 
HETATM   15  C8  UNL     1      -0.576   3.296  -1.159  1.00  0.00     0.140 A 
HETATM   16  N5  UNL     1      -0.840   4.558  -1.570  1.00  0.00    -0.200 N 
HETATM   17  C9  UNL     1      -1.905   5.268  -1.162  1.00  0.00     0.677 A 
ATOM     18  H5  UNL     1      -0.194   4.995  -2.227  1.00  0.00     0.183 HD
HETATM   19  N7  UNL     1      -2.731   4.687  -0.309  1.00  0.00    -0.164 N 
HETATM   20  C10 UNL     1      -2.507   3.448   0.122  1.00  0.00     0.231 A 
ATOM     21  H7  UNL     1      -3.551   5.195   0.023  1.00  0.00     0.186 HD
HETATM   22  F1  UNL     1      -3.411   2.942   0.997  1.00  0.00    -0.183 F 
BRANCH  17  23
HETATM   23  N6  UNL     1      -2.127   6.478  -1.543  1.00  0.00    -0.234 N 
ATOM     24  H62 UNL     1      -1.490   6.926  -2.201  1.00  0.00     0.174 HD
ATOM     25  H61 UNL     1      -2.936   7.017  -1.233  1.00  0.00     0.174 HD
ENDBRANCH  17  23
ENDBRANCH  12  14
ENDBRANCH   2  12
BRANCH   1  26
HETATM   26  N3  UNL     1      -2.124  -1.104   1.203  1.00  0.00    -0.376 N 
HETATM   27  C4  UNL     1      -3.044  -0.879   2.204  1.00  0.00     0.124 C 
HETATM   28  C3  UNL     1      -4.414  -0.973   1.473  1.00  0.00     0.033 C 
HETATM   29  C2  UNL     1      -4.151  -2.178   0.618  1.00  0.00     0.069 C 
HETATM   30  C22 UNL     1      -2.755  -1.983   0.169  1.00  0.00     0.135 C 
BRANCH  29  31
HETATM   31  C1  UNL     1      -5.055  -2.436  -0.480  1.00  0.00     0.092 C 
HETATM   32  N1  UNL     1      -4.759  -2.187  -1.706  1.00  0.00    -0.391 N 
ATOM     33  H12 UNL     1      -5.397  -2.369  -2.481  1.00  0.00     0.157 HD
ATOM     34  H11 UNL     1      -3.834  -1.785  -1.860  1.00  0.00     0.157 HD
HETATM   35  N2  UNL     1      -6.344  -2.997  -0.266  1.00  0.00    -0.088 NA
ENDBRANCH  29  31
ENDBRANCH   1  26
BRANCH   5  36
HETATM   36  C14 UNL     1       4.097   0.263  -0.835  1.00  0.00     0.021 C 
HETATM   37  C15 UNL     1       5.219   0.959  -0.118  1.00  0.00     0.009 C 
HETATM   38  C16 UNL     1       6.170  -0.115   0.292  1.00  0.00     0.001 C 
HETATM   39  C17 UNL     1       6.278  -0.925  -0.988  1.00  0.00     0.001 C 
HETATM   40  C18 UNL     1       4.998  -0.672  -1.743  1.00  0.00     0.009 C 
ENDBRANCH   5  36
TORSDOF 6
