REMARK  7 active torsions:
REMARK  status: ('A' for Active; 'I' for Inactive)
REMARK       I    between atoms: C2_2  and  N1_4 
REMARK    1  A    between atoms: N1_4  and  C3_6 
REMARK    2  A    between atoms: C3_6  and  C4_7 
REMARK    3  A    between atoms: C4_7  and  O2_8 
REMARK    4  A    between atoms: O2_8  and  N2_9 
REMARK       I    between atoms: N2_9  and  C5_10 
REMARK       I    between atoms: C5_10  and  N3_12 
REMARK    5  A    between atoms: N3_12  and  C6_14 
REMARK    6  A    between atoms: C11_19  and  O4_20 
REMARK    7  A    between atoms: C12_22  and  C14_24 
ROOT
HETATM    1  C6  UNL     1      -0.776  -0.902  -0.250  1.00  0.00     0.071 A 
HETATM    2  C7  UNL     1      -0.457   0.058   0.938  1.00  0.00     0.033 A 
HETATM    3  C8  UNL     1      -1.437   0.708   1.452  1.00  0.00     0.010 A 
HETATM    4  C9  UNL     1      -2.750   0.694   1.048  1.00  0.00    -0.048 A 
HETATM    5  C10 UNL     1      -2.972  -0.214  -0.018  1.00  0.00    -0.003 A 
HETATM    6  C11 UNL     1      -1.950  -0.918  -0.550  1.00  0.00     0.100 A 
HETATM    7  C12 UNL     1      -4.377  -0.277  -0.586  1.00  0.00     0.027 C 
HETATM    8  C13 UNL     1      -5.053  -1.296   0.203  1.00  0.00     0.027 C 
HETATM    9  C16 UNL     1      -5.045   1.106  -0.375  1.00  0.00     0.020 C 
HETATM   10  C17 UNL     1      -4.995   1.659   0.975  1.00  0.00     0.006 C 
HETATM   11  C18 UNL     1      -3.752   1.479   1.708  1.00  0.00     0.039 C 
ENDROOT
BRANCH   1  12
HETATM   12  N3  UNL     1       0.559  -1.448  -0.370  1.00  0.00    -0.292 N 
HETATM   13  C5  UNL     1       1.276  -0.140  -0.800  1.00  0.00     0.423 C 
HETATM   14  N2  UNL     1       2.561  -0.146  -0.296  1.00  0.00    -0.217 NA
HETATM   15  O3  UNL     1       0.668   0.726  -1.374  1.00  0.00    -0.227 OA
ATOM     16  H3  UNL     1       0.915  -2.392  -0.220  1.00  0.00     0.172 HD
BRANCH  14  17
HETATM   17  O2  UNL     1       3.589   0.181   0.055  1.00  0.00    -0.203 OA
BRANCH  17  18
HETATM   18  C4  UNL     1       4.768   0.668   0.041  1.00  0.00     0.237 C 
BRANCH  18  19
HETATM   19  C3  UNL     1       5.361  -0.948   0.282  1.00  0.00     0.152 C 
BRANCH  19  20
HETATM   20  N1  UNL     1       6.704  -0.547   0.407  1.00  0.00    -0.359 N 
HETATM   21  C2  UNL     1       7.537   0.230  -0.281  1.00  0.00     0.213 C 
HETATM   22  C1  UNL     1       8.949   0.446   0.249  1.00  0.00     0.117 C 
HETATM   23  O1  UNL     1       7.309   0.809  -1.376  1.00  0.00    -0.274 OA
ATOM     24  H1  UNL     1       7.150  -0.953   1.230  1.00  0.00     0.162 HD
ENDBRANCH  19  20
ENDBRANCH  18  19
ENDBRANCH  17  18
ENDBRANCH  14  17
ENDBRANCH   1  12
BRANCH   6  25
HETATM   25  O4  UNL     1      -2.330  -1.808  -1.662  1.00  0.00    -0.358 OA
ATOM     26  H4  UNL     1      -3.250  -1.821  -1.897  1.00  0.00     0.217 HD
ENDBRANCH   6  25
BRANCH   7  27
HETATM   27  C14 UNL     1      -4.421  -0.365  -2.062  1.00  0.00     0.058 C 
HETATM   28 CL1  UNL     1      -3.131   0.439  -2.909  1.00  0.00    -0.085 Cl
HETATM   29  C15 UNL     1      -5.393  -1.016  -2.776  1.00  0.00     0.122 C 
HETATM   30 CL2  UNL     1      -6.698  -1.858  -1.982  1.00  0.00    -0.069 Cl
HETATM   31 CL3  UNL     1      -5.338  -0.953  -4.510  1.00  0.00    -0.069 Cl
ENDBRANCH   7  27
TORSDOF 7
