REMARK  5 active torsions:
REMARK  status: ('A' for Active; 'I' for Inactive)
REMARK    1  A    between atoms: C7_8  and  C8_9 
REMARK    2  A    between atoms: C8_9  and  O1_10 
REMARK    3  A    between atoms: C8_9  and  N1_12 
REMARK    4  A    between atoms: C10_14  and  C11_15 
REMARK       I    between atoms: C11_15  and  N2_17 
REMARK    5  A    between atoms: N2_17  and  C12_19 
ROOT
HETATM    1  N1  UNL     1       0.324   0.910   0.532  1.00  0.00    -0.359 N 
HETATM    2  C9  UNL     1       1.132  -0.002  -0.243  1.00  0.00     0.144 C 
HETATM    3  C10 UNL     1       2.504   0.641  -0.197  1.00  0.00     0.059 C 
HETATM    4  C13 UNL     1       2.411   1.865  -1.079  1.00  0.00     0.023 C 
HETATM    5  C14 UNL     1       1.548   2.842  -0.303  1.00  0.00     0.026 C 
HETATM    6  C15 UNL     1       1.167   2.066   0.907  1.00  0.00     0.087 C 
HETATM    7  C16 UNL     1       2.467   1.291   1.172  1.00  0.00     0.046 C 
ENDROOT
BRANCH   1   8
HETATM    8  C8  UNL     1      -1.029   0.768   0.899  1.00  0.00     0.123 C 
BRANCH   8   9
HETATM    9  C7  UNL     1      -1.992  -0.243   0.615  1.00  0.00     0.035 C 
HETATM   10  C2  UNL     1      -2.841  -0.172  -0.632  1.00  0.00    -0.015 C 
HETATM   11  C1  UNL     1      -4.081   0.667  -0.429  1.00  0.00     0.018 C 
HETATM   12  C3  UNL     1      -2.166   0.104  -1.926  1.00  0.00     0.018 C 
HETATM   13  C4  UNL     1      -3.065  -1.666  -0.349  1.00  0.00     0.027 C 
HETATM   14 BR1  UNL     1      -3.504  -2.793  -1.733  1.00  0.00    -0.085 Br
HETATM   15  C5  UNL     1      -3.789  -1.670   0.950  1.00  0.00     0.023 C 
HETATM   16  C17 UNL     1      -1.599  -1.608   0.133  1.00  0.00     0.040 C 
HETATM   17  C6  UNL     1      -2.992  -0.607   1.695  1.00  0.00     0.020 C 
ENDBRANCH   8   9
BRANCH   8  18
HETATM   18  O1  UNL     1      -1.492   1.740   1.632  1.00  0.00    -0.349 OA
ATOM     19  H1  UNL     1      -0.850   2.414   1.821  1.00  0.00     0.219 HD
ENDBRANCH   8  18
ENDBRANCH   1   8
BRANCH   3  20
HETATM   20  C11 UNL     1       3.622  -0.217  -0.446  1.00  0.00     0.233 C 
HETATM   21  O2  UNL     1       4.394   0.030  -1.434  1.00  0.00    -0.272 OA
HETATM   22  N2  UNL     1       3.924  -1.328   0.343  1.00  0.00    -0.288 N 
ATOM     23  H2  UNL     1       3.314  -1.533   1.134  1.00  0.00     0.169 HD
BRANCH  22  24
HETATM   24  C12 UNL     1       5.058  -2.215   0.107  1.00  0.00     0.384 C 
HETATM   25  F1  UNL     1       5.503  -2.776   1.291  1.00  0.00    -0.171 F 
HETATM   26  F2  UNL     1       6.134  -1.530  -0.442  1.00  0.00    -0.171 F 
HETATM   27 BR2  UNL     1       4.574  -3.651  -1.085  1.00  0.00     0.016 Br
ENDBRANCH  22  24
ENDBRANCH   3  20
TORSDOF 5
