REMARK  6 active torsions:
REMARK  status: ('A' for Active; 'I' for Inactive)
REMARK    1  A    between atoms: C2_2  and  C4_5 
REMARK       I    between atoms: C4_5  and  N1_7 
REMARK    2  A    between atoms: C5_9  and  C6_10 
REMARK    3  A    between atoms: C5_9  and  N3_25 
REMARK    4  A    between atoms: C6_10  and  N2_11 
REMARK    5  A    between atoms: C6_10  and  C14_21 
REMARK       I    between atoms: N2_11  and  C7_13 
REMARK    6  A    between atoms: C7_13  and  C8_15 
ROOT
HETATM    1  C4  UNL     1       0.176   2.707   0.142  1.00  0.00     0.246 C 
HETATM    2  O1  UNL     1       1.375   2.763   0.540  1.00  0.00    -0.271 OA
HETATM    3  N1  UNL     1      -0.480   1.523  -0.112  1.00  0.00    -0.313 N 
ATOM      4  H1  UNL     1      -1.427   1.502   0.267  1.00  0.00     0.170 HD
HETATM    5  C5  UNL     1      -0.160   0.441  -0.721  1.00  0.00     0.109 C 
ENDROOT
BRANCH   5   6
HETATM    6  C6  UNL     1       1.148   0.274  -1.331  1.00  0.00     0.206 C 
BRANCH   6   7
HETATM    7  N2  UNL     1       1.961  -0.695  -0.629  1.00  0.00    -0.341 N 
HETATM    8  C7  UNL     1       3.284  -0.460  -0.187  1.00  0.00     0.252 C 
HETATM    9  O2  UNL     1       3.789   0.662  -0.423  1.00  0.00    -0.268 OA
ATOM     10  H2  UNL     1       1.552  -1.610  -0.440  1.00  0.00     0.163 HD
BRANCH   8  11
HETATM   11  C8  UNL     1       4.098  -1.427   0.522  1.00  0.00     0.032 A 
HETATM   12  C9  UNL     1       3.621  -2.686   0.826  1.00  0.00     0.017 A 
HETATM   13  C10 UNL     1       4.399  -3.615   1.506  1.00  0.00     0.001 A 
HETATM   14  C11 UNL     1       5.677  -3.314   1.902  1.00  0.00     0.000 A 
HETATM   15  C12 UNL     1       6.168  -2.059   1.604  1.00  0.00     0.001 A 
HETATM   16  C13 UNL     1       5.388  -1.158   0.935  1.00  0.00     0.017 A 
ENDBRANCH   8  11
ENDBRANCH   6   7
BRANCH   6  17
HETATM   17  C14 UNL     1       1.083  -0.063  -2.816  1.00  0.00     0.215 C 
HETATM   18 CL2  UNL     1       2.740  -0.228  -3.453  1.00  0.00    -0.081 Cl
HETATM   19 CL3  UNL     1       0.302   1.272  -3.674  1.00  0.00    -0.081 Cl
HETATM   20 CL4  UNL     1       0.226  -1.549  -3.169  1.00  0.00    -0.081 Cl
ENDBRANCH   6  17
ENDBRANCH   5   6
BRANCH   5  21
HETATM   21  N3  UNL     1      -1.218  -0.534  -0.710  1.00  0.00    -0.366 N 
HETATM   22  C15 UNL     1      -2.417  -0.415  -1.512  1.00  0.00     0.152 C 
HETATM   23  C16 UNL     1      -3.558  -0.204  -0.497  1.00  0.00     0.256 C 
HETATM   24  N4  UNL     1      -3.493  -1.167   0.581  1.00  0.00    -0.072 N 
HETATM   25  C17 UNL     1      -4.848  -1.756   0.679  1.00  0.00     0.272 C 
HETATM   26  C18 UNL     1      -3.288  -0.468   1.826  1.00  0.00     0.272 C 
HETATM   27  C19 UNL     1      -2.558  -2.228   0.384  1.00  0.00     0.256 C 
HETATM   28  C20 UNL     1      -1.139  -1.681   0.142  1.00  0.00     0.152 C 
ENDBRANCH   5  21
BRANCH   1  29
HETATM   29  C2  UNL     1      -0.490   4.054  -0.030  1.00  0.00     0.111 C 
HETATM   30  C1  UNL     1       0.478   5.153   0.295  1.00  0.00     0.042 C 
HETATM   31  C3  UNL     1      -1.664   4.146   0.927  1.00  0.00     0.042 C 
HETATM   32 CL1  UNL     1      -1.119   4.298  -1.653  1.00  0.00    -0.110 Cl
ENDBRANCH   1  29
TORSDOF 6
