REMARK  5 active torsions:
REMARK  status: ('A' for Active; 'I' for Inactive)
REMARK    1  A    between atoms: C2_2  and  N1_3 
REMARK    2  A    between atoms: C2_2  and  C10_16 
REMARK    3  A    between atoms: N1_3  and  C3_5 
REMARK    4  A    between atoms: C3_5  and  C4_6 
REMARK    5  A    between atoms: C6_8  and  N2_9 
ROOT
HETATM    1  C4  UNL     1      -1.517   0.408   0.194  1.00  0.00     0.015 C 
HETATM    2  C5  UNL     1      -1.368   0.390  -1.295  1.00  0.00     0.040 C 
HETATM    3  C6  UNL     1      -2.906   0.520  -1.439  1.00  0.00     0.192 C 
HETATM    4  C7  UNL     1      -2.924  -0.127  -0.028  1.00  0.00    -0.014 C 
HETATM    5  C8  UNL     1      -3.898   0.506   0.924  1.00  0.00     0.017 C 
HETATM    6  C9  UNL     1      -3.042  -1.608  -0.111  1.00  0.00     0.017 C 
ENDROOT
BRANCH   1   7
HETATM    7  C3  UNL     1      -0.606  -0.348   1.066  1.00  0.00     0.119 C 
BRANCH   7   8
HETATM    8  N1  UNL     1       0.772  -0.026   1.026  1.00  0.00    -0.416 N 
ATOM      9  H1  UNL     1       1.196   0.472   1.809  1.00  0.00     0.153 HD
BRANCH   8  10
HETATM   10  C2  UNL     1       1.562  -0.384  -0.077  1.00  0.00     0.079 C 
HETATM   11  C1  UNL     1       1.662  -1.899  -0.187  1.00  0.00     0.032 C 
BRANCH  10  12
HETATM   12  C10 UNL     1       2.955   0.238  -0.034  1.00  0.00    -0.032 C 
HETATM   13  C11 UNL     1       2.815   1.767   0.059  1.00  0.00     0.016 C 
HETATM   14  C12 UNL     1       3.692  -0.041  -1.316  1.00  0.00     0.016 C 
HETATM   15  C13 UNL     1       3.773  -0.222   1.134  1.00  0.00     0.016 C 
ENDBRANCH  10  12
ENDBRANCH   8  10
ENDBRANCH   7   8
ENDBRANCH   1   7
BRANCH   3  16
HETATM   16  N2  UNL     1      -3.256   1.891  -1.340  1.00  0.00    -0.074 N 
ATOM     17  H23 UNL     1      -2.906   2.323  -0.485  1.00  0.00     0.274 HD
ATOM     18  H22 UNL     1      -2.750   2.473  -2.008  1.00  0.00     0.274 HD
ATOM     19  H21 UNL     1      -4.268   1.977  -1.435  1.00  0.00     0.274 HD
ENDBRANCH   3  16
TORSDOF 5
