REMARK  2 active torsions:
REMARK  status: ('A' for Active; 'I' for Inactive)
REMARK       I    between atoms: C1_2  and  N1_3 
REMARK    1  A    between atoms: C1_2  and  C10_14 
REMARK    2  A    between atoms: N1_3  and  C2_5 
ROOT
HETATM    1  O1  UNL     1       1.405  -2.087   1.073  1.00  0.00    -0.273 OA
HETATM    2  C1  UNL     1       1.485  -0.938   0.531  1.00  0.00     0.222 C 
HETATM    3  N1  UNL     1       0.275  -0.249   0.215  1.00  0.00    -0.354 N 
ATOM      4  H1  UNL     1       0.325   0.673  -0.219  1.00  0.00     0.162 HD
ENDROOT
BRANCH   3   5
HETATM    5  C2  UNL     1      -1.028  -0.831   0.497  1.00  0.00     0.114 C 
HETATM    6  C3  UNL     1      -1.837   0.087   1.392  1.00  0.00     0.062 C 
HETATM    7  C4  UNL     1      -2.400   1.020   0.339  1.00  0.00     0.225 C 
HETATM    8  C5  UNL     1      -3.408   1.979   0.880  1.00  0.00     0.036 C 
HETATM    9  N2  UNL     1      -2.931   0.075  -0.604  1.00  0.00     0.095 N 
HETATM   10  C6  UNL     1      -4.798   1.748   0.337  1.00  0.00     0.004 C 
HETATM   11  C7  UNL     1      -5.120   0.292   0.497  1.00  0.00     0.030 C 
HETATM   12  C8  UNL     1      -4.108  -0.611  -0.141  1.00  0.00     0.273 C 
HETATM   13  C9  UNL     1      -1.875  -0.908  -0.738  1.00  0.00     0.298 C 
ENDBRANCH   3   5
BRANCH   2  14
HETATM   14  C10 UNL     1       2.776  -0.309   0.227  1.00  0.00     0.078 C 
HETATM   15  C11 UNL     1       2.846  -0.062  -1.268  1.00  0.00     0.014 C 
HETATM   16  C12 UNL     1       4.257  -0.070  -1.789  1.00  0.00     0.001 C 
HETATM   17  C13 UNL     1       5.183   0.423  -0.720  1.00  0.00     0.000 C 
HETATM   18  C14 UNL     1       5.232  -0.562   0.429  1.00  0.00     0.001 C 
HETATM   19  C15 UNL     1       3.911  -1.230   0.657  1.00  0.00     0.014 C 
ENDBRANCH   2  14
TORSDOF 2
