REMARK  3 active torsions:
REMARK  status: ('A' for Active; 'I' for Inactive)
REMARK    1  A    between atoms: C2_2  and  C3_3 
REMARK    2  A    between atoms: C6_6  and  O1_7 
REMARK    3  A    between atoms: C12_15  and  C13_16 
ROOT
HETATM    1  C3  UNL     1       1.681  -0.345  -0.025  1.00  0.00    -0.004 C 
HETATM    2  C4  UNL     1       1.226  -1.369  -1.001  1.00  0.00     0.008 C 
HETATM    3  C5  UNL     1       0.434  -2.406  -0.292  1.00  0.00     0.033 C 
HETATM    4  C6  UNL     1      -0.336  -1.920   0.896  1.00  0.00     0.128 C 
HETATM    5  C7  UNL     1      -1.250  -0.769   0.614  1.00  0.00     0.014 C 
HETATM    6  C8  UNL     1      -2.237  -0.736   1.798  1.00  0.00     0.020 C 
HETATM    7  C9  UNL     1      -2.138  -1.217  -0.562  1.00  0.00     0.015 C 
HETATM    8  C10 UNL     1      -3.209  -0.211  -0.864  1.00  0.00     0.031 C 
HETATM    9  C11 UNL     1      -2.672   1.222  -0.722  1.00  0.00     0.274 C 
HETATM   10  N1  UNL     1      -1.260   1.109  -0.824  1.00  0.00     0.105 N 
HETATM   11  C12 UNL     1      -0.531   2.271  -1.130  1.00  0.00     0.285 C 
HETATM   12  C14 UNL     1       0.904   1.784  -0.886  1.00  0.00     0.055 C 
HETATM   13  C15 UNL     1       0.760   0.763   0.256  1.00  0.00    -0.006 C 
HETATM   14  C16 UNL     1       1.321   1.496   1.487  1.00  0.00     0.018 C 
HETATM   15  C17 UNL     1      -0.656   0.548   0.402  1.00  0.00     0.243 C 
ENDROOT
BRANCH   1  16
HETATM   16  C2  UNL     1       3.049   0.162  -0.468  1.00  0.00     0.001 C 
HETATM   17  C1  UNL     1       4.057  -0.990  -0.512  1.00  0.00     0.005 C 
ENDBRANCH   1  16
BRANCH   4  18
HETATM   18  O1  UNL     1      -1.178  -3.000   1.271  1.00  0.00    -0.395 OA
ATOM     19  H1  UNL     1      -1.667  -2.692   2.025  1.00  0.00     0.210 HD
ENDBRANCH   4  18
BRANCH  11  20
HETATM   20  C13 UNL     1      -0.809   3.461  -0.341  1.00  0.00     0.267 C 
HETATM   21  O2  UNL     1      -1.611   3.571   0.563  1.00  0.00    -0.305 OA
ENDBRANCH  11  20
TORSDOF 3
