REMARK  3 active torsions:
REMARK  status: ('A' for Active; 'I' for Inactive)
REMARK    1  A    between atoms: C2_2  and  C3_3 
REMARK    2  A    between atoms: C7_7  and  C8_8 
REMARK    3  A    between atoms: C8_8  and  O1_9 
ROOT
HETATM    1  C3  UNL     1       1.796   0.328  -0.354  1.00  0.00    -0.013 C 
HETATM    2  C4  UNL     1       1.464  -0.950  -0.981  1.00  0.00     0.005 C 
HETATM    3  C5  UNL     1       0.087  -1.502  -0.672  1.00  0.00     0.008 C 
HETATM    4  C6  UNL     1      -0.858  -0.385  -0.813  1.00  0.00     0.021 C 
HETATM    5  C7  UNL     1      -2.296  -0.646  -0.646  1.00  0.00     0.077 C 
HETATM    6  C9  UNL     1      -2.779   0.763  -0.292  1.00  0.00     0.129 C 
HETATM    7  N1  UNL     1      -1.735   1.250   0.530  1.00  0.00    -0.411 N 
HETATM    8  C10 UNL     1      -1.645   2.659   0.674  1.00  0.00     0.143 C 
HETATM    9  C11 UNL     1      -0.563   0.524   0.394  1.00  0.00     0.084 C 
HETATM   10  C12 UNL     1       0.683   1.232   0.031  1.00  0.00     0.029 C 
ENDROOT
BRANCH   5  11
HETATM   11  C8  UNL     1      -2.665  -1.526   0.457  1.00  0.00     0.116 C 
HETATM   12  S1  UNL     1      -3.634  -1.075   1.687  1.00  0.00    -0.057 SA
BRANCH  11  13
HETATM   13  O1  UNL     1      -2.181  -2.823   0.489  1.00  0.00    -0.354 OA
ATOM     14  H1  UNL     1      -2.421  -3.396   1.207  1.00  0.00     0.218 HD
ENDBRANCH  11  13
ENDBRANCH   5  11
BRANCH   1  15
HETATM   15  C2  UNL     1       2.668   0.071   0.880  1.00  0.00     0.000 C 
HETATM   16  C1  UNL     1       3.930  -0.634   0.435  1.00  0.00     0.005 C 
ENDBRANCH   1  15
TORSDOF 3
