REMARK  5 active torsions:
REMARK  status: ('A' for Active; 'I' for Inactive)
REMARK    1  A    between atoms: C5_6  and  C6_7 
REMARK    2  A    between atoms: C5_6  and  C11_15 
REMARK    3  A    between atoms: C6_7  and  N2_8 
REMARK    4  A    between atoms: C9_11  and  O1_12 
REMARK    5  A    between atoms: C11_15  and  C12_16 
ROOT
HETATM    1  C1  UNL     1      -1.186   1.795   1.692  1.00  0.00     0.310 C 
HETATM    2  N1  UNL     1      -1.504   1.540   0.319  1.00  0.00     0.095 N 
HETATM    3  C2  UNL     1      -1.616   2.802  -0.342  1.00  0.00     0.273 C 
HETATM    4  C3  UNL     1      -0.225   2.922  -0.982  1.00  0.00     0.033 C 
HETATM    5  C4  UNL     1      -0.161   1.533  -1.580  1.00  0.00     0.045 C 
HETATM    6  C5  UNL     1      -0.558   0.692  -0.386  1.00  0.00     0.186 C 
ENDROOT
BRANCH   6   7
HETATM    7  C6  UNL     1       0.606   0.409   0.471  1.00  0.00     0.314 C 
BRANCH   7   8
HETATM    8  N2  UNL     1       1.685  -0.420   0.001  1.00  0.00     0.093 N 
HETATM    9  C7  UNL     1       2.395  -0.819   1.251  1.00  0.00     0.275 C 
HETATM   10  C8  UNL     1       3.836  -0.853   0.997  1.00  0.00     0.064 C 
HETATM   11  C9  UNL     1       4.027  -0.443  -0.414  1.00  0.00     0.148 C 
HETATM   12  C10 UNL     1       2.741   0.352  -0.690  1.00  0.00     0.303 C 
BRANCH  11  13
HETATM   13  O1  UNL     1       4.062  -1.488  -1.326  1.00  0.00    -0.394 OA
ATOM     14  H1  UNL     1       4.184  -1.225  -2.231  1.00  0.00     0.210 HD
ENDBRANCH  11  13
ENDBRANCH   7   8
ENDBRANCH   6   7
BRANCH   6  15
HETATM   15  C11 UNL     1      -1.250  -0.500  -1.000  1.00  0.00     0.051 C 
BRANCH  15  16
HETATM   16  C12 UNL     1      -1.985  -1.432  -0.138  1.00  0.00    -0.049 C 
HETATM   17  C13 UNL     1      -1.265  -2.162   0.934  1.00  0.00     0.014 C 
HETATM   18  C14 UNL     1      -2.445  -2.562  -1.110  1.00  0.00     0.014 C 
HETATM   19  C15 UNL     1      -3.322  -0.880   0.358  1.00  0.00     0.014 C 
ENDBRANCH  15  16
ENDBRANCH   6  15
TORSDOF 5
