REMARK  3 active torsions:
REMARK  status: ('A' for Active; 'I' for Inactive)
REMARK    1  A    between atoms: O1_2  and  C2_3 
REMARK    2  A    between atoms: C6_9  and  O4_10 
REMARK    3  A    between atoms: C17_22  and  O5_23 
ROOT
HETATM    1  C2  UNL     1      -2.509  -0.801  -0.312  1.00  0.00     0.190 C 
HETATM    2  C3  UNL     1      -3.795  -0.622  -1.124  1.00  0.00     0.082 C 
HETATM    3  O2  UNL     1      -1.925   0.410  -0.135  1.00  0.00    -0.315 OA
HETATM    4  C4  UNL     1      -0.752   0.480  -0.871  1.00  0.00     0.182 C 
HETATM    5  O3  UNL     1      -0.653   1.640  -1.545  1.00  0.00    -0.351 OA
HETATM    6  C5  UNL     1      -0.868   2.673  -0.665  1.00  0.00     0.203 C 
HETATM    7  C6  UNL     1      -0.345   2.588   0.686  1.00  0.00     0.143 C 
HETATM    8  C7  UNL     1       0.098   1.200   1.175  1.00  0.00     0.049 C 
HETATM    9  C8  UNL     1       0.478   0.452   0.019  1.00  0.00     0.028 A 
HETATM   10  C9  UNL     1       1.786   0.794  -0.580  1.00  0.00     0.005 A 
HETATM   11  C10 UNL     1       2.836   0.998   0.491  1.00  0.00     0.006 C 
HETATM   12  C11 UNL     1       3.983   0.119  -0.034  1.00  0.00     0.005 C 
HETATM   13  C12 UNL     1       3.194  -1.169  -0.276  1.00  0.00    -0.014 C 
HETATM   14  C13 UNL     1       2.973  -1.929   0.997  1.00  0.00     0.010 C 
HETATM   15  C14 UNL     1       1.974  -0.668  -0.925  1.00  0.00    -0.000 A 
HETATM   16  C15 UNL     1       0.646  -0.918  -0.257  1.00  0.00     0.017 A 
HETATM   17  C16 UNL     1      -0.416  -0.827  -1.368  1.00  0.00     0.088 C 
HETATM   18  C17 UNL     1      -1.608  -1.703  -1.077  1.00  0.00     0.190 C 
ENDROOT
BRANCH   1  19
HETATM   19  O1  UNL     1      -2.877  -1.441   0.866  1.00  0.00    -0.358 OA
HETATM   20  C1  UNL     1      -3.791  -0.693   1.605  1.00  0.00     0.205 C 
ENDBRANCH   1  19
BRANCH  18  21
HETATM   21  O5  UNL     1      -1.210  -2.830  -0.375  1.00  0.00    -0.390 OA
ATOM     22  H5  UNL     1      -0.634  -3.406  -0.864  1.00  0.00     0.210 HD
ENDBRANCH  18  21
BRANCH   7  23
HETATM   23  O4  UNL     1       0.710   3.517   0.857  1.00  0.00    -0.393 OA
ATOM     24  H4  UNL     1       1.052   3.461   1.741  1.00  0.00     0.210 HD
ENDBRANCH   7  23
TORSDOF 3
