REMARK  1 active torsions:
REMARK  status: ('A' for Active; 'I' for Inactive)
REMARK    1  A    between atoms: N4_9  and  C5_10 
ROOT
HETATM    1  C5  UNL     1       0.168   0.183   0.103  1.00  0.00     0.053 C 
HETATM    2  C6  UNL     1       0.653  -1.175  -0.370  1.00  0.00     0.037 C 
HETATM    3  C7  UNL     1       2.137  -1.297  -0.457  1.00  0.00    -0.012 C 
HETATM    4  C8  UNL     1       2.749  -1.098   0.895  1.00  0.00     0.009 C 
HETATM    5  C9  UNL     1       2.343   0.290   1.363  1.00  0.00    -0.012 C 
HETATM    6  C10 UNL     1       2.822   1.328   0.394  1.00  0.00     0.009 C 
HETATM    7  C11 UNL     1       2.184   1.065  -0.958  1.00  0.00    -0.012 C 
HETATM    8  C12 UNL     1       2.594  -0.260  -1.471  1.00  0.00     0.009 C 
HETATM    9  C13 UNL     1       0.689   1.253  -0.778  1.00  0.00     0.037 C 
HETATM   10  C14 UNL     1       0.841   0.372   1.474  1.00  0.00     0.037 C 
ENDROOT
BRANCH   1  11
HETATM   11  N4  UNL     1      -1.215   0.093   0.317  1.00  0.00    -0.274 N 
HETATM   12  N1  UNL     1      -1.861  -1.131   0.066  1.00  0.00    -0.229 NA
HETATM   13  C1  UNL     1      -2.666  -1.061  -1.145  1.00  0.00     0.136 C 
HETATM   14  C2  UNL     1      -2.779  -1.444   1.152  1.00  0.00     0.133 C 
HETATM   15  C3  UNL     1      -3.907  -0.446   1.070  1.00  0.00     0.138 C 
HETATM   16  N2  UNL     1      -3.314   0.876   1.118  1.00  0.00    -0.362 N 
HETATM   17  C4  UNL     1      -2.085   1.115   0.773  1.00  0.00     0.202 C 
ATOM     18  H2  UNL     1      -3.889   1.655   1.438  1.00  0.00     0.162 HD
HETATM   19  N3  UNL     1      -1.620   2.420   0.858  1.00  0.00    -0.062 NA
ENDBRANCH   1  11
TORSDOF 1
