REMARK  4 active torsions:
REMARK  status: ('A' for Active; 'I' for Inactive)
REMARK    1  A    between atoms: C23_28  and  C24_29 
REMARK    2  A    between atoms: C24_29  and  O1_30 
REMARK    3  A    between atoms: C24_29  and  N4_32 
REMARK    4  A    between atoms: C27_35  and  N5_36 
ROOT
HETATM    1  C1  UNL     1       2.399  -4.397  -0.041  1.00  0.00     0.015 C 
HETATM    2  C2  UNL     1       0.978  -4.678  -0.347  1.00  0.00    -0.037 A 
HETATM    3  C3  UNL     1       0.840  -6.051  -1.048  1.00  0.00     0.015 C 
HETATM    4  C4  UNL     1       0.015  -4.482   0.756  1.00  0.00     0.002 A 
HETATM    5  C5  UNL     1       0.144  -3.385   1.749  1.00  0.00     0.015 C 
HETATM    6  C6  UNL     1      -0.714  -2.314   1.100  1.00  0.00     0.040 C 
HETATM    7  C7  UNL     1      -2.118  -2.803   1.453  1.00  0.00     0.126 C 
HETATM    8  N1  UNL     1      -2.836  -1.893   2.324  1.00  0.00    -0.398 N 
ATOM      9  H1  UNL     1      -2.456  -1.688   3.248  1.00  0.00     0.158 HD
HETATM   10  C8  UNL     1      -4.004  -1.304   1.943  1.00  0.00     0.085 C 
HETATM   11  C9  UNL     1      -4.141  -0.366   0.770  1.00  0.00    -0.064 C 
HETATM   12  C10 UNL     1      -4.453  -1.128  -0.479  1.00  0.00     0.037 C 
HETATM   13  C11 UNL     1      -3.417  -1.208  -1.513  1.00  0.00     0.029 C 
HETATM   14  C12 UNL     1      -2.046  -0.847  -1.055  1.00  0.00     0.078 C 
HETATM   15  C13 UNL     1      -1.923   0.620  -1.489  1.00  0.00     0.035 C 
HETATM   16  C14 UNL     1      -2.867   1.382  -0.602  1.00  0.00    -0.024 C 
HETATM   17  C15 UNL     1      -3.229   0.775   0.710  1.00  0.00     0.046 C 
HETATM   18  C16 UNL     1      -2.061   2.676  -0.339  1.00  0.00     0.023 C 
HETATM   19  C17 UNL     1      -2.993   3.631   0.321  1.00  0.00     0.014 C 
HETATM   20  C18 UNL     1      -4.198   3.424  -0.555  1.00  0.00     0.021 C 
HETATM   21  C19 UNL     1      -3.947   4.414  -1.712  1.00  0.00     0.277 C 
HETATM   22  N2  UNL     1      -2.998   3.573  -2.469  1.00  0.00     0.089 N 
HETATM   23  C20 UNL     1      -1.821   3.249  -1.745  1.00  0.00     0.277 C 
HETATM   24  C21 UNL     1      -3.905   2.441  -2.634  1.00  0.00     0.278 C 
HETATM   25  C22 UNL     1      -4.048   2.031  -1.210  1.00  0.00     0.029 C 
HETATM   26  N3  UNL     1      -1.078  -1.776  -1.356  1.00  0.00    -0.401 N 
ATOM     27  H3  UNL     1      -0.929  -2.084  -2.317  1.00  0.00     0.154 HD
HETATM   28  C23 UNL     1      -0.258  -2.317  -0.249  1.00  0.00     0.101 C 
HETATM   29  C34 UNL     1      -0.090  -3.779  -0.610  1.00  0.00     0.035 A 
ENDROOT
BRANCH  28  30
HETATM   30  C24 UNL     1       1.012  -1.658  -0.551  1.00  0.00     0.143 C 
BRANCH  30  31
HETATM   31  O1  UNL     1       1.295  -1.797  -1.852  1.00  0.00    -0.347 OA
ATOM     32  H1  UNL     1       2.120  -1.369  -2.048  1.00  0.00     0.219 HD
ENDBRANCH  30  31
BRANCH  30  33
HETATM   33  N4  UNL     1       1.997  -0.943   0.071  1.00  0.00    -0.363 N 
HETATM   34  C25 UNL     1       2.209  -0.446   1.395  1.00  0.00     0.126 C 
HETATM   35  C26 UNL     1       2.393   1.070   1.417  1.00  0.00     0.045 C 
HETATM   36  C27 UNL     1       3.347   1.551   0.378  1.00  0.00     0.082 C 
HETATM   37  C32 UNL     1       4.114   0.340  -0.109  1.00  0.00     0.045 C 
HETATM   38  C33 UNL     1       3.171  -0.571  -0.788  1.00  0.00     0.126 C 
BRANCH  36  39
HETATM   39  N5  UNL     1       4.185   2.640   0.744  1.00  0.00    -0.405 N 
HETATM   40  C28 UNL     1       5.100   2.435   1.799  1.00  0.00     0.144 C 
HETATM   41  C29 UNL     1       6.530   2.239   1.369  1.00  0.00     0.251 C 
HETATM   42  N6  UNL     1       6.859   2.800   0.094  1.00  0.00    -0.072 N 
HETATM   43  C30 UNL     1       6.039   3.915  -0.267  1.00  0.00     0.251 C 
ATOM     44  H62 UNL     1       7.847   3.050   0.054  1.00  0.00     0.277 HD
ATOM     45  H61 UNL     1       6.836   2.084  -0.632  1.00  0.00     0.277 HD
HETATM   46  C31 UNL     1       4.618   3.445  -0.348  1.00  0.00     0.144 C 
ENDBRANCH  36  39
ENDBRANCH  30  33
ENDBRANCH  28  30
TORSDOF 4
