REMARK  6 active torsions:
REMARK  status: ('A' for Active; 'I' for Inactive)
REMARK    1  A    between atoms: C2_2  and  C3_3 
REMARK    2  A    between atoms: C9_9  and  O1_10 
REMARK    3  A    between atoms: O1_10  and  C10_11 
REMARK    4  A    between atoms: C10_11  and  C11_13 
REMARK    5  A    between atoms: C11_13  and  N1_14 
REMARK    6  A    between atoms: C16_23  and  O3_24 
ROOT
HETATM    1  C3  UNL     1      -2.712  -0.257  -0.255  1.00  0.00     0.004 C 
HETATM    2  C4  UNL     1      -2.688  -1.766  -0.184  1.00  0.00     0.022 C 
HETATM    3  C5  UNL     1      -2.095   0.365  -1.409  1.00  0.00     0.001 C 
HETATM    4  C6  UNL     1      -0.912  -0.268  -2.145  1.00  0.00     0.011 C 
HETATM    5  C7  UNL     1       0.215  -0.210  -1.289  1.00  0.00    -0.007 C 
HETATM    6  C8  UNL     1       1.634  -0.058  -1.378  1.00  0.00     0.037 C 
HETATM    7  C9  UNL     1       2.194   0.240   0.019  1.00  0.00     0.132 C 
HETATM    8  C12 UNL     1       1.296   0.152   1.209  1.00  0.00     0.039 C 
HETATM    9  C13 UNL     1      -0.161   0.195   0.912  1.00  0.00     0.013 C 
HETATM   10  C14 UNL     1      -1.228   0.599   1.740  1.00  0.00     0.127 C 
HETATM   11  C15 UNL     1      -1.037   1.993   2.226  1.00  0.00     0.067 C 
HETATM   12  N2  UNL     1      -0.895   3.087   2.586  1.00  0.00    -0.197 NA
HETATM   13  C16 UNL     1      -2.535   0.372   1.104  1.00  0.00     0.148 C 
HETATM   14  C17 UNL     1      -0.174   0.926  -0.359  1.00  0.00    -0.004 C 
HETATM   15  C18 UNL     1      -1.376   1.585  -0.879  1.00  0.00     0.011 C 
ENDROOT
BRANCH  13  16
HETATM   16  O3  UNL     1      -3.355  -0.442   1.942  1.00  0.00    -0.393 OA
ATOM     17  H3  UNL     1      -3.243  -0.046   2.798  1.00  0.00     0.210 HD
ENDBRANCH  13  16
BRANCH   1  18
HETATM   18  C2  UNL     1      -4.193   0.015  -0.476  1.00  0.00    -0.025 C 
HETATM   19  C1  UNL     1      -4.862  -0.633  -1.421  1.00  0.00     0.008 C 
ENDBRANCH   1  18
BRANCH   7  20
HETATM   20  O1  UNL     1       3.346  -0.572   0.273  1.00  0.00    -0.315 OA
BRANCH  20  21
HETATM   21  C10 UNL     1       4.625  -0.081   0.380  1.00  0.00     0.284 C 
HETATM   22  O2  UNL     1       4.746   1.184   0.237  1.00  0.00    -0.263 OA
BRANCH  21  23
HETATM   23  C11 UNL     1       5.816  -0.935   0.645  1.00  0.00     0.340 C 
BRANCH  23  24
HETATM   24  N1  UNL     1       6.990  -0.078   0.692  1.00  0.00    -0.070 N 
ATOM     25  H13 UNL     1       7.094   0.492  -0.147  1.00  0.00     0.274 HD
ATOM     26  H12 UNL     1       6.894   0.683   1.365  1.00  0.00     0.274 HD
ATOM     27  H11 UNL     1       7.806  -0.663   0.873  1.00  0.00     0.274 HD
ENDBRANCH  23  24
ENDBRANCH  21  23
ENDBRANCH  20  21
ENDBRANCH   7  20
TORSDOF 6
