REMARK  0 active torsions:
REMARK  status: ('A' for Active; 'I' for Inactive)
ROOT
HETATM    1  C1  UNL     1       1.690  -0.789   0.552  1.00  0.00     0.035 C 
HETATM    2  C2  UNL     1       0.638   0.233   0.502  1.00  0.00     0.117 C 
HETATM    3  N1  UNL     1       1.155   1.419  -0.175  1.00  0.00    -0.330 N 
ATOM      4  H1  UNL     1       2.130   1.665  -0.345  1.00  0.00     0.165 HD
HETATM    5  C3  UNL     1      -0.009   2.157  -0.545  1.00  0.00     0.361 C 
HETATM    6  O1  UNL     1      -0.069   3.425  -0.702  1.00  0.00    -0.238 OA
HETATM    7  O2  UNL     1      -1.022   1.236  -0.690  1.00  0.00    -0.291 OA
HETATM    8  C4  UNL     1      -0.618  -0.038  -0.169  1.00  0.00     0.085 C 
HETATM    9  C5  UNL     1      -0.654  -1.007  -1.278  1.00  0.00     0.048 C 
HETATM   10  C6  UNL     1      -1.677  -0.424   0.872  1.00  0.00     0.048 C 
ENDROOT
TORSDOF 0
