REMARK  5 active torsions:
REMARK  status: ('A' for Active; 'I' for Inactive)
REMARK    1  A    between atoms: C2_2  and  C3_3 
REMARK    2  A    between atoms: C3_3  and  C4_4 
REMARK    3  A    between atoms: C11_11  and  C12_12 
REMARK    4  A    between atoms: C12_12  and  C14_14 
REMARK    5  A    between atoms: C14_14  and  S1_16 
ROOT
HETATM    1  C4  UNL     1       2.894  -0.058  -0.274  1.00  0.00     0.021 C 
HETATM    2  C5  UNL     1       3.836  -0.918   0.549  1.00  0.00     0.009 C 
HETATM    3  C6  UNL     1       3.207  -2.292   0.634  1.00  0.00     0.033 C 
HETATM    4  C7  UNL     1       1.706  -2.124   0.816  1.00  0.00     0.187 C 
HETATM    5  C8  UNL     1       0.988  -2.024  -0.518  1.00  0.00     0.055 C 
HETATM    6  C9  UNL     1       0.492  -0.624  -0.520  1.00  0.00     0.081 C 
HETATM    7  C10 UNL     1      -0.853  -0.481   0.198  1.00  0.00     0.055 C 
HETATM    8  C11 UNL     1      -1.777  -0.451  -0.951  1.00  0.00     0.138 C 
HETATM    9  O4  UNL     1      -1.082   0.390  -1.859  1.00  0.00    -0.315 OA
HETATM   10  C16 UNL     1       0.270  -0.009  -1.809  1.00  0.00     0.270 C 
HETATM   11  O5  UNL     1       1.055   0.188  -2.778  1.00  0.00    -0.264 OA
HETATM   12  C17 UNL     1       1.541   0.069   0.345  1.00  0.00     0.209 C 
HETATM   13  N1  UNL     1       1.485  -0.849   1.496  1.00  0.00    -0.065 N 
ATOM     14  H11 UNL     1       2.123  -0.638   2.264  1.00  0.00     0.278 HD
ATOM     15  H12 UNL     1       0.644  -0.791   2.070  1.00  0.00     0.278 HD
ENDROOT
BRANCH   8  16
HETATM   16  C12 UNL     1      -3.188  -0.124  -0.758  1.00  0.00     0.032 C 
HETATM   17  C13 UNL     1      -3.807  -1.135   0.207  1.00  0.00     0.014 C 
BRANCH  16  18
HETATM   18  C14 UNL     1      -3.583   1.271  -0.463  1.00  0.00     0.132 C 
HETATM   19  C15 UNL     1      -3.012   1.854   0.797  1.00  0.00     0.030 C 
BRANCH  18  20
HETATM   20  S1  UNL     1      -5.373   1.347  -0.289  1.00  0.00     0.106 S 
HETATM   21  O1  UNL     1      -5.762   2.794  -0.001  1.00  0.00    -0.595 OA
HETATM   22  O2  UNL     1      -5.862   0.563   0.878  1.00  0.00    -0.595 OA
HETATM   23  O3  UNL     1      -6.153   0.835  -1.660  1.00  0.00    -0.595 OA
ENDBRANCH  18  20
ENDBRANCH  16  18
ENDBRANCH   8  16
BRANCH   1  24
HETATM   24  C3  UNL     1       3.560   1.292  -0.519  1.00  0.00     0.033 C 
BRANCH  24  25
HETATM   25  C2  UNL     1       3.861   1.989   0.729  1.00  0.00    -0.036 C 
HETATM   26  C1  UNL     1       5.110   2.306   1.025  1.00  0.00     0.007 C 
ENDBRANCH  24  25
ENDBRANCH   1  24
TORSDOF 5
