REMARK  7 active torsions:
REMARK  status: ('A' for Active; 'I' for Inactive)
REMARK    1  A    between atoms: N1_1  and  S1_4 
REMARK    2  A    between atoms: S1_4  and  C1_7 
REMARK    3  A    between atoms: C4_10  and  S2_11 
REMARK    4  A    between atoms: S2_11  and  S3_14 
REMARK    5  A    between atoms: S3_14  and  C5_15 
REMARK    6  A    between atoms: C5_15  and  C6_16 
REMARK       I    between atoms: C6_16  and  N2_18 
REMARK    7  A    between atoms: N2_18  and  C7_20 
ROOT
HETATM    1  S2  UNL     1       0.343  -2.182   0.475  1.00  0.00     0.231 S 
HETATM    2  O3  UNL     1       0.630  -3.257   1.473  1.00  0.00    -0.211 OA
HETATM    3  O4  UNL     1      -0.217  -2.906  -0.707  1.00  0.00    -0.211 OA
ENDROOT
BRANCH   1   4
HETATM    4  C4  UNL     1       1.808  -1.342   0.140  1.00  0.00     0.070 A 
HETATM    5  C3  UNL     1       2.897  -1.502   0.968  1.00  0.00     0.026 A 
HETATM    6  C2  UNL     1       4.094  -0.844   0.734  1.00  0.00     0.027 A 
HETATM    7  C1  UNL     1       4.204  -0.005  -0.356  1.00  0.00     0.079 A 
HETATM    8  C11 UNL     1       3.106   0.150  -1.181  1.00  0.00     0.027 A 
HETATM    9  C10 UNL     1       1.916  -0.506  -0.946  1.00  0.00     0.026 A 
BRANCH   7  10
HETATM   10  S1  UNL     1       5.714   0.845  -0.681  1.00  0.00     0.256 S 
HETATM   11  O1  UNL     1       6.835   0.031  -0.154  1.00  0.00    -0.201 OA
HETATM   12  O2  UNL     1       5.801   1.073  -2.175  1.00  0.00    -0.201 OA
BRANCH  10  13
HETATM   13  N1  UNL     1       5.653   2.349   0.167  1.00  0.00    -0.324 N 
ATOM     14  H12 UNL     1       6.295   2.620   0.912  1.00  0.00     0.169 HD
ATOM     15  H11 UNL     1       4.882   2.909  -0.196  1.00  0.00     0.169 HD
ENDBRANCH  10  13
ENDBRANCH   7  10
ENDBRANCH   1   4
BRANCH   1  16
HETATM   16  S3  UNL     1      -1.009  -1.213   1.697  1.00  0.00    -0.022 SA
BRANCH  16  17
HETATM   17  C5  UNL     1      -1.784   0.071   0.895  1.00  0.00     0.194 C 
BRANCH  17  18
HETATM   18  C6  UNL     1      -2.694  -0.274  -0.235  1.00  0.00     0.233 C 
HETATM   19  O5  UNL     1      -2.896  -1.457  -0.597  1.00  0.00    -0.272 OA
HETATM   20  N2  UNL     1      -3.365   0.759  -0.939  1.00  0.00    -0.306 N 
ATOM     21  H2  UNL     1      -2.855   1.372  -1.575  1.00  0.00     0.171 HD
BRANCH  20  22
HETATM   22  C7  UNL     1      -4.657   0.909  -0.754  1.00  0.00     0.150 A 
HETATM   23  N3  UNL     1      -5.461   0.199   0.034  1.00  0.00    -0.346 N 
HETATM   24  C8  UNL     1      -6.723   0.503   0.082  1.00  0.00     0.097 A 
ATOM     25  H3  UNL     1      -5.092  -0.572   0.591  1.00  0.00     0.167 HD
HETATM   26  C9  UNL     1      -7.160   1.549  -0.691  1.00  0.00     0.070 A 
HETATM   27  S4  UNL     1      -5.716   2.047  -1.455  1.00  0.00    -0.064 SA
ENDBRANCH  20  22
ENDBRANCH  17  18
ENDBRANCH  16  17
ENDBRANCH   1  16
TORSDOF 7
