REMARK  7 active torsions:
REMARK  status: ('A' for Active; 'I' for Inactive)
REMARK    1  A    between atoms: O1_2  and  C2_3 
REMARK    2  A    between atoms: C2_3  and  C3_5 
REMARK    3  A    between atoms: C3_5  and  S1_6 
REMARK    4  A    between atoms: C5_10  and  O3_11 
REMARK    5  A    between atoms: C5_10  and  C6_13 
REMARK    6  A    between atoms: C6_13  and  O4_14 
REMARK    7  A    between atoms: C6_13  and  C7_16 
ROOT
HETATM    1  C3  UNL     1       1.534   0.489  -0.036  1.00  0.00     0.217 C 
HETATM    2  N1  UNL     1       0.700   0.583  -1.115  1.00  0.00    -0.353 N 
ATOM      3  H1  UNL     1       1.080   0.588  -2.062  1.00  0.00     0.159 HD
HETATM    4  C5  UNL     1      -0.679   0.672  -0.906  1.00  0.00     0.184 C 
HETATM    5  C8  UNL     1      -1.032  -0.371   0.108  1.00  0.00     0.080 C 
HETATM    6  C9  UNL     1      -2.425  -0.279   0.623  1.00  0.00     0.044 C 
HETATM    7  C10 UNL     1      -3.322  -1.434   0.265  1.00  0.00     0.132 C 
HETATM    8  N2  UNL     1      -2.636  -2.660   0.049  1.00  0.00    -0.149 NA
HETATM    9  N3  UNL     1      -1.773  -2.441  -1.034  1.00  0.00    -0.147 NA
HETATM   10  C11 UNL     1      -0.649  -1.719  -0.473  1.00  0.00     0.156 C 
HETATM   11  S2  UNL     1       0.276   0.003   1.320  1.00  0.00    -0.100 SA
ENDROOT
BRANCH   4  12
HETATM   12  O3  UNL     1      -1.264   0.231  -2.163  1.00  0.00    -0.367 OA
ATOM     13  H3  UNL     1      -2.201   0.291  -2.021  1.00  0.00     0.212 HD
ENDBRANCH   4  12
BRANCH   4  14
HETATM   14  C6  UNL     1      -1.148   1.996  -0.663  1.00  0.00     0.275 C 
BRANCH  14  15
HETATM   15  O4  UNL     1      -1.432   2.662  -1.757  1.00  0.00    -0.380 OA
ATOM     16  H4  UNL     1      -1.745   3.544  -1.595  1.00  0.00     0.210 HD
ENDBRANCH  14  15
BRANCH  14  17
HETATM   17  C7  UNL     1      -1.400   2.782   0.514  1.00  0.00     0.208 C 
HETATM   18  O5  UNL     1      -0.998   2.620   1.691  1.00  0.00    -0.646 OA
HETATM   19  O6  UNL     1      -2.248   3.911   0.340  1.00  0.00    -0.646 OA
ENDBRANCH  14  17
ENDBRANCH   4  14
BRANCH   1  20
HETATM   20  C2  UNL     1       2.442  -0.716   0.034  1.00  0.00     0.308 C 
HETATM   21  O2  UNL     1       2.213  -1.715   0.711  1.00  0.00    -0.260 OA
BRANCH  20  22
HETATM   22  O1  UNL     1       3.630  -0.732  -0.722  1.00  0.00    -0.323 OA
HETATM   23  C1  UNL     1       4.432  -1.906  -0.647  1.00  0.00     0.213 C 
ENDBRANCH  20  22
ENDBRANCH   1  20
BRANCH   1  24
HETATM   24  S1  UNL     1       2.378   1.960   0.462  1.00  0.00    -0.121 SA
HETATM   25  C4  UNL     1       2.618   2.110   2.222  1.00  0.00     0.093 C 
ENDBRANCH   1  24
TORSDOF 7
