REMARK  3 active torsions:
REMARK  status: ('A' for Active; 'I' for Inactive)
REMARK    1  A    between atoms: C2_2  and  O1_3 
REMARK    2  A    between atoms: C5_7  and  C6_8 
REMARK    3  A    between atoms: N1_9  and  O2_10 
ROOT
HETATM    1  C6  UNL     1       2.380  -0.329  -0.337  1.00  0.00     0.113 C 
HETATM    2  N1  UNL     1       3.416   0.091   0.287  1.00  0.00    -0.173 N 
HETATM    3  C7  UNL     1       4.717  -0.359  -0.012  1.00  0.00     0.209 C 
HETATM    4  N2  UNL     1       5.771  -0.742  -0.246  1.00  0.00    -0.170 NA
ENDROOT
BRANCH   2   5
HETATM    5  O2  UNL     1       3.266   1.014   1.285  1.00  0.00    -0.274 OA
ATOM      6  H2  UNL     1       4.035   1.326   1.748  1.00  0.00     0.246 HD
ENDBRANCH   2   5
BRANCH   1   7
HETATM    7  C5  UNL     1       1.054   0.179   0.021  1.00  0.00     0.028 C 
HETATM    8  C4  UNL     1       0.326   0.665  -1.189  1.00  0.00     0.013 C 
HETATM    9  C3  UNL     1      -1.131   0.898  -0.991  1.00  0.00     0.038 C 
HETATM   10  C2  UNL     1      -1.809  -0.083  -0.089  1.00  0.00     0.054 C 
HETATM   11  C1  UNL     1      -3.143   0.473   0.352  1.00  0.00     0.045 C 
HETATM   12  C9  UNL     1      -1.002  -0.338   1.184  1.00  0.00     0.038 C 
HETATM   13  C8  UNL     1       0.306  -0.952   0.720  1.00  0.00     0.013 C 
BRANCH  10  14
HETATM   14  O1  UNL     1      -1.967  -1.328  -0.728  1.00  0.00    -0.390 OA
ATOM     15  H1  UNL     1      -1.128  -1.678  -1.005  1.00  0.00     0.210 HD
ENDBRANCH  10  14
ENDBRANCH   1   7
TORSDOF 3
