REMARK  11 active torsions:
REMARK  status: ('A' for Active; 'I' for Inactive)
REMARK    1  A    between atoms: C2_2  and  O1_3 
REMARK    2  A    between atoms: O1_3  and  C3_4 
REMARK    3  A    between atoms: C3_4  and  C4_6 
REMARK    4  A    between atoms: C4_6  and  C5_7 
REMARK    5  A    between atoms: N1_12  and  C8_13 
REMARK    6  A    between atoms: C8_13  and  C9_14 
REMARK    7  A    between atoms: C8_13  and  C15_28 
REMARK    8  A    between atoms: C9_14  and  S1_15 
REMARK    9  A    between atoms: S1_15  and  C10_16 
REMARK   10  A    between atoms: C10_16  and  C11_17 
REMARK   11  A    between atoms: C12_19  and  C13_20 
ROOT
HETATM    1  C8  UNL     1      -0.938  -1.326   0.498  1.00  0.00     0.200 C 
ENDROOT
BRANCH   1   2
HETATM    2  N1  UNL     1       0.339  -0.807   0.351  1.00  0.00    -0.380 N 
HETATM    3  C7  UNL     1       1.055  -1.060  -0.855  1.00  0.00     0.124 C 
HETATM    4  C6  UNL     1       2.393  -0.458  -0.840  1.00  0.00     0.051 C 
HETATM    5  C4  UNL     1       3.126  -0.526   0.464  1.00  0.00     0.141 C 
HETATM    6  C17 UNL     1       2.239  -0.392   1.682  1.00  0.00     0.075 C 
HETATM    7  C16 UNL     1       0.874   0.105   1.269  1.00  0.00     0.060 C 
BRANCH   5   8
HETATM    8  C3  UNL     1       4.037   0.696   0.422  1.00  0.00     0.278 C 
HETATM    9  O2  UNL     1       3.824   1.717   1.010  1.00  0.00    -0.264 OA
BRANCH   8  10
HETATM   10  O1  UNL     1       5.170   0.614  -0.393  1.00  0.00    -0.321 OA
BRANCH  10  11
HETATM   11  C2  UNL     1       6.086   1.572  -0.692  1.00  0.00     0.174 C 
HETATM   12  C1  UNL     1       6.671   2.375   0.443  1.00  0.00     0.034 C 
ENDBRANCH  10  11
ENDBRANCH   8  10
ENDBRANCH   5   8
BRANCH   5  13
HETATM   13  C5  UNL     1       3.932  -1.759   0.521  1.00  0.00     0.192 C 
HETATM   14  O3  UNL     1       4.066  -2.506  -0.480  1.00  0.00    -0.647 OA
HETATM   15  O4  UNL     1       4.585  -2.135   1.707  1.00  0.00    -0.647 OA
ENDBRANCH   5  13
ENDBRANCH   1   2
BRANCH   1  16
HETATM   16  C9  UNL     1      -2.031  -0.821  -0.444  1.00  0.00     0.108 C 
BRANCH  16  17
HETATM   17  S1  UNL     1      -2.273   0.928  -0.139  1.00  0.00    -0.162 SA
BRANCH  17  18
HETATM   18  C10 UNL     1      -3.553   1.746  -1.013  1.00  0.00     0.123 C 
BRANCH  18  19
HETATM   19  C11 UNL     1      -4.911   1.275  -0.535  1.00  0.00     0.032 A 
HETATM   20  S2  UNL     1      -6.411   1.413  -1.424  1.00  0.00    -0.068 SA
HETATM   21  C12 UNL     1      -7.472   0.859  -0.218  1.00  0.00     0.160 A 
HETATM   22  N2  UNL     1      -6.647   0.598   0.778  1.00  0.00    -0.336 N 
HETATM   23  C14 UNL     1      -5.372   0.805   0.633  1.00  0.00     0.118 A 
ATOM     24  H2  UNL     1      -7.009   0.235   1.660  1.00  0.00     0.167 HD
HETATM   25 CL1  UNL     1      -4.253   0.516   2.022  1.00  0.00    -0.063 Cl
BRANCH  21  26
HETATM   26  C13 UNL     1      -8.970   0.737  -0.143  1.00  0.00     0.439 C 
HETATM   27  F1  UNL     1      -9.506   1.336  -1.244  1.00  0.00    -0.164 F 
HETATM   28  F2  UNL     1      -9.430   1.275   1.014  1.00  0.00    -0.164 F 
HETATM   29  F3  UNL     1      -9.177  -0.637  -0.195  1.00  0.00    -0.164 F 
ENDBRANCH  21  26
ENDBRANCH  18  19
ENDBRANCH  17  18
ENDBRANCH  16  17
ENDBRANCH   1  16
BRANCH   1  30
HETATM   30  C15 UNL     1      -1.071  -2.836   0.571  1.00  0.00     0.408 C 
HETATM   31  F4  UNL     1      -0.321  -3.356   1.599  1.00  0.00    -0.169 F 
HETATM   32  F5  UNL     1      -2.425  -3.100   0.983  1.00  0.00    -0.169 F 
HETATM   33  F6  UNL     1      -0.939  -3.420  -0.647  1.00  0.00    -0.169 F 
ENDBRANCH   1  30
TORSDOF 11
