REMARK  13 active torsions:
REMARK  status: ('A' for Active; 'I' for Inactive)
REMARK    1  A    between atoms: C2_2  and  C5_5 
REMARK    2  A    between atoms: C5_5  and  O2_7 
REMARK    3  A    between atoms: O2_7  and  C6_8 
REMARK    4  A    between atoms: C6_8  and  C7_9 
REMARK    5  A    between atoms: C7_9  and  O3_10 
REMARK    6  A    between atoms: O3_10  and  C8_11 
REMARK    7  A    between atoms: C8_11  and  C9_13 
REMARK    8  A    between atoms: C14_21  and  C15_22 
REMARK    9  A    between atoms: C15_22  and  O5_23 
REMARK   10  A    between atoms: C15_22  and  C16_25 
REMARK   11  A    between atoms: C16_25  and  C17_26 
REMARK   12  A    between atoms: C17_26  and  N1_27 
REMARK   13  A    between atoms: C20_32  and  C21_33 
ROOT
HETATM    1  C9  UNL     1       1.211  -1.176  -0.582  1.00  0.00     0.202 C 
HETATM    2  F1  UNL     1       1.571   0.161  -0.841  1.00  0.00    -0.231 F 
HETATM    3  C10 UNL     1       0.920  -1.773  -1.947  1.00  0.00     0.133 C 
HETATM    4  C11 UNL     1       2.073  -2.312  -2.694  1.00  0.00     0.247 C 
HETATM    5  F2  UNL     1       1.528  -3.183  -3.661  1.00  0.00    -0.206 F 
HETATM    6  F3  UNL     1       2.723  -1.348  -3.461  1.00  0.00    -0.206 F 
HETATM    7  C12 UNL     1       3.061  -3.090  -1.893  1.00  0.00     0.080 C 
HETATM    8  C13 UNL     1       2.825  -3.120  -0.420  1.00  0.00     0.017 C 
HETATM    9  C14 UNL     1       2.238  -1.886   0.186  1.00  0.00     0.065 C 
ENDROOT
BRANCH   9  10
HETATM   10  C15 UNL     1       3.378  -0.908   0.624  1.00  0.00     0.127 C 
BRANCH  10  11
HETATM   11  O5  UNL     1       3.903  -0.305  -0.463  1.00  0.00    -0.395 OA
ATOM     12  H5  UNL     1       4.595   0.289  -0.197  1.00  0.00     0.210 HD
ENDBRANCH  10  11
BRANCH  10  13
HETATM   13  C16 UNL     1       2.970  -0.070   1.738  1.00  0.00     0.052 C 
BRANCH  13  14
HETATM   14  C17 UNL     1       3.948   0.905   2.272  1.00  0.00     0.132 C 
BRANCH  14  15
HETATM   15  N1  UNL     1       4.354   1.893   1.311  1.00  0.00    -0.338 N 
HETATM   16  C18 UNL     1       3.439   2.855   0.954  1.00  0.00     0.109 A 
HETATM   17  C19 UNL     1       3.999   3.618  -0.015  1.00  0.00     0.107 A 
HETATM   18  N2  UNL     1       5.222   3.140  -0.242  1.00  0.00    -0.347 N 
HETATM   19  C20 UNL     1       5.431   2.082   0.578  1.00  0.00     0.192 A 
ATOM     20  H2  UNL     1       5.889   3.509  -0.920  1.00  0.00     0.166 HD
BRANCH  19  21
HETATM   21  C21 UNL     1       6.749   1.393   0.582  1.00  0.00     0.449 C 
HETATM   22  F4  UNL     1       7.040   0.849  -0.675  1.00  0.00    -0.163 F 
HETATM   23  F5  UNL     1       6.961   0.522   1.586  1.00  0.00    -0.163 F 
HETATM   24  F6  UNL     1       7.699   2.437   0.717  1.00  0.00    -0.163 F 
ENDBRANCH  19  21
ENDBRANCH  14  15
ENDBRANCH  13  14
ENDBRANCH  10  13
ENDBRANCH   9  10
BRANCH   1  25
HETATM   25  C8  UNL     1      -0.152  -1.060   0.048  1.00  0.00     0.299 C 
HETATM   26  O4  UNL     1      -0.419  -1.545   1.156  1.00  0.00    -0.261 OA
BRANCH  25  27
HETATM   27  O3  UNL     1      -1.123  -0.408  -0.616  1.00  0.00    -0.317 OA
BRANCH  27  28
HETATM   28  C7  UNL     1      -2.404  -0.046  -0.533  1.00  0.00     0.205 C 
BRANCH  28  29
HETATM   29  C6  UNL     1      -2.900   0.776   0.624  1.00  0.00     0.205 C 
BRANCH  29  30
HETATM   30  O2  UNL     1      -4.257   1.061   0.468  1.00  0.00    -0.319 OA
BRANCH  30  31
HETATM   31  C5  UNL     1      -5.324   0.221   0.405  1.00  0.00     0.266 C 
HETATM   32  O1  UNL     1      -5.154  -1.014   0.518  1.00  0.00    -0.264 OA
BRANCH  31  33
HETATM   33  C2  UNL     1      -6.693   0.756   0.203  1.00  0.00     0.037 C 
HETATM   34  C1  UNL     1      -7.578   0.654   1.398  1.00  0.00     0.025 C 
HETATM   35  C3  UNL     1      -6.590   2.236  -0.162  1.00  0.00     0.025 C 
HETATM   36  C4  UNL     1      -7.380   0.062  -0.970  1.00  0.00     0.025 C 
ENDBRANCH  31  33
ENDBRANCH  30  31
ENDBRANCH  29  30
ENDBRANCH  28  29
ENDBRANCH  27  28
ENDBRANCH  25  27
ENDBRANCH   1  25
TORSDOF 13
