REMARK  3 active torsions:
REMARK  status: ('A' for Active; 'I' for Inactive)
REMARK    1  A    between atoms: N3_7  and  N4_8 
REMARK    2  A    between atoms: N4_8  and  C3_10 
REMARK    3  A    between atoms: N5_13  and  C6_14 
ROOT
HETATM    1  C3  UNL     1       2.286  -0.578  -0.735  1.00  0.00     0.139 C 
HETATM    2  C4  UNL     1       2.050  -1.607   0.351  1.00  0.00     0.052 C 
HETATM    3  C5  UNL     1       0.632  -1.265   0.839  1.00  0.00     0.125 C 
HETATM    4  N5  UNL     1       0.044  -0.663  -0.259  1.00  0.00    -0.387 N 
HETATM    5  C13 UNL     1       0.898  -0.213  -1.249  1.00  0.00     0.085 C 
ENDROOT
BRANCH   1   6
HETATM    6  N4  UNL     1       2.959   0.601  -0.266  1.00  0.00    -0.318 N 
ATOM      7  H4  UNL     1       2.457   1.487  -0.318  1.00  0.00     0.181 HD
BRANCH   6   8
HETATM    8  N3  UNL     1       4.247   0.617   0.254  1.00  0.00    -0.248 N 
HETATM    9  C1  UNL     1       4.884   1.698   0.719  1.00  0.00     0.223 A 
HETATM   10  N1  UNL     1       6.097   1.286   1.119  1.00  0.00    -0.293 N 
HETATM   11  N2  UNL     1       6.198  -0.003   0.906  1.00  0.00    -0.293 N 
ATOM     12  H1  UNL     1       6.822   1.879   1.523  1.00  0.00     0.187 HD
HETATM   13  C2  UNL     1       5.043  -0.447   0.362  1.00  0.00     0.223 A 
ATOM     14  H2  UNL     1       7.014  -0.577   1.116  1.00  0.00     0.187 HD
ENDBRANCH   6   8
ENDBRANCH   1   6
BRANCH   4  15
HETATM   15  C6  UNL     1      -1.298  -0.268  -0.220  1.00  0.00     0.083 C 
HETATM   16  C7  UNL     1      -1.647   0.778   0.788  1.00  0.00     0.025 C 
HETATM   17  C8  UNL     1      -3.047   0.797   1.262  1.00  0.00     0.002 C 
HETATM   18  C9  UNL     1      -4.027   0.003   0.464  1.00  0.00     0.000 C 
HETATM   19  C10 UNL     1      -4.120   0.417  -0.979  1.00  0.00     0.000 C 
HETATM   20  C11 UNL     1      -3.129  -0.335  -1.849  1.00  0.00     0.002 C 
HETATM   21  C12 UNL     1      -1.771   0.265  -1.576  1.00  0.00     0.025 C 
ENDBRANCH   4  15
TORSDOF 3
