REMARK  4 active torsions:
REMARK  status: ('A' for Active; 'I' for Inactive)
REMARK       I    between atoms: C1_2  and  N1_3 
REMARK    1  A    between atoms: C1_2  and  C11_19 
REMARK    2  A    between atoms: N1_3  and  C2_5 
REMARK    3  A    between atoms: N2_7  and  C4_8 
REMARK    4  A    between atoms: C4_8  and  C5_9 
ROOT
HETATM    1  C2  UNL     1       0.916   1.158  -0.360  1.00  0.00     0.141 A 
HETATM    2  C3  UNL     1      -0.245   1.031  -1.101  1.00  0.00     0.161 A 
HETATM    3  N2  UNL     1      -1.276   1.609  -0.454  1.00  0.00    -0.285 N 
HETATM    4  N3  UNL     1      -0.759   2.090   0.675  1.00  0.00    -0.239 N 
ATOM      5  H3  UNL     1      -1.292   2.590   1.387  1.00  0.00     0.208 HD
HETATM    6  N4  UNL     1       0.532   1.835   0.751  1.00  0.00    -0.270 N 
ATOM      7  H4  UNL     1       1.144   2.104   1.522  1.00  0.00     0.190 HD
ENDROOT
BRANCH   1   8
HETATM    8  N1  UNL     1       2.218   0.694  -0.674  1.00  0.00    -0.310 N 
HETATM    9  C1  UNL     1       3.268   0.939   0.242  1.00  0.00     0.229 C 
HETATM   10  O1  UNL     1       3.062   1.553   1.309  1.00  0.00    -0.273 OA
ATOM     11  H1  UNL     1       2.395   0.193  -1.545  1.00  0.00     0.170 HD
BRANCH   9  12
HETATM   12  C11 UNL     1       4.626   0.463  -0.070  1.00  0.00     0.104 C 
HETATM   13  C12 UNL     1       4.669  -1.061  -0.238  1.00  0.00     0.042 C 
HETATM   14  C13 UNL     1       6.114  -1.331   0.179  1.00  0.00     0.168 C 
HETATM   15  O2  UNL     1       6.290  -0.497   1.251  1.00  0.00    -0.390 OA
HETATM   16  C14 UNL     1       5.597   0.668   1.047  1.00  0.00     0.181 C 
ENDBRANCH   9  12
ENDBRANCH   1   8
BRANCH   3  17
HETATM   17  C4  UNL     1      -2.642   1.706  -0.864  1.00  0.00     0.154 C 
BRANCH  17  18
HETATM   18  C5  UNL     1      -3.493   0.564  -0.414  1.00  0.00     0.005 C 
HETATM   19  C6  UNL     1      -3.482   0.496   1.114  1.00  0.00     0.006 C 
HETATM   20  C7  UNL     1      -4.371  -0.601   1.621  1.00  0.00     0.000 C 
HETATM   21  C8  UNL     1      -4.824  -1.575   0.610  1.00  0.00     0.000 C 
HETATM   22  C9  UNL     1      -3.953  -1.819  -0.550  1.00  0.00     0.000 C 
HETATM   23  C10 UNL     1      -2.931  -0.783  -0.850  1.00  0.00     0.006 C 
ENDBRANCH  17  18
ENDBRANCH   3  17
TORSDOF 4
