REMARK  2 active torsions:
REMARK  status: ('A' for Active; 'I' for Inactive)
REMARK    1  A    between atoms: N1_1  and  C1_5 
REMARK    2  A    between atoms: C8_14  and  O3_15 
ROOT
HETATM    1  C1  UNL     1       1.861   0.012  -0.209  1.00  0.00     0.236 C 
HETATM    2  C2  UNL     1       1.496   1.451  -0.436  1.00  0.00     0.203 C 
HETATM    3  O1  UNL     1       0.737   1.845   0.684  1.00  0.00    -0.389 OA
HETATM    4  C3  UNL     1      -0.575   1.796   0.310  1.00  0.00     0.174 C 
HETATM    5  C4  UNL     1      -1.251   0.490   0.468  1.00  0.00     0.042 C 
HETATM    6  C5  UNL     1      -2.096   0.080  -0.711  1.00  0.00     0.174 C 
HETATM    7  O2  UNL     1      -2.125  -1.286  -0.766  1.00  0.00    -0.390 OA
HETATM    8  C6  UNL     1      -1.434  -1.787   0.331  1.00  0.00     0.175 C 
HETATM    9  C7  UNL     1      -0.394  -0.699   0.670  1.00  0.00     0.048 C 
HETATM   10  C8  UNL     1       0.700  -0.925  -0.290  1.00  0.00     0.157 C 
ENDROOT
BRANCH   1  11
HETATM   11  N1  UNL     1       2.595  -0.083   1.020  1.00  0.00    -0.070 N 
ATOM     12  H13 UNL     1       3.407   0.535   1.040  1.00  0.00     0.274 HD
ATOM     13  H12 UNL     1       2.091   0.322   1.809  1.00  0.00     0.274 HD
ATOM     14  H11 UNL     1       2.843  -1.060   1.174  1.00  0.00     0.274 HD
ENDBRANCH   1  11
BRANCH  10  15
HETATM   15  O3  UNL     1       0.197  -0.978  -1.574  1.00  0.00    -0.393 OA
ATOM     16  H3  UNL     1      -0.541  -1.574  -1.626  1.00  0.00     0.210 HD
ENDBRANCH  10  15
TORSDOF 2
