REMARK  8 active torsions:
REMARK  status: ('A' for Active; 'I' for Inactive)
REMARK    1  A    between atoms: C2_3  and  C3_4 
REMARK    2  A    between atoms: C4_5  and  C5_6 
REMARK    3  A    between atoms: C5_6  and  O1_7 
REMARK    4  A    between atoms: C6_9  and  O2_10 
REMARK    5  A    between atoms: C7_12  and  O3_13 
REMARK    6  A    between atoms: C8_15  and  O4_16 
REMARK    7  A    between atoms: C9_18  and  N2_19 
REMARK    8  A    between atoms: N2_19  and  N3_21 
ROOT
HETATM    1  N1  UNL     1       3.882  -1.670  -0.550  1.00  0.00    -0.197 NA
HETATM    2  C1  UNL     1       3.162  -0.809  -0.276  1.00  0.00     0.059 C 
HETATM    3  C2  UNL     1       2.285   0.280   0.059  1.00  0.00     0.131 C 
ENDROOT
BRANCH   3   4
HETATM    4  C3  UNL     1       0.850  -0.041  -0.096  1.00  0.00     0.034 C 
HETATM    5  C4  UNL     1       0.022   1.177   0.283  1.00  0.00     0.048 C 
HETATM    6  C6  UNL     1      -1.387   0.972  -0.188  1.00  0.00     0.156 C 
HETATM    7  C7  UNL     1      -1.956  -0.187   0.636  1.00  0.00     0.178 C 
HETATM    8  C8  UNL     1      -1.113  -1.400   0.495  1.00  0.00     0.174 C 
HETATM    9  C9  UNL     1       0.356  -1.179   0.731  1.00  0.00     0.137 C 
BRANCH   5  10
HETATM   10  C5  UNL     1       0.596   2.459  -0.266  1.00  0.00     0.172 C 
BRANCH  10  11
HETATM   11  O1  UNL     1       0.679   2.472  -1.636  1.00  0.00    -0.400 OA
ATOM     12  H1  UNL     1       1.041   3.280  -1.982  1.00  0.00     0.209 HD
ENDBRANCH  10  11
ENDBRANCH   5  10
BRANCH   6  13
HETATM   13  O2  UNL     1      -1.354   0.559  -1.518  1.00  0.00    -0.392 OA
ATOM     14  H2  UNL     1      -2.247   0.429  -1.816  1.00  0.00     0.210 HD
ENDBRANCH   6  13
BRANCH   7  15
HETATM   15  O3  UNL     1      -3.224  -0.477   0.111  1.00  0.00    -0.390 OA
ATOM     16  H3  UNL     1      -3.577  -1.196   0.622  1.00  0.00     0.210 HD
ENDBRANCH   7  15
BRANCH   8  17
HETATM   17  O4  UNL     1      -1.257  -1.877  -0.819  1.00  0.00    -0.391 OA
ATOM     18  H4  UNL     1      -0.717  -2.654  -0.909  1.00  0.00     0.210 HD
ENDBRANCH   8  17
BRANCH   9  19
HETATM   19  N2  UNL     1       1.006  -2.442   0.438  1.00  0.00    -0.315 N 
ATOM     20  H2  UNL     1       1.770  -2.509  -0.235  1.00  0.00     0.182 HD
BRANCH  19  21
HETATM   21  N3  UNL     1       0.588  -3.428   1.043  1.00  0.00    -0.253 N 
HETATM   22  N4  UNL     1       0.705  -4.512   1.655  1.00  0.00    -0.331 N 
ATOM     23  H42 UNL     1       1.718  -4.626   1.627  1.00  0.00     0.178 HD
ATOM     24  H41 UNL     1       0.358  -5.330   2.157  1.00  0.00     0.178 HD
ATOM     25  H3  UNL     1      -0.421  -3.276   1.049  1.00  0.00     0.207 HD
ENDBRANCH  19  21
ENDBRANCH   9  19
ENDBRANCH   3   4
TORSDOF 8
