REMARK  8 active torsions:
REMARK  status: ('A' for Active; 'I' for Inactive)
REMARK    1  A    between atoms: C2_2  and  C3_3 
REMARK    2  A    between atoms: C3_3  and  C4_4 
REMARK    3  A    between atoms: C5_5  and  O1_6 
REMARK    4  A    between atoms: C6_8  and  O2_9 
REMARK    5  A    between atoms: C8_12  and  O3_14 
REMARK    6  A    between atoms: C12_17  and  N1_18 
REMARK    7  A    between atoms: N1_18  and  C13_21 
REMARK    8  A    between atoms: C15_23  and  O4_24 
ROOT
HETATM    1  C4  UNL     1      -1.905   0.589   0.332  1.00  0.00     0.028 C 
HETATM    2  C5  UNL     1      -2.464  -0.356  -0.685  1.00  0.00     0.152 C 
HETATM    3  C6  UNL     1      -1.474  -1.466  -0.869  1.00  0.00     0.155 C 
HETATM    4  C7  UNL     1      -0.437  -1.218   0.194  1.00  0.00     0.062 C 
HETATM    5  C8  UNL     1       0.896  -1.791  -0.099  1.00  0.00     0.065 C 
HETATM    6  C9  UNL     1       0.824  -3.076  -0.907  1.00  0.00     0.046 C 
HETATM    7  C11 UNL     1       1.765  -0.867  -0.965  1.00  0.00     0.073 C 
HETATM    8  C12 UNL     1       1.873   0.449  -0.279  1.00  0.00     0.218 C 
HETATM    9  C15 UNL     1       0.467   1.071  -0.332  1.00  0.00     0.158 C 
HETATM   10  C16 UNL     1      -0.447   0.258   0.492  1.00  0.00    -0.001 C 
HETATM   11  C17 UNL     1      -0.112   0.506   1.951  1.00  0.00     0.019 C 
ENDROOT
BRANCH   8  12
HETATM   12  N1  UNL     1       2.680   1.411  -1.000  1.00  0.00    -0.069 N 
ATOM     13  H12 UNL     1       2.261   1.624  -1.905  1.00  0.00     0.277 HD
ATOM     14  H11 UNL     1       2.619   2.330  -0.562  1.00  0.00     0.277 HD
BRANCH  12  15
HETATM   15  C13 UNL     1       4.051   1.017  -1.158  1.00  0.00     0.228 C 
HETATM   16  C14 UNL     1       4.766   1.021   0.197  1.00  0.00     0.034 C 
ENDBRANCH  12  15
ENDBRANCH   8  12
BRANCH   9  17
HETATM   17  O4  UNL     1       0.160   1.139  -1.686  1.00  0.00    -0.393 OA
ATOM     18  H4  UNL     1      -0.708   1.523  -1.719  1.00  0.00     0.210 HD
ENDBRANCH   9  17
BRANCH   5  19
HETATM   19  O3  UNL     1       1.670  -2.072   1.014  1.00  0.00    -0.385 OA
HETATM   20  C10 UNL     1       1.166  -2.987   1.893  1.00  0.00     0.202 C 
ENDBRANCH   5  19
BRANCH   1  21
HETATM   21  C3  UNL     1      -2.203   2.027   0.099  1.00  0.00     0.008 C 
BRANCH  21  22
HETATM   22  C2  UNL     1      -3.688   2.327   0.090  1.00  0.00    -0.004 C 
HETATM   23  C1  UNL     1      -4.316   1.945   1.426  1.00  0.00     0.005 C 
ENDBRANCH  21  22
ENDBRANCH   1  21
BRANCH   3  24
HETATM   24  O2  UNL     1      -1.009  -1.454  -2.150  1.00  0.00    -0.392 OA
ATOM     25  H2  UNL     1      -0.381  -2.158  -2.267  1.00  0.00     0.210 HD
ENDBRANCH   3  24
BRANCH   2  26
HETATM   26  O1  UNL     1      -2.769   0.286  -1.895  1.00  0.00    -0.393 OA
ATOM     27  H1  UNL     1      -3.124  -0.314  -2.541  1.00  0.00     0.210 HD
ENDBRANCH   2  26
TORSDOF 8
