REMARK  6 active torsions:
REMARK  status: ('A' for Active; 'I' for Inactive)
REMARK    1  A    between atoms: C2_2  and  N1_3 
REMARK    2  A    between atoms: C2_2  and  C11_18 
REMARK       I    between atoms: N1_3  and  C3_5 
REMARK    3  A    between atoms: C3_5  and  C4_7 
REMARK    4  A    between atoms: C4_7  and  N2_9 
REMARK       I    between atoms: N2_9  and  C6_11 
REMARK       I    between atoms: C6_11  and  N3_13 
REMARK       I    between atoms: C11_18  and  N4_20 
REMARK    5  A    between atoms: N4_20  and  C12_22 
REMARK    6  A    between atoms: C17_30  and  O4_31 
ROOT
HETATM    1  C1  UNL     1      -1.441  -0.377  -2.891  1.00  0.00     0.042 C 
HETATM    2  C2  UNL     1      -0.975  -0.220  -1.464  1.00  0.00     0.172 C 
ENDROOT
BRANCH   2   3
HETATM    3  N1  UNL     1       0.229   0.572  -1.364  1.00  0.00    -0.346 N 
HETATM    4  C3  UNL     1       1.435   0.077  -0.813  1.00  0.00     0.240 C 
HETATM    5  O1  UNL     1       1.472  -1.101  -0.388  1.00  0.00    -0.271 OA
ATOM      6  H1  UNL     1       0.209   1.533  -1.706  1.00  0.00     0.163 HD
BRANCH   4   7
HETATM    7  C4  UNL     1       2.662   0.901  -0.715  1.00  0.00     0.174 C 
HETATM    8  C5  UNL     1       2.353   2.128   0.141  1.00  0.00     0.042 C 
BRANCH   7   9
HETATM    9  N2  UNL     1       3.756   0.179  -0.120  1.00  0.00    -0.330 N 
HETATM   10  C6  UNL     1       5.013   0.085  -0.769  1.00  0.00     0.319 C 
HETATM   11  O2  UNL     1       5.107   0.673  -1.896  1.00  0.00    -0.247 OA
HETATM   12  N3  UNL     1       6.099  -0.616  -0.204  1.00  0.00    -0.334 N 
HETATM   13  C7  UNL     1       7.408  -0.778  -0.762  1.00  0.00     0.127 C 
HETATM   14  C10 UNL     1       6.096  -1.306   1.048  1.00  0.00     0.127 C 
HETATM   15  C8  UNL     1       8.278  -0.420   0.451  1.00  0.00     0.022 C 
HETATM   16  C9  UNL     1       7.455  -0.919   1.621  1.00  0.00     0.022 C 
ATOM     17  H2  UNL     1       3.624  -0.273   0.785  1.00  0.00     0.165 HD
ENDBRANCH   7   9
ENDBRANCH   4   7
ENDBRANCH   2   3
BRANCH   2  18
HETATM   18  C11 UNL     1      -2.099   0.397  -0.703  1.00  0.00     0.240 C 
HETATM   19  O3  UNL     1      -1.879   1.467  -0.104  1.00  0.00    -0.271 OA
HETATM   20  N4  UNL     1      -3.370  -0.237  -0.677  1.00  0.00    -0.352 N 
ATOM     21  H4  UNL     1      -3.529  -1.114  -1.173  1.00  0.00     0.163 HD
BRANCH  20  22
HETATM   22  C12 UNL     1      -4.429   0.395   0.071  1.00  0.00     0.115 C 
HETATM   23  C13 UNL     1      -5.683   0.620  -0.746  1.00  0.00     0.061 C 
HETATM   24  C14 UNL     1      -6.688   0.993   0.324  1.00  0.00     0.196 A 
HETATM   25  N5  UNL     1      -7.946   0.281   0.225  1.00  0.00    -0.070 N 
HETATM   26  C16 UNL     1      -6.257   0.242   1.543  1.00  0.00     0.073 A 
HETATM   27  C15 UNL     1      -7.530  -0.533   1.351  1.00  0.00     0.242 A 
ATOM     28  H52 UNL     1      -8.832   0.785   0.247  1.00  0.00     0.277 HD
ATOM     29  H51 UNL     1      -8.230  -0.153  -0.653  1.00  0.00     0.277 HD
HETATM   30  C17 UNL     1      -4.994  -0.512   1.166  1.00  0.00     0.148 C 
BRANCH  30  31
HETATM   31  O4  UNL     1      -5.370  -1.705   0.551  1.00  0.00    -0.393 OA
ATOM     32  H4  UNL     1      -5.721  -2.268   1.231  1.00  0.00     0.210 HD
ENDBRANCH  30  31
ENDBRANCH  20  22
ENDBRANCH   2  18
TORSDOF 6
