REMARK  4 active torsions:
REMARK  status: ('A' for Active; 'I' for Inactive)
REMARK    1  A    between atoms: C2_2  and  C4_4 
REMARK    2  A    between atoms: C11_11  and  N1_12 
REMARK    3  A    between atoms: N1_12  and  C12_15 
REMARK    4  A    between atoms: C12_15  and  O1_16 
ROOT
HETATM    1  C4  UNL     1       1.070   0.066  -0.135  1.00  0.00    -0.034 C 
HETATM    2  C5  UNL     1       1.046   0.744  -1.488  1.00  0.00     0.014 C 
HETATM    3  C6  UNL     1      -0.336   1.333  -1.749  1.00  0.00    -0.011 C 
HETATM    4  C7  UNL     1      -0.623   2.350  -0.679  1.00  0.00     0.014 C 
HETATM    5  C8  UNL     1      -0.688   1.632   0.653  1.00  0.00    -0.041 C 
HETATM    6  C9  UNL     1      -0.979   2.655   1.728  1.00  0.00     0.015 C 
HETATM    7  C10 UNL     1      -1.707   0.528   0.615  1.00  0.00     0.048 C 
HETATM    8  C11 UNL     1      -1.294  -0.490  -0.403  1.00  0.00     0.130 C 
HETATM    9  C13 UNL     1      -1.324   0.202  -1.762  1.00  0.00     0.043 C 
HETATM   10  C14 UNL     1       0.086  -1.056  -0.165  1.00  0.00     0.049 C 
HETATM   11  C15 UNL     1       0.654   1.028   0.958  1.00  0.00     0.019 C 
ENDROOT
BRANCH   8  12
HETATM   12  N1  UNL     1      -2.190  -1.608  -0.509  1.00  0.00    -0.045 N 
ATOM     13  H12 UNL     1      -3.099  -1.301  -0.856  1.00  0.00     0.280 HD
ATOM     14  H11 UNL     1      -1.905  -2.218  -1.275  1.00  0.00     0.280 HD
BRANCH  12  15
HETATM   15  C12 UNL     1      -2.349  -2.366   0.696  1.00  0.00     0.397 C 
BRANCH  15  16
HETATM   16  O1  UNL     1      -3.458  -3.206   0.504  1.00  0.00    -0.375 OA
ATOM     17  H1  UNL     1      -3.563  -3.709   1.303  1.00  0.00     0.211 HD
ENDBRANCH  15  16
ENDBRANCH  12  15
ENDBRANCH   8  12
BRANCH   1  18
HETATM   18  C2  UNL     1       2.479  -0.344   0.170  1.00  0.00    -0.014 C 
HETATM   19  C1  UNL     1       2.609  -1.225   1.381  1.00  0.00     0.010 C 
HETATM   20  C3  UNL     1       3.206  -0.930  -1.015  1.00  0.00     0.010 C 
ENDBRANCH   1  18
TORSDOF 4
