REMARK  3 active torsions:
REMARK  status: ('A' for Active; 'I' for Inactive)
REMARK    1  A    between atoms: C2_2  and  C5_5 
REMARK    2  A    between atoms: C9_13  and  C10_14 
REMARK    3  A    between atoms: C9_13  and  N6_31 
ROOT
HETATM    1  C5  UNL     1      -1.867  -1.292   0.009  1.00  0.00     0.081 C 
HETATM    2  C6  UNL     1      -2.571  -1.134  -1.084  1.00  0.00     0.102 C 
HETATM    3  C7  UNL     1      -3.775  -1.853  -1.532  1.00  0.00     0.104 C 
HETATM    4  N1  UNL     1      -4.720  -2.401  -1.913  1.00  0.00    -0.191 NA
HETATM    5  C8  UNL     1      -1.934  -0.073  -1.850  1.00  0.00     0.090 C 
HETATM    6  N2  UNL     1      -2.257   0.237  -3.048  1.00  0.00    -0.397 N 
ATOM      7  H21 UNL     1      -1.811   0.981  -3.585  1.00  0.00     0.156 HD
ATOM      8  H22 UNL     1      -2.981  -0.196  -3.621  1.00  0.00     0.156 HD
HETATM    9  C9  UNL     1      -0.868   0.564  -1.006  1.00  0.00     0.244 C 
HETATM   10  O1  UNL     1      -0.798  -0.388   0.020  1.00  0.00    -0.309 OA
ENDROOT
BRANCH   1  11
HETATM   11  C2  UNL     1      -2.107  -2.262   1.108  1.00  0.00    -0.001 C 
HETATM   12  C1  UNL     1      -3.414  -2.948   1.127  1.00  0.00     0.021 C 
HETATM   13  C3  UNL     1      -1.990  -1.503   2.429  1.00  0.00     0.021 C 
HETATM   14  C4  UNL     1      -1.029  -3.345   1.109  1.00  0.00     0.021 C 
ENDBRANCH   1  11
BRANCH   9  15
HETATM   15  C10 UNL     1       0.352   0.566  -1.859  1.00  0.00     0.164 A 
HETATM   16  N3  UNL     1       0.362   0.763  -3.187  1.00  0.00    -0.283 N 
HETATM   17  N4  UNL     1       1.585   0.711  -3.661  1.00  0.00    -0.287 N 
ATOM     18  H3  UNL     1      -0.470   0.931  -3.752  1.00  0.00     0.188 HD
HETATM   19  C11 UNL     1       2.403   0.475  -2.622  1.00  0.00     0.100 A 
ATOM     20  H4  UNL     1       1.862   0.828  -4.636  1.00  0.00     0.188 HD
HETATM   21  N5  UNL     1       1.663   0.384  -1.505  1.00  0.00    -0.309 N 
HETATM   22  C14 UNL     1       3.868   0.275  -2.316  1.00  0.00     0.080 C 
HETATM   23  C12 UNL     1       2.536   0.147  -0.412  1.00  0.00     0.041 C 
HETATM   24  C13 UNL     1       3.860   0.726  -0.879  1.00  0.00     0.039 C 
HETATM   25  C15 UNL     1       2.158   0.665   0.927  1.00  0.00     0.037 C 
HETATM   26  C19 UNL     1       2.727  -1.368  -0.277  1.00  0.00     0.037 C 
HETATM   27  C16 UNL     1       2.189  -0.368   2.036  1.00  0.00     0.081 C 
HETATM   28  C17 UNL     1       3.463  -1.167   2.042  1.00  0.00     0.243 C 
HETATM   29  F1  UNL     1       3.287  -2.210   2.932  1.00  0.00    -0.206 F 
HETATM   30  F2  UNL     1       4.495  -0.394   2.541  1.00  0.00    -0.206 F 
HETATM   31  C18 UNL     1       3.785  -1.754   0.696  1.00  0.00     0.081 C 
ENDBRANCH   9  15
BRANCH   9  32
HETATM   32  N6  UNL     1      -1.335   1.832  -0.600  1.00  0.00    -0.368 N 
HETATM   33  C20 UNL     1      -1.634   2.807  -1.564  1.00  0.00     0.148 C 
HETATM   34  C21 UNL     1      -1.367   4.195  -0.956  1.00  0.00     0.251 C 
HETATM   35  N7  UNL     1      -2.284   4.299   0.177  1.00  0.00    -0.072 N 
HETATM   36  C22 UNL     1      -1.798   3.379   1.186  1.00  0.00     0.251 C 
ATOM     37  H72 UNL     1      -2.395   5.253   0.520  1.00  0.00     0.277 HD
ATOM     38  H71 UNL     1      -3.259   4.141  -0.077  1.00  0.00     0.277 HD
HETATM   39  C23 UNL     1      -1.887   1.963   0.692  1.00  0.00     0.148 C 
ENDBRANCH   9  32
TORSDOF 3
