REMARK  7 active torsions:
REMARK  status: ('A' for Active; 'I' for Inactive)
REMARK    1  A    between atoms: S1_2  and  C2_3 
REMARK    2  A    between atoms: C3_6  and  N2_7 
REMARK    3  A    between atoms: N2_7  and  N3_8 
REMARK    4  A    between atoms: C5_14  and  C6_15 
REMARK    5  A    between atoms: C6_15  and  C7_16 
REMARK    6  A    between atoms: C7_16  and  O1_17 
REMARK    7  A    between atoms: O1_17  and  C8_18 
ROOT
HETATM    1  C2  UNL     1      -1.130   0.735   0.174  1.00  0.00     0.085 A 
HETATM    2  N1  UNL     1      -2.416   0.500   0.133  1.00  0.00    -0.321 N 
ATOM      3  H1  UNL     1      -3.006   1.277   0.430  1.00  0.00     0.169 HD
HETATM    4  C3  UNL     1      -3.085  -0.615  -0.243  1.00  0.00     0.232 A 
HETATM    5  C4  UNL     1      -2.423  -1.777  -0.680  1.00  0.00     0.132 A 
HETATM    6  S2  UNL     1      -3.271  -3.099  -1.128  1.00  0.00    -0.067 SA
HETATM    7  S3  UNL     1      -0.731  -1.687  -0.704  1.00  0.00    -0.075 SA
HETATM    8  C5  UNL     1      -0.158  -0.175  -0.183  1.00  0.00     0.020 A 
ENDROOT
BRANCH   8   9
HETATM    9  C6  UNL     1       1.272   0.195  -0.100  1.00  0.00     0.076 C 
BRANCH   9  10
HETATM   10  C7  UNL     1       2.178  -1.012  -0.267  1.00  0.00     0.184 C 
BRANCH  10  11
HETATM   11  O1  UNL     1       3.503  -0.510  -0.161  1.00  0.00    -0.321 OA
BRANCH  11  12
HETATM   12  C8  UNL     1       4.628  -1.287  -0.236  1.00  0.00     0.254 C 
HETATM   13  C9  UNL     1       5.958  -0.636  -0.111  1.00  0.00     0.126 C 
HETATM   14  O2  UNL     1       4.540  -2.506  -0.404  1.00  0.00    -0.266 OA
ENDBRANCH  11  12
ENDBRANCH  10  11
ENDBRANCH   9  10
ENDBRANCH   8   9
BRANCH   1  15
HETATM   15  S1  UNL     1      -0.563   2.375   0.745  1.00  0.00    -0.116 SA
HETATM   16  C1  UNL     1      -1.971   3.398   1.175  1.00  0.00     0.097 C 
ENDBRANCH   1  15
BRANCH   4  17
HETATM   17  N2  UNL     1      -4.299  -0.661  -0.211  1.00  0.00    -0.312 NA
BRANCH  17  18
HETATM   18  N3  UNL     1      -5.562  -0.786  -0.205  1.00  0.00    -0.278 N 
ATOM     19  H32 UNL     1      -5.206  -1.683  -0.536  1.00  0.00     0.191 HD
ATOM     20  H31 UNL     1      -6.581  -0.825  -0.178  1.00  0.00     0.191 HD
ENDBRANCH  17  18
ENDBRANCH   4  17
TORSDOF 7
