REMARK  15 active torsions:
REMARK  status: ('A' for Active; 'I' for Inactive)
REMARK    1  A    between atoms: C2_2  and  O1_3 
REMARK    2  A    between atoms: C2_2  and  C3_5 
REMARK    3  A    between atoms: C3_5  and  O2_6 
REMARK    4  A    between atoms: C4_8  and  O3_9 
REMARK    5  A    between atoms: C5_11  and  C6_12 
REMARK    6  A    between atoms: C6_12  and  O4_13 
REMARK    7  A    between atoms: C7_16  and  N1_17 
REMARK    8  A    between atoms: N3_24  and  C10_25 
REMARK    9  A    between atoms: C10_25  and  O7_26 
REMARK   10  A    between atoms: C10_25  and  C11_28 
REMARK       I    between atoms: C11_28  and  N4_30 
REMARK   11  A    between atoms: N4_30  and  C12_32 
REMARK   12  A    between atoms: C15_38  and  N7_39 
REMARK   13  A    between atoms: N7_39  and  C16_41 
REMARK   14  A    between atoms: C16_41  and  C17_42 
REMARK   15  A    between atoms: C17_42  and  O9_43 
ROOT
HETATM    1  N1  UNL     1      -2.778   1.133   1.227  1.00  0.00    -0.233 N 
HETATM    2  C8  UNL     1      -2.574   2.327   1.812  1.00  0.00     0.335 A 
HETATM    3  O5  UNL     1      -3.532   3.091   2.098  1.00  0.00    -0.246 OA
HETATM    4  N2  UNL     1      -1.333   2.770   2.124  1.00  0.00    -0.260 N 
ATOM      5  H2  UNL     1      -1.213   3.681   2.567  1.00  0.00     0.175 HD
HETATM    6  C9  UNL     1      -0.277   2.022   1.854  1.00  0.00     0.337 A 
HETATM    7  O6  UNL     1       0.881   2.455   2.154  1.00  0.00    -0.246 OA
HETATM    8  N3  UNL     1      -0.452   0.825   1.270  1.00  0.00    -0.214 N 
HETATM    9  C18 UNL     1      -1.688   0.391   0.963  1.00  0.00     0.340 A 
HETATM   10  O10 UNL     1      -1.837  -0.752   0.407  1.00  0.00    -0.246 OA
ENDROOT
BRANCH   8  11
HETATM   11  C10 UNL     1       0.741   0.043   0.995  1.00  0.00     0.327 C 
BRANCH  11  12
HETATM   12  O7  UNL     1       1.738   0.301   1.959  1.00  0.00    -0.367 OA
ATOM     13  H7  UNL     1       2.518  -0.210   1.779  1.00  0.00     0.212 HD
ENDBRANCH  11  12
BRANCH  11  14
HETATM   14  C11 UNL     1       1.303   0.346  -0.343  1.00  0.00     0.272 C 
HETATM   15  O8  UNL     1       0.575   0.183  -1.354  1.00  0.00    -0.268 OA
HETATM   16  N4  UNL     1       2.621   0.812  -0.556  1.00  0.00    -0.309 N 
ATOM     17  H4  UNL     1       2.755   1.815  -0.687  1.00  0.00     0.170 HD
BRANCH  16  18
HETATM   18  C12 UNL     1       3.653   0.066  -0.595  1.00  0.00     0.126 A 
HETATM   19  C13 UNL     1       3.624  -1.306  -0.432  1.00  0.00     0.094 A 
HETATM   20  C14 UNL     1       4.808  -2.012  -0.493  1.00  0.00     0.135 A 
HETATM   21  N5  UNL     1       4.826  -3.420  -0.332  1.00  0.00    -0.082 NA
HETATM   22  N6  UNL     1       6.000  -1.384  -0.711  1.00  0.00    -0.179 N 
HETATM   23  C15 UNL     1       6.018  -0.051  -0.869  1.00  0.00     0.681 A 
ATOM     24  H6  UNL     1       6.866  -1.921  -0.753  1.00  0.00     0.185 HD
HETATM   25  N8  UNL     1       4.850   0.625  -0.805  1.00  0.00    -0.177 N 
ATOM     26  H8  UNL     1       4.883   1.637  -0.926  1.00  0.00     0.186 HD
BRANCH  23  27
HETATM   27  N7  UNL     1       7.134   0.561  -1.075  1.00  0.00    -0.224 N 
ATOM     28  H7  UNL     1       7.107   1.574  -1.188  1.00  0.00     0.177 HD
BRANCH  27  29
HETATM   29  C16 UNL     1       8.417  -0.091  -1.156  1.00  0.00     0.164 C 
BRANCH  29  30
HETATM   30  C17 UNL     1       8.956  -0.244   0.268  1.00  0.00     0.184 C 
BRANCH  30  31
HETATM   31  O9  UNL     1      10.182  -0.864   0.241  1.00  0.00    -0.399 OA
ATOM     32  H9  UNL     1      10.517  -0.959   1.125  1.00  0.00     0.209 HD
ENDBRANCH  30  31
ENDBRANCH  29  30
ENDBRANCH  27  29
ENDBRANCH  23  27
ENDBRANCH  16  18
ENDBRANCH  11  14
ENDBRANCH   8  11
BRANCH   1  33
HETATM   33  C7  UNL     1      -4.117   0.725   0.924  1.00  0.00     0.201 C 
HETATM   34  C3  UNL     1      -4.547   0.804  -0.472  1.00  0.00     0.140 C 
HETATM   35  C4  UNL     1      -5.330  -0.309  -0.955  1.00  0.00     0.173 C 
HETATM   36  C5  UNL     1      -5.620  -1.342   0.047  1.00  0.00     0.105 C 
HETATM   37  S1  UNL     1      -4.369  -1.048   1.325  1.00  0.00    -0.130 SA
BRANCH  34  38
HETATM   38  C2  UNL     1      -5.347   2.097  -0.712  1.00  0.00     0.154 C 
HETATM   39  C1  UNL     1      -6.645   2.107   0.054  1.00  0.00     0.042 C 
BRANCH  38  40
HETATM   40  O1  UNL     1      -5.675   2.179  -2.086  1.00  0.00    -0.393 OA
ATOM     41  H1  UNL     1      -4.857   2.173  -2.569  1.00  0.00     0.210 HD
ENDBRANCH  38  40
ENDBRANCH  34  38
BRANCH  34  42
HETATM   42  O2  UNL     1      -3.401   0.963  -1.289  1.00  0.00    -0.382 OA
ATOM     43  H2  UNL     1      -2.907   0.165  -1.141  1.00  0.00     0.211 HD
ENDBRANCH  34  42
BRANCH  35  44
HETATM   44  O3  UNL     1      -4.690  -0.949  -2.045  1.00  0.00    -0.391 OA
ATOM     45  H3  UNL     1      -5.205  -1.681  -2.363  1.00  0.00     0.210 HD
ENDBRANCH  35  44
BRANCH  36  46
HETATM   46  C6  UNL     1      -5.533  -2.751  -0.499  1.00  0.00     0.181 C 
BRANCH  46  47
HETATM   47  O4  UNL     1      -5.830  -3.639   0.554  1.00  0.00    -0.400 OA
ATOM     48  H4  UNL     1      -5.775  -4.523   0.211  1.00  0.00     0.209 HD
ENDBRANCH  46  47
ENDBRANCH  36  46
ENDBRANCH   1  33
TORSDOF 15
