REMARK  12 active torsions:
REMARK  status: ('A' for Active; 'I' for Inactive)
REMARK    1  A    between atoms: S1_2  and  C2_3 
REMARK    2  A    between atoms: C3_5  and  O2_6 
REMARK    3  A    between atoms: C4_8  and  O3_9 
REMARK    4  A    between atoms: C5_11  and  N1_12 
REMARK    5  A    between atoms: C6_16  and  N2_17 
REMARK    6  A    between atoms: C7_21  and  C8_22 
REMARK    7  A    between atoms: C8_22  and  N7_29 
REMARK    8  A    between atoms: N5_23  and  N6_25 
REMARK    9  A    between atoms: N6_25  and  O4_27 
REMARK   10  A    between atoms: N7_29  and  N8_31 
REMARK   11  A    between atoms: N8_31  and  C9_33 
REMARK   12  A    between atoms: C11_40  and  N11_41 
REMARK       I    between atoms: N11_41  and  C12_43 
ROOT
HETATM    1  C8  UNL     1       0.949   1.807   0.454  1.00  0.00     0.184 C 
HETATM    2  N5  UNL     1       0.831   2.737  -0.415  1.00  0.00    -0.262 N 
ATOM      3  H5  UNL     1       1.574   3.431  -0.503  1.00  0.00     0.190 HD
ENDROOT
BRANCH   1   4
HETATM    4  C7  UNL     1      -0.130   0.807   0.576  1.00  0.00     0.182 A 
HETATM    5  N4  UNL     1      -0.046  -0.462   0.956  1.00  0.00    -0.264 N 
HETATM    6  N3  UNL     1      -1.272  -0.956   0.907  1.00  0.00    -0.002 NA
ATOM      7  H4  UNL     1       0.800  -0.960   1.232  1.00  0.00     0.186 HD
HETATM    8  N2  UNL     1      -2.137  -0.026   0.503  1.00  0.00    -0.206 N 
HETATM    9  N15 UNL     1      -1.408   1.057   0.305  1.00  0.00    -0.266 N 
ATOM     10  H15 UNL     1      -1.772   1.956  -0.010  1.00  0.00     0.190 HD
BRANCH   8  11
HETATM   11  C6  UNL     1      -3.568  -0.159   0.317  1.00  0.00     0.197 C 
HETATM   12  C2  UNL     1      -3.931  -1.452  -0.369  1.00  0.00     0.214 C 
HETATM   13  O1  UNL     1      -4.642  -1.248  -1.541  1.00  0.00    -0.341 OA
HETATM   14  C3  UNL     1      -5.794  -0.496  -1.350  1.00  0.00     0.289 C 
HETATM   15  C4  UNL     1      -5.515   0.849  -0.739  1.00  0.00     0.205 C 
HETATM   16  C5  UNL     1      -4.043   1.049  -0.460  1.00  0.00     0.246 C 
BRANCH  12  17
HETATM   17  S1  UNL     1      -4.828  -2.504   0.798  1.00  0.00    -0.139 SA
HETATM   18  C1  UNL     1      -4.976  -4.174   0.108  1.00  0.00     0.092 C 
ENDBRANCH  12  17
BRANCH  14  19
HETATM   19  O2  UNL     1      -6.771  -1.193  -0.626  1.00  0.00    -0.369 OA
ATOM     20  H2  UNL     1      -7.559  -0.679  -0.495  1.00  0.00     0.212 HD
ENDBRANCH  14  19
BRANCH  15  21
HETATM   21  O3  UNL     1      -5.945   1.901  -1.541  1.00  0.00    -0.388 OA
ATOM     22  H3  UNL     1      -5.769   2.751  -1.155  1.00  0.00     0.210 HD
ENDBRANCH  15  21
BRANCH  16  23
HETATM   23  N1  UNL     1      -3.834   2.213   0.354  1.00  0.00    -0.070 N 
ATOM     24  H13 UNL     1      -4.257   3.044  -0.059  1.00  0.00     0.274 HD
ATOM     25  H12 UNL     1      -4.380   2.175   1.215  1.00  0.00     0.274 HD
ATOM     26  H11 UNL     1      -2.841   2.348   0.542  1.00  0.00     0.274 HD
ENDBRANCH  16  23
ENDBRANCH   8  11
ENDBRANCH   1   4
BRANCH   1  27
HETATM   27  N7  UNL     1       2.056   1.662   1.324  1.00  0.00    -0.267 N 
ATOM     28  H7  UNL     1       2.298   2.398   1.988  1.00  0.00     0.189 HD
BRANCH  27  29
HETATM   29  N8  UNL     1       2.807   0.491   1.252  1.00  0.00    -0.130 N 
ATOM     30  H8  UNL     1       2.485  -0.365   1.704  1.00  0.00     0.205 HD
BRANCH  29  31
HETATM   31  C9  UNL     1       3.909   0.514   0.606  1.00  0.00     0.715 A 
HETATM   32  N9  UNL     1       4.389   1.605  -0.013  1.00  0.00    -0.139 N 
HETATM   33  C10 UNL     1       5.550   1.584  -0.683  1.00  0.00     0.352 A 
ATOM     34  H9  UNL     1       3.856   2.473   0.028  1.00  0.00     0.189 HD
HETATM   35  O5  UNL     1       5.971   2.605  -1.245  1.00  0.00    -0.246 OA
HETATM   36  N10 UNL     1       6.253   0.445  -0.740  1.00  0.00    -0.140 N 
HETATM   37  C11 UNL     1       5.803  -0.679  -0.129  1.00  0.00     0.703 A 
ATOM     38  H10 UNL     1       7.137   0.423  -1.249  1.00  0.00     0.189 HD
HETATM   39  N14 UNL     1       4.645  -0.626   0.530  1.00  0.00    -0.020 N 
ATOM     40  H14 UNL     1       4.301  -1.468   0.992  1.00  0.00     0.203 HD
BRANCH  37  41
HETATM   41  N11 UNL     1       6.478  -1.759  -0.189  1.00  0.00    -0.163 N 
HETATM   42  C12 UNL     1       7.707  -1.786  -0.901  1.00  0.00     0.200 C 
HETATM   43  N12 UNL     1       7.784  -2.236  -2.117  1.00  0.00    -0.373 N 
HETATM   44  N13 UNL     1       8.878  -1.311  -0.269  1.00  0.00    -0.063 NA
ATOM     45 2H12 UNL     1       6.939  -2.579  -2.573  1.00  0.00     0.158 HD
ATOM     46 1H12 UNL     1       8.666  -2.255  -2.628  1.00  0.00     0.158 HD
ATOM     47  H11 UNL     1       6.136  -2.602   0.273  1.00  0.00     0.187 HD
ENDBRANCH  37  41
ENDBRANCH  29  31
ENDBRANCH  27  29
ENDBRANCH   1  27
BRANCH   2  48
HETATM   48  N6  UNL     1      -0.274   2.828  -1.237  1.00  0.00    -0.208 N 
ATOM     49  H6  UNL     1      -0.553   2.019  -1.792  1.00  0.00     0.215 HD
BRANCH  48  50
HETATM   50  O4  UNL     1      -0.938   3.883  -1.313  1.00  0.00    -0.274 OA
ATOM     51  H4  UNL     1      -1.699   3.946  -1.879  1.00  0.00     0.246 HD
ENDBRANCH  48  50
ENDBRANCH   2  48
TORSDOF 12
