REMARK  16 active torsions:
REMARK  status: ('A' for Active; 'I' for Inactive)
REMARK    1  A    between atoms: N1_1  and  C1_5 
REMARK    2  A    between atoms: C1_5  and  C2_6 
REMARK    3  A    between atoms: C3_7  and  O1_8 
REMARK    4  A    between atoms: C4_10  and  O2_11 
REMARK    5  A    between atoms: C4_10  and  O3_13 
REMARK    6  A    between atoms: O3_13  and  C5_14 
REMARK       I    between atoms: C5_14  and  N2_16 
REMARK    7  A    between atoms: N3_19  and  C6_20 
REMARK    8  A    between atoms: C6_20  and  C7_21 
REMARK    9  A    between atoms: C8_22  and  O6_23 
REMARK   10  A    between atoms: C10_26  and  C11_27 
REMARK   11  A    between atoms: C11_27  and  O7_28 
REMARK   12  A    between atoms: O7_28  and  C12_29 
REMARK   13  A    between atoms: C12_29  and  C13_31 
REMARK   14  A    between atoms: C13_31  and  O9_32 
REMARK   15  A    between atoms: C13_31  and  C14_34 
REMARK   16  A    between atoms: C17_45  and  O11_46 
ROOT
HETATM    1  C5  UNL     1      -5.646   1.028  -1.733  1.00  0.00     0.469 C 
HETATM    2  O4  UNL     1      -6.527   1.563  -1.054  1.00  0.00    -0.218 OA
HETATM    3  N2  UNL     1      -5.797   0.418  -3.025  1.00  0.00    -0.213 NA
HETATM    4  O5  UNL     1      -5.922  -0.086  -4.094  1.00  0.00    -0.213 OA
ATOM      5  H5  UNL     1      -6.022  -0.489  -4.948  1.00  0.00     0.262 HD
ENDROOT
BRANCH   1   6
HETATM    6  O3  UNL     1      -4.367   1.042  -1.134  1.00  0.00    -0.230 OA
BRANCH   6   7
HETATM    7  C4  UNL     1      -4.178   1.635   0.127  1.00  0.00     0.287 C 
HETATM    8  C3  UNL     1      -4.937   1.104   1.284  1.00  0.00     0.228 C 
HETATM    9  C2  UNL     1      -3.618   1.241   2.024  1.00  0.00     0.150 C 
HETATM   10  N3  UNL     1      -2.925   1.415   0.784  1.00  0.00    -0.324 N 
BRANCH   8  11
HETATM   11  O1  UNL     1      -5.903   1.933   1.826  1.00  0.00    -0.386 OA
ATOM     12  H1  UNL     1      -6.728   1.847   1.363  1.00  0.00     0.210 HD
ENDBRANCH   8  11
BRANCH   9  13
HETATM   13  C1  UNL     1      -3.602   2.475   2.926  1.00  0.00     0.257 C 
BRANCH  13  14
HETATM   14  N1  UNL     1      -2.356   2.589   3.617  1.00  0.00    -0.077 N 
ATOM     15  H13 UNL     1      -2.136   1.740   4.137  1.00  0.00     0.274 HD
ATOM     16  H12 UNL     1      -1.566   2.585   2.971  1.00  0.00     0.274 HD
ATOM     17  H11 UNL     1      -2.345   3.412   4.219  1.00  0.00     0.274 HD
ENDBRANCH  13  14
ENDBRANCH   9  13
BRANCH  10  18
HETATM   18  C6  UNL     1      -1.592   1.436   0.295  1.00  0.00     0.108 C 
BRANCH  18  19
HETATM   19  C7  UNL     1      -0.800   0.459  -0.002  1.00  0.00     0.048 A 
HETATM   20  C8  UNL     1      -1.114  -0.874   0.104  1.00  0.00     0.081 A 
HETATM   21  C9  UNL     1      -0.181  -1.863  -0.214  1.00  0.00     0.053 A 
HETATM   22  C10 UNL     1       1.082  -1.552  -0.643  1.00  0.00     0.016 A 
HETATM   23  C16 UNL     1       1.387  -0.221  -0.748  1.00  0.00     0.092 A 
HETATM   24  N7  UNL     1       2.702   0.171  -1.196  1.00  0.00    -0.099 NA
HETATM   25  C17 UNL     1       0.498   0.769  -0.445  1.00  0.00     0.105 A 
BRANCH  20  26
HETATM   26  O6  UNL     1      -2.379  -1.245   0.530  1.00  0.00    -0.360 OA
ATOM     27  H6  UNL     1      -2.596  -2.167   0.603  1.00  0.00     0.217 HD
ENDBRANCH  20  26
BRANCH  22  28
HETATM   28  C11 UNL     1       1.979  -2.487  -0.925  1.00  0.00     0.159 C 
BRANCH  28  29
HETATM   29  O7  UNL     1       3.245  -2.118  -1.357  1.00  0.00    -0.288 OA
BRANCH  29  30
HETATM   30  C12 UNL     1       4.247  -3.041  -1.602  1.00  0.00     0.299 C 
HETATM   31  O8  UNL     1       3.920  -4.251  -1.391  1.00  0.00    -0.261 OA
BRANCH  30  32
HETATM   32  C13 UNL     1       5.607  -2.724  -2.067  1.00  0.00     0.286 C 
BRANCH  32  33
HETATM   33  O9  UNL     1       6.354  -3.898  -2.090  1.00  0.00    -0.378 OA
ATOM     34  H9  UNL     1       7.232  -3.693  -2.390  1.00  0.00     0.211 HD
ENDBRANCH  32  33
BRANCH  32  35
HETATM   35  C14 UNL     1       6.258  -1.751  -1.167  1.00  0.00     0.139 A 
HETATM   36  N4  UNL     1       6.506  -0.478  -1.482  1.00  0.00    -0.282 N 
HETATM   37  N5  UNL     1       7.082   0.077  -0.443  1.00  0.00    -0.250 N 
ATOM     38  H4  UNL     1       6.288  -0.021  -2.367  1.00  0.00     0.188 HD
HETATM   39  C15 UNL     1       7.212  -0.827   0.551  1.00  0.00     0.340 A 
ATOM     40  H5  UNL     1       7.387   1.049  -0.393  1.00  0.00     0.192 HD
HETATM   41  O10 UNL     1       7.716  -0.639   1.682  1.00  0.00    -0.245 OA
HETATM   42  N6  UNL     1       6.689  -1.966   0.076  1.00  0.00    -0.293 N 
ATOM     43  H6  UNL     1       6.631  -2.850   0.581  1.00  0.00     0.172 HD
ENDBRANCH  32  35
ENDBRANCH  30  32
ENDBRANCH  29  30
ENDBRANCH  28  29
ENDBRANCH  22  28
BRANCH  25  44
HETATM   44  O11 UNL     1       0.860   2.094  -0.569  1.00  0.00    -0.358 OA
ATOM     45  H11 UNL     1       1.737   2.303  -0.868  1.00  0.00     0.217 HD
ENDBRANCH  25  44
ENDBRANCH  18  19
ENDBRANCH  10  18
BRANCH   7  46
HETATM   46  O2  UNL     1      -4.415   3.024  -0.009  1.00  0.00    -0.346 OA
ATOM     47  H2  UNL     1      -3.929   3.364  -0.751  1.00  0.00     0.215 HD
ENDBRANCH   7  46
ENDBRANCH   6   7
ENDBRANCH   1   6
TORSDOF 16
