REMARK  11 active torsions:
REMARK  status: ('A' for Active; 'I' for Inactive)
REMARK    1  A    between atoms: N5_15  and  C6_16 
REMARK    2  A    between atoms: C7_18  and  N6_19 
REMARK    3  A    between atoms: C7_18  and  C8_23 
REMARK    4  A    between atoms: C8_23  and  O2_24 
REMARK    5  A    between atoms: O2_24  and  S1_25 
REMARK    6  A    between atoms: S1_25  and  N7_28 
REMARK       I    between atoms: N7_28  and  C9_30 
REMARK       I    between atoms: C9_30  and  N8_32 
REMARK    7  A    between atoms: N8_32  and  N9_33 
REMARK    8  A    between atoms: N8_32  and  C10_36 
REMARK    9  A    between atoms: C11_40  and  O6_41 
REMARK   10  A    between atoms: C12_43  and  O7_44 
REMARK   11  A    between atoms: C13_47  and  O9_48 
ROOT
HETATM    1  C6  UNL     1       3.556  -0.197  -0.252  1.00  0.00     0.267 C 
HETATM    2  O1  UNL     1       2.611   0.746  -0.665  1.00  0.00    -0.322 OA
HETATM    3  C7  UNL     1       2.231  -0.106  -1.684  1.00  0.00     0.279 C 
HETATM    4  C13 UNL     1       3.617  -0.715  -1.648  1.00  0.00     0.232 C 
ENDROOT
BRANCH   3   5
HETATM    5  N6  UNL     1       1.982   0.572  -2.958  1.00  0.00    -0.042 N 
ATOM      6  H63 UNL     1       1.298   1.319  -2.840  1.00  0.00     0.278 HD
ATOM      7  H62 UNL     1       2.793   1.125  -3.235  1.00  0.00     0.278 HD
ATOM      8  H61 UNL     1       1.701  -0.057  -3.710  1.00  0.00     0.278 HD
ENDBRANCH   3   5
BRANCH   3   9
HETATM    9  C8  UNL     1       1.098  -1.038  -1.309  1.00  0.00     0.263 C 
BRANCH   9  10
HETATM   10  O2  UNL     1      -0.048  -0.257  -1.211  1.00  0.00    -0.254 OA
BRANCH  10  11
HETATM   11  S1  UNL     1      -1.388  -1.162  -0.808  1.00  0.00     0.365 S 
HETATM   12  O3  UNL     1      -2.063  -1.725  -2.043  1.00  0.00    -0.175 OA
HETATM   13  O4  UNL     1      -0.973  -2.342   0.032  1.00  0.00    -0.175 OA
BRANCH  11  14
HETATM   14  N7  UNL     1      -2.507  -0.245   0.118  1.00  0.00    -0.211 N 
HETATM   15  C9  UNL     1      -3.880  -0.594   0.122  1.00  0.00     0.355 C 
HETATM   16  O5  UNL     1      -4.262  -1.599  -0.573  1.00  0.00    -0.244 OA
HETATM   17  N8  UNL     1      -4.825   0.133   0.866  1.00  0.00    -0.193 N 
ATOM     18  H7  UNL     1      -2.182   0.552   0.666  1.00  0.00     0.185 HD
BRANCH  17  19
HETATM   19  N9  UNL     1      -4.382   1.234   1.620  1.00  0.00    -0.335 N 
ATOM     20  H92 UNL     1      -3.400   1.509   1.637  1.00  0.00     0.177 HD
ATOM     21  H91 UNL     1      -5.068   1.762   2.160  1.00  0.00     0.177 HD
ENDBRANCH  17  19
BRANCH  17  22
HETATM   22  C10 UNL     1      -6.211  -0.255   0.842  1.00  0.00     0.459 C 
HETATM   23  N10 UNL     1      -7.053   0.849   0.435  1.00  0.00     0.002 N 
HETATM   24  C11 UNL     1      -8.373   0.421   0.842  1.00  0.00     0.379 C 
ATOM     25 2H10 UNL     1      -6.769   1.758   0.801  1.00  0.00     0.285 HD
ATOM     26 1H10 UNL     1      -6.973   1.104  -0.549  1.00  0.00     0.285 HD
HETATM   27  C12 UNL     1      -8.085  -0.608   1.892  1.00  0.00     0.318 C 
HETATM   28  O8  UNL     1      -6.698  -0.527   2.132  1.00  0.00    -0.307 OA
BRANCH  24  29
HETATM   29  O6  UNL     1      -9.122   1.476   1.362  1.00  0.00    -0.366 OA
ATOM     30  H6  UNL     1      -9.989   1.195   1.629  1.00  0.00     0.212 HD
ENDBRANCH  24  29
BRANCH  27  31
HETATM   31  O7  UNL     1      -8.420  -1.860   1.367  1.00  0.00    -0.367 OA
ATOM     32  H7  UNL     1      -8.237  -2.513   2.033  1.00  0.00     0.212 HD
ENDBRANCH  27  31
ENDBRANCH  17  22
ENDBRANCH  11  14
ENDBRANCH  10  11
ENDBRANCH   9  10
ENDBRANCH   3   9
BRANCH   4  33
HETATM   33  O9  UNL     1       4.433  -0.060  -2.549  1.00  0.00    -0.386 OA
ATOM     34  H9  UNL     1       4.472  -0.390  -3.439  1.00  0.00     0.210 HD
ENDBRANCH   4  33
BRANCH   1  35
HETATM   35  N5  UNL     1       4.744   0.406   0.276  1.00  0.00    -0.297 N 
HETATM   36  C3  UNL     1       6.054   0.129   0.085  1.00  0.00     0.142 A 
HETATM   37  N3  UNL     1       6.643  -0.810  -0.669  1.00  0.00    -0.336 N 
HETATM   38  C4  UNL     1       6.818   1.006   0.828  1.00  0.00     0.122 A 
HETATM   39  C2  UNL     1       7.979  -0.881  -0.689  1.00  0.00     0.183 A 
ATOM     40  H3  UNL     1       6.081  -1.460  -1.219  1.00  0.00     0.168 HD
HETATM   41  N2  UNL     1       8.723  -0.027   0.034  1.00  0.00    -0.337 N 
HETATM   42  C1  UNL     1       8.203   0.938   0.812  1.00  0.00     0.131 A 
ATOM     43  H2  UNL     1       9.738  -0.116  -0.010  1.00  0.00     0.168 HD
HETATM   44  N1  UNL     1       8.888   1.759   1.506  1.00  0.00    -0.383 N 
ATOM     45  H12 UNL     1       9.907   1.709   1.494  1.00  0.00     0.157 HD
ATOM     46  H11 UNL     1       8.493   2.491   2.096  1.00  0.00     0.157 HD
HETATM   47  N4  UNL     1       5.957   1.808   1.462  1.00  0.00    -0.346 N 
HETATM   48  C5  UNL     1       4.715   1.455   1.137  1.00  0.00     0.188 A 
ATOM     49  H4  UNL     1       6.211   2.568   2.093  1.00  0.00     0.167 HD
ENDBRANCH   1  35
TORSDOF 11
