REMARK  9 active torsions:
REMARK  status: ('A' for Active; 'I' for Inactive)
REMARK    1  A    between atoms: N1_4  and  C4_5 
REMARK    2  A    between atoms: C4_5  and  C5_6 
REMARK    3  A    between atoms: C10_15  and  N3_16 
REMARK    4  A    between atoms: N3_16  and  C11_18 
REMARK    5  A    between atoms: C11_18  and  O3_30 
REMARK       I    between atoms: N4_19  and  C12_21 
REMARK    6  A    between atoms: C12_21  and  O2_23 
REMARK    7  A    between atoms: O2_23  and  C13_24 
REMARK    8  A    between atoms: C13_24  and  C14_25 
REMARK    9  A    between atoms: O3_30  and  C19_31 
ROOT
HETATM    1  N3  UNL     1      -0.553  -0.050  -0.143  1.00  0.00    -0.351 N 
ATOM      2  H3  UNL     1      -0.474   0.913   0.183  1.00  0.00     0.163 HD
ENDROOT
BRANCH   1   3
HETATM    3  C10 UNL     1      -1.439  -0.316  -1.258  1.00  0.00     0.092 C 
HETATM    4  C2  UNL     1      -2.544  -1.276  -0.915  1.00  0.00     0.033 C 
HETATM    5  C1  UNL     1      -2.180  -2.701  -1.301  1.00  0.00     0.014 C 
HETATM    6  C3  UNL     1      -3.810  -0.830  -1.585  1.00  0.00     0.279 C 
HETATM    7  N1  UNL     1      -4.255   0.438  -1.052  1.00  0.00     0.093 N 
HETATM    8  C8  UNL     1      -3.238   1.434  -1.068  1.00  0.00     0.275 C 
HETATM    9  C9  UNL     1      -2.017   0.924  -1.843  1.00  0.00     0.056 C 
BRANCH   7  10
HETATM   10  C4  UNL     1      -4.924   0.224   0.176  1.00  0.00     0.321 C 
BRANCH  10  11
HETATM   11  C5  UNL     1      -5.423   1.496   0.765  1.00  0.00     0.050 A 
HETATM   12  S1  UNL     1      -5.333   3.114   0.226  1.00  0.00    -0.084 SA
HETATM   13  C6  UNL     1      -6.162   3.866   1.517  1.00  0.00     0.139 A 
HETATM   14  N2  UNL     1      -6.463   2.834   2.291  1.00  0.00    -0.350 N 
HETATM   15  C7  UNL     1      -6.109   1.638   1.945  1.00  0.00     0.118 A 
ATOM     16  H2  UNL     1      -6.975   2.982   3.161  1.00  0.00     0.166 HD
HETATM   17 CL1  UNL     1      -6.497   0.218   2.964  1.00  0.00    -0.063 Cl
ENDBRANCH  10  11
ENDBRANCH   7  10
ENDBRANCH   1   3
BRANCH   1  18
HETATM   18  C11 UNL     1       0.212  -1.041   0.525  1.00  0.00     0.224 C 
HETATM   19  N4  UNL     1       1.501  -1.015   0.507  1.00  0.00    -0.268 N 
HETATM   20  C12 UNL     1       2.129   0.042  -0.205  1.00  0.00     0.367 C 
ATOM     21  H4  UNL     1       2.050  -1.728   0.987  1.00  0.00     0.174 HD
HETATM   22  O1  UNL     1       2.071   0.061  -1.465  1.00  0.00    -0.238 OA
BRANCH  20  23
HETATM   23  O2  UNL     1       2.811   1.064   0.411  1.00  0.00    -0.303 OA
BRANCH  23  24
HETATM   24  C13 UNL     1       3.452   2.134  -0.208  1.00  0.00     0.185 C 
BRANCH  24  25
HETATM   25  C14 UNL     1       4.550   1.756  -1.148  1.00  0.00     0.010 C 
HETATM   26  C15 UNL     1       5.155   3.015  -1.745  1.00  0.00     0.007 C 
HETATM   27  C16 UNL     1       5.942   3.612  -0.586  1.00  0.00     0.000 C 
HETATM   28  C17 UNL     1       6.506   2.419   0.118  1.00  0.00     0.000 C 
HETATM   29  C18 UNL     1       5.764   1.203  -0.388  1.00  0.00     0.007 C 
ENDBRANCH  24  25
ENDBRANCH  23  24
ENDBRANCH  20  23
BRANCH  18  30
HETATM   30  O3  UNL     1      -0.368  -2.087   1.231  1.00  0.00    -0.312 OA
BRANCH  30  31
HETATM   31  C19 UNL     1       0.334  -3.213   1.653  1.00  0.00     0.060 C 
HETATM   32  C20 UNL     1       0.962  -4.034   0.579  1.00  0.00     0.046 C 
HETATM   33  C21 UNL     1      -0.691  -4.091   2.390  1.00  0.00     0.046 C 
HETATM   34  C22 UNL     1       1.391  -2.886   2.693  1.00  0.00     0.046 C 
ENDBRANCH  30  31
ENDBRANCH  18  30
ENDBRANCH   1  18
TORSDOF 9
