REMARK  4 active torsions:
REMARK  status: ('A' for Active; 'I' for Inactive)
REMARK    1  A    between atoms: N1_2  and  C2_4 
REMARK    2  A    between atoms: C5_9  and  N3_10 
REMARK    3  A    between atoms: N3_10  and  C6_12 
REMARK    4  A    between atoms: C17_28  and  O1_29 
ROOT
HETATM    1  O1  UNL     1      -3.314  -0.885   2.929  1.00  0.00    -0.221 OA
HETATM    2  C18 UNL     1      -3.010  -1.236   3.975  1.00  0.00     0.235 C 
HETATM    3  N6  UNL     1      -2.703  -1.569   5.023  1.00  0.00    -0.164 NA
ENDROOT
BRANCH   1   4
HETATM    4  C17 UNL     1      -3.756  -0.474   1.708  1.00  0.00     0.169 A 
HETATM    5  C13 UNL     1      -2.837  -0.141   0.689  1.00  0.00     0.025 A 
HETATM    6  C12 UNL     1      -1.413  -0.283   1.075  1.00  0.00     0.092 A 
HETATM    7  C14 UNL     1      -3.241   0.277  -0.553  1.00  0.00     0.047 A 
HETATM    8  C4  UNL     1      -0.456   0.024  -0.012  1.00  0.00     0.036 A 
HETATM    9  C3  UNL     1      -0.864   0.442  -1.259  1.00  0.00     0.133 A 
HETATM   10  C5  UNL     1       0.925  -0.116   0.224  1.00  0.00     0.132 A 
HETATM   11  N2  UNL     1       0.069   0.697  -2.201  1.00  0.00    -0.176 N 
HETATM   12  N7  UNL     1      -2.250   0.578  -1.554  1.00  0.00    -0.336 N 
HETATM   13  C2  UNL     1       1.408   0.561  -1.973  1.00  0.00     0.680 A 
ATOM     14  H2  UNL     1      -0.240   1.005  -3.123  1.00  0.00     0.186 HD
HETATM   15  N4  UNL     1       1.803   0.153  -0.754  1.00  0.00    -0.176 N 
ATOM     16  H4  UNL     1       2.800   0.045  -0.567  1.00  0.00     0.186 HD
HETATM   17  C19 UNL     1      -2.747   1.018  -2.815  1.00  0.00     0.158 C 
HETATM   18  C15 UNL     1      -4.586   0.369  -0.795  1.00  0.00     0.047 A 
HETATM   19  C16 UNL     1      -5.495   0.044   0.200  1.00  0.00     0.092 A 
HETATM   20  N5  UNL     1      -5.059  -0.361   1.400  1.00  0.00    -0.345 N 
ATOM     21  H5  UNL     1      -5.749  -0.595   2.114  1.00  0.00     0.167 HD
BRANCH  13  22
HETATM   22  N1  UNL     1       2.276   0.802  -2.877  1.00  0.00    -0.230 N 
HETATM   23  C1  UNL     1       1.962   1.236  -4.211  1.00  0.00     0.165 C 
ATOM     24  H1  UNL     1       3.260   0.678  -2.637  1.00  0.00     0.177 HD
ENDBRANCH  13  22
BRANCH  10  25
HETATM   25  N3  UNL     1       1.312  -0.499   1.387  1.00  0.00    -0.341 N 
ATOM     26  H3  UNL     1       0.576  -0.678   2.070  1.00  0.00     0.167 HD
BRANCH  25  27
HETATM   27  C6  UNL     1       2.624  -0.699   1.826  1.00  0.00     0.034 A 
HETATM   28  C7  UNL     1       3.097  -1.953   2.166  1.00  0.00     0.029 A 
HETATM   29  C8  UNL     1       4.410  -2.117   2.595  1.00  0.00     0.004 A 
HETATM   30  C9  UNL     1       5.261  -1.049   2.691  1.00  0.00     0.019 A 
HETATM   31  C10 UNL     1       4.811   0.200   2.359  1.00  0.00     0.013 A 
HETATM   32 BR1  UNL     1       6.014   1.662   2.492  1.00  0.00    -0.051 Br
HETATM   33  C11 UNL     1       3.514   0.346   1.938  1.00  0.00     0.048 A 
ENDBRANCH  25  27
ENDBRANCH  10  25
ENDBRANCH   1   4
TORSDOF 4
