REMARK  14 active torsions:
REMARK  status: ('A' for Active; 'I' for Inactive)
REMARK    1  A    between atoms: C2_2  and  C3_3 
REMARK    2  A    between atoms: C2_2  and  C15_27 
REMARK    3  A    between atoms: C3_3  and  C4_4 
REMARK    4  A    between atoms: C4_4  and  C5_5 
REMARK    5  A    between atoms: N2_10  and  C8_11 
REMARK    6  A    between atoms: C8_11  and  C9_12 
REMARK    7  A    between atoms: C9_12  and  C10_13 
REMARK    8  A    between atoms: C10_13  and  C11_14 
REMARK    9  A    between atoms: C11_14  and  C12_15 
REMARK   10  A    between atoms: C12_15  and  C13_16 
REMARK   11  A    between atoms: C13_16  and  C14_17 
REMARK   12  A    between atoms: C14_17  and  O1_18 
REMARK   13  A    between atoms: N3_20  and  O2_22 
REMARK   14  A    between atoms: C15_27  and  C16_28 
ROOT
HETATM    1  C5  UNL     1       1.643  -0.838  -0.871  1.00  0.00     0.145 C 
HETATM    2  N1  UNL     1       1.567  -2.126  -0.716  1.00  0.00    -0.378 N 
ATOM      3  H1  UNL     1       2.360  -2.660  -0.360  1.00  0.00     0.160 HD
HETATM    4  C6  UNL     1       0.306  -2.788  -1.069  1.00  0.00     0.141 C 
HETATM    5  C7  UNL     1      -0.794  -2.127  -0.282  1.00  0.00     0.155 C 
HETATM    6  N2  UNL     1      -1.148  -0.875  -0.845  1.00  0.00    -0.304 N 
HETATM    7  S1  UNL     1       0.193  -0.049  -1.489  1.00  0.00     0.276 S 
HETATM    8  O3  UNL     1       0.245   1.394  -1.099  1.00  0.00    -0.199 OA
HETATM    9  O4  UNL     1       0.199  -0.098  -3.006  1.00  0.00    -0.199 OA
ENDROOT
BRANCH   1  10
HETATM   10  C4  UNL     1       2.816  -0.039  -0.569  1.00  0.00     0.044 C 
BRANCH  10  11
HETATM   11  C3  UNL     1       3.927  -0.560  -0.098  1.00  0.00     0.010 C 
BRANCH  11  12
HETATM   12  C2  UNL     1       5.076   0.279   0.189  1.00  0.00    -0.060 C 
HETATM   13  C1  UNL     1       4.994   1.741  -0.059  1.00  0.00     0.048 C 
BRANCH  12  14
HETATM   14  C15 UNL     1       6.155  -0.298   0.665  1.00  0.00     0.037 C 
BRANCH  14  15
HETATM   15  C16 UNL     1       7.404   0.353   1.020  1.00  0.00     0.051 A 
HETATM   16  C17 UNL     1       8.681  -0.146   0.737  1.00  0.00     0.069 A 
HETATM   17  C18 UNL     1       9.588   0.726   1.243  1.00  0.00     0.096 A 
HETATM   18 BR1  UNL     1      11.490   0.517   1.129  1.00  0.00    -0.030 Br
HETATM   19  N4  UNL     1       8.909   1.730   1.819  1.00  0.00    -0.293 N 
HETATM   20  N5  UNL     1       7.619   1.503   1.684  1.00  0.00    -0.300 N 
ATOM     21  H4  UNL     1       9.324   2.537   2.285  1.00  0.00     0.187 HD
ATOM     22  H5  UNL     1       6.883   2.116   2.035  1.00  0.00     0.187 HD
ENDBRANCH  14  15
ENDBRANCH  12  14
ENDBRANCH  11  12
ENDBRANCH  10  11
ENDBRANCH   1  10
BRANCH   6  23
HETATM   23  C8  UNL     1      -2.342  -0.822  -1.616  1.00  0.00     0.135 C 
BRANCH  23  24
HETATM   24  C9  UNL     1      -3.218   0.364  -1.266  1.00  0.00     0.021 C 
BRANCH  24  25
HETATM   25  C10 UNL     1      -3.589   0.238   0.209  1.00  0.00     0.002 C 
BRANCH  25  26
HETATM   26  C11 UNL     1      -4.446   1.387   0.607  1.00  0.00     0.000 C 
BRANCH  26  27
HETATM   27  C12 UNL     1      -5.732   1.531  -0.128  1.00  0.00     0.008 C 
BRANCH  27  28
HETATM   28  C13 UNL     1      -6.679   0.373  -0.000  1.00  0.00     0.086 C 
BRANCH  28  29
HETATM   29  C14 UNL     1      -7.080   0.125   1.404  1.00  0.00     0.135 C 
HETATM   30  N3  UNL     1      -6.918  -1.045   1.928  1.00  0.00    -0.251 N 
ATOM     31  H3  UNL     1      -7.204  -1.186   2.897  1.00  0.00     0.196 HD
BRANCH  29  32
HETATM   32  O1  UNL     1      -7.643   1.143   2.194  1.00  0.00    -0.348 OA
ATOM     33  H1  UNL     1      -7.900   0.984   3.095  1.00  0.00     0.219 HD
ENDBRANCH  29  32
BRANCH  30  34
HETATM   34  O2  UNL     1      -6.381  -2.107   1.246  1.00  0.00    -0.288 OA
ATOM     35  H2  UNL     1      -6.262  -2.967   1.631  1.00  0.00     0.244 HD
ENDBRANCH  30  34
ENDBRANCH  28  29
ENDBRANCH  27  28
ENDBRANCH  26  27
ENDBRANCH  25  26
ENDBRANCH  24  25
ENDBRANCH  23  24
ENDBRANCH   6  23
TORSDOF 14
