REMARK  12 active torsions:
REMARK  status: ('A' for Active; 'I' for Inactive)
REMARK    1  A    between atoms: C4_4  and  S1_5 
REMARK    2  A    between atoms: S1_5  and  C5_8 
REMARK    3  A    between atoms: C7_10  and  O3_11 
REMARK    4  A    between atoms: O3_11  and  C8_12 
REMARK    5  A    between atoms: C8_12  and  C9_13 
REMARK    6  A    between atoms: C9_13  and  C10_14 
REMARK    7  A    between atoms: C10_14  and  O4_15 
REMARK    8  A    between atoms: O4_15  and  N1_16 
REMARK    9  A    between atoms: C12_21  and  C13_22 
REMARK   10  A    between atoms: C13_22  and  O5_23 
REMARK   11  A    between atoms: C13_22  and  N4_25 
REMARK   12  A    between atoms: N4_25  and  C14_27 
ROOT
HETATM    1  C5  UNL     1      -1.485  -1.652   1.041  1.00  0.00     0.088 A 
HETATM    2  C6  UNL     1      -0.574  -1.590   0.014  1.00  0.00     0.063 A 
HETATM    3  C7  UNL     1      -0.087  -0.388  -0.426  1.00  0.00     0.085 A 
HETATM    4  C12 UNL     1      -0.518   0.815   0.175  1.00  0.00     0.055 A 
HETATM    5  C18 UNL     1      -1.414   0.787   1.191  1.00  0.00    -0.021 A 
HETATM    6  C19 UNL     1      -1.879   2.003   1.899  1.00  0.00     0.051 C 
HETATM    7  C20 UNL     1      -1.883  -0.469   1.604  1.00  0.00     0.062 A 
HETATM    8 CL1  UNL     1      -3.054  -0.457   2.928  1.00  0.00    -0.082 Cl
ENDROOT
BRANCH   3   9
HETATM    9  O3  UNL     1       0.831  -0.367  -1.465  1.00  0.00    -0.350 OA
BRANCH   9  10
HETATM   10  C8  UNL     1       1.222  -1.594  -2.026  1.00  0.00     0.178 C 
BRANCH  10  11
HETATM   11  C9  UNL     1       2.211  -1.480  -3.135  1.00  0.00     0.055 C 
BRANCH  11  12
HETATM   12  C10 UNL     1       3.463  -0.820  -2.606  1.00  0.00     0.203 C 
BRANCH  12  13
HETATM   13  O4  UNL     1       3.969  -1.627  -1.568  1.00  0.00    -0.278 OA
BRANCH  13  14
HETATM   14  N1  UNL     1       5.086  -1.365  -0.845  1.00  0.00    -0.241 N 
HETATM   15  C11 UNL     1       5.074  -0.567   0.169  1.00  0.00     0.221 C 
HETATM   16  N2  UNL     1       6.310  -0.372   0.848  1.00  0.00    -0.065 NA
HETATM   17  N3  UNL     1       3.914   0.101   0.619  1.00  0.00    -0.065 NA
ATOM     18  H1  UNL     1       5.963  -1.813  -1.111  1.00  0.00     0.196 HD
ENDBRANCH  13  14
ENDBRANCH  12  13
ENDBRANCH  11  12
ENDBRANCH  10  11
ENDBRANCH   9  10
ENDBRANCH   3   9
BRANCH   4  19
HETATM   19  C13 UNL     1       0.076   2.004  -0.350  1.00  0.00     0.150 C 
BRANCH  19  20
HETATM   20  O5  UNL     1       1.223   1.889  -0.975  1.00  0.00    -0.346 OA
ATOM     21  H5  UNL     1       1.618   2.679  -1.324  1.00  0.00     0.219 HD
ENDBRANCH  19  20
BRANCH  19  22
HETATM   22  N4  UNL     1      -0.358   3.333  -0.327  1.00  0.00    -0.362 N 
ATOM     23  H4  UNL     1      -1.247   3.549   0.123  1.00  0.00     0.162 HD
BRANCH  22  24
HETATM   24  C14 UNL     1       0.416   4.433  -0.926  1.00  0.00     0.021 C 
HETATM   25  C15 UNL     1      -0.290   5.758  -0.756  1.00  0.00     0.037 C 
HETATM   26  C16 UNL     1       1.766   4.561  -0.223  1.00  0.00     0.037 C 
HETATM   27  C17 UNL     1       0.710   4.157  -2.376  1.00  0.00     0.037 C 
ENDBRANCH  22  24
ENDBRANCH  19  22
ENDBRANCH   4  19
BRANCH   1  28
HETATM   28  S1  UNL     1      -2.116  -3.162   1.615  1.00  0.00     0.198 S 
HETATM   29  O1  UNL     1      -1.801  -3.294   3.084  1.00  0.00    -0.218 OA
HETATM   30  O2  UNL     1      -1.528  -4.337   0.919  1.00  0.00    -0.218 OA
BRANCH  28  31
HETATM   31  C4  UNL     1      -3.859  -3.248   1.451  1.00  0.00     0.116 C 
HETATM   32  C2  UNL     1      -4.554  -4.330   1.689  1.00  0.00    -0.076 C 
HETATM   33  C1  UNL     1      -6.029  -4.305   1.522  1.00  0.00     0.043 C 
HETATM   34  C3  UNL     1      -3.954  -5.622   2.129  1.00  0.00     0.043 C 
ENDBRANCH  28  31
ENDBRANCH   1  28
TORSDOF 12
