REMARK  11 active torsions:
REMARK  status: ('A' for Active; 'I' for Inactive)
REMARK    1  A    between atoms: C2_2  and  N1_4 
REMARK    2  A    between atoms: N1_4  and  C4_7 
REMARK    3  A    between atoms: C4_7  and  C5_8 
REMARK    4  A    between atoms: C4_7  and  C20_35 
REMARK       I    between atoms: C5_8  and  N2_10 
REMARK    5  A    between atoms: C8_14  and  C9_15 
REMARK       I    between atoms: C9_15  and  N3_17 
REMARK    6  A    between atoms: N3_17  and  C10_19 
REMARK    7  A    between atoms: C10_19  and  C12_21 
REMARK    8  A    between atoms: C12_21  and  N4_22 
REMARK    9  A    between atoms: C12_21  and  C13_26 
REMARK   10  A    between atoms: C13_26  and  S2_27 
REMARK   11  A    between atoms: S2_27  and  C14_28 
ROOT
HETATM    1  C9  UNL     1       0.159  -1.587   1.918  1.00  0.00     0.241 C 
HETATM    2  O2  UNL     1       1.106  -1.953   2.670  1.00  0.00    -0.271 OA
HETATM    3  N3  UNL     1       0.507  -1.122   0.623  1.00  0.00    -0.353 N 
ATOM      4  H3  UNL     1      -0.232  -0.815  -0.009  1.00  0.00     0.163 HD
ENDROOT
BRANCH   1   5
HETATM    5  C8  UNL     1      -1.248  -1.657   2.416  1.00  0.00     0.189 C 
HETATM    6  N2  UNL     1      -2.228  -1.534   1.375  1.00  0.00    -0.327 N 
HETATM    7  C5  UNL     1      -3.064  -0.406   1.168  1.00  0.00     0.252 C 
HETATM    8  C6  UNL     1      -2.249  -2.725   0.563  1.00  0.00     0.200 C 
HETATM    9  O1  UNL     1      -2.955   0.631   1.921  1.00  0.00    -0.271 OA
HETATM   10  S1  UNL     1      -2.303  -3.960   1.934  1.00  0.00    -0.147 SA
HETATM   11  C7  UNL     1      -1.424  -2.951   3.159  1.00  0.00     0.110 C 
BRANCH   7  12
HETATM   12  C4  UNL     1      -4.104  -0.296   0.116  1.00  0.00     0.280 C 
BRANCH  12  13
HETATM   13  N1  UNL     1      -4.060   1.082  -0.349  1.00  0.00    -0.059 N 
ATOM     14  H12 UNL     1      -4.279   1.734   0.404  1.00  0.00     0.278 HD
ATOM     15  H11 UNL     1      -4.841   1.288  -0.972  1.00  0.00     0.278 HD
BRANCH  13  16
HETATM   16  C2  UNL     1      -2.793   1.402  -0.970  1.00  0.00     0.178 C 
HETATM   17  C1  UNL     1      -2.525   0.583  -2.206  1.00  0.00     0.039 C 
HETATM   18  C3  UNL     1      -2.853   2.852  -1.400  1.00  0.00     0.039 C 
ENDBRANCH  13  16
ENDBRANCH  12  13
BRANCH  12  19
HETATM   19  C20 UNL     1      -5.449  -0.488   0.769  1.00  0.00     0.017 C 
HETATM   20  C21 UNL     1      -5.708   0.408   1.944  1.00  0.00     0.012 C 
HETATM   21  C22 UNL     1      -5.709  -1.899   1.241  1.00  0.00     0.012 C 
ENDBRANCH  12  19
ENDBRANCH   7  12
ENDBRANCH   1   5
BRANCH   3  22
HETATM   22  C10 UNL     1       1.885  -1.072   0.175  1.00  0.00     0.111 C 
HETATM   23  C11 UNL     1       2.111  -1.966  -1.030  1.00  0.00     0.034 C 
BRANCH  22  24
HETATM   24  C12 UNL     1       2.275   0.358  -0.123  1.00  0.00     0.215 C 
BRANCH  24  25
HETATM   25  N4  UNL     1       1.470   0.954  -1.143  1.00  0.00    -0.072 N 
ATOM     26  H43 UNL     1       1.480   0.389  -1.992  1.00  0.00     0.274 HD
ATOM     27  H42 UNL     1       0.479   0.887  -0.911  1.00  0.00     0.274 HD
ATOM     28  H41 UNL     1       1.733   1.919  -1.344  1.00  0.00     0.274 HD
ENDBRANCH  24  25
BRANCH  24  29
HETATM   29  C13 UNL     1       3.768   0.405  -0.448  1.00  0.00     0.114 C 
BRANCH  29  30
HETATM   30  S2  UNL     1       4.285   2.102  -0.814  1.00  0.00    -0.128 SA
BRANCH  30  31
HETATM   31  C14 UNL     1       6.034   2.078  -1.175  1.00  0.00     0.002 A 
HETATM   32  C15 UNL     1       6.935   2.244  -0.147  1.00  0.00     0.018 A 
HETATM   33  C16 UNL     1       8.313   2.235  -0.374  1.00  0.00     0.003 A 
HETATM   34  C17 UNL     1       8.771   2.054  -1.657  1.00  0.00     0.024 A 
HETATM   35  C18 UNL     1       7.876   1.886  -2.701  1.00  0.00     0.035 A 
HETATM   36 CL1  UNL     1       8.539   1.663  -4.299  1.00  0.00    -0.084 Cl
HETATM   37  C19 UNL     1       6.503   1.897  -2.464  1.00  0.00     0.042 A 
ENDBRANCH  30  31
ENDBRANCH  29  30
ENDBRANCH  24  29
ENDBRANCH  22  24
ENDBRANCH   3  22
TORSDOF 11
