REMARK  10 active torsions:
REMARK  status: ('A' for Active; 'I' for Inactive)
REMARK    1  A    between atoms: C2_2  and  C12_20 
REMARK    2  A    between atoms: N1_3  and  N2_5 
REMARK       I    between atoms: N2_5  and  C3_7 
REMARK    3  A    between atoms: C3_7  and  C4_9 
REMARK    4  A    between atoms: C4_9  and  C5_10 
REMARK    5  A    between atoms: C5_10  and  C6_11 
REMARK    6  A    between atoms: C6_11  and  C7_12 
REMARK    7  A    between atoms: C7_12  and  C8_13 
REMARK    8  A    between atoms: C8_13  and  C9_14 
REMARK    9  A    between atoms: C9_14  and  C10_15 
REMARK   10  A    between atoms: C10_15  and  C11_16 
ROOT
HETATM    1  N2  UNL     1      -1.587   1.591   1.197  1.00  0.00    -0.270 N 
ATOM      2  H2  UNL     1      -1.603   1.612   2.217  1.00  0.00     0.190 HD
HETATM    3  C3  UNL     1      -0.329   1.618   0.528  1.00  0.00     0.235 C 
HETATM    4  O1  UNL     1      -0.248   1.594  -0.716  1.00  0.00    -0.272 OA
ENDROOT
BRANCH   3   5
HETATM    5  C4  UNL     1       0.901   1.675   1.340  1.00  0.00     0.104 C 
BRANCH   5   6
HETATM    6  C5  UNL     1       2.091   1.694   0.411  1.00  0.00     0.009 C 
BRANCH   6   7
HETATM    7  C6  UNL     1       3.361   1.753   1.225  1.00  0.00     0.000 C 
BRANCH   7   8
HETATM    8  C7  UNL     1       4.565   1.774   0.345  1.00  0.00     0.000 C 
BRANCH   8   9
HETATM    9  C8  UNL     1       4.632   0.549  -0.518  1.00  0.00     0.000 C 
BRANCH   9  10
HETATM   10  C9  UNL     1       4.700  -0.699   0.316  1.00  0.00     0.005 C 
BRANCH  10  11
HETATM   11  C10 UNL     1       4.772  -1.946  -0.554  1.00  0.00     0.044 C 
BRANCH  11  12
HETATM   12  C11 UNL     1       5.984  -1.867  -1.399  1.00  0.00     0.052 C 
HETATM   13  N3  UNL     1       6.005  -2.450  -2.522  1.00  0.00    -0.411 N 
ATOM     14  H32 UNL     1       5.182  -2.968  -2.829  1.00  0.00     0.155 HD
ATOM     15  H31 UNL     1       6.841  -2.396  -3.105  1.00  0.00     0.155 HD
ENDBRANCH  11  12
ENDBRANCH  10  11
ENDBRANCH   9  10
ENDBRANCH   8   9
ENDBRANCH   7   8
ENDBRANCH   6   7
ENDBRANCH   5   6
ENDBRANCH   3   5
BRANCH   1  16
HETATM   16  N1  UNL     1      -2.796   1.537   0.507  1.00  0.00    -0.306 N 
HETATM   17  C2  UNL     1      -3.409   0.416   0.416  1.00  0.00     0.004 C 
HETATM   18  C1  UNL     1      -2.814  -0.785   1.046  1.00  0.00     0.065 C 
ATOM     19  H1  UNL     1      -3.187   2.377   0.081  1.00  0.00     0.186 HD
BRANCH  17  20
HETATM   20  C12 UNL     1      -4.711   0.318  -0.317  1.00  0.00     0.032 C 
HETATM   21  C13 UNL     1      -4.624  -0.649  -1.474  1.00  0.00     0.010 C 
HETATM   22  C14 UNL     1      -5.942  -1.394  -1.415  1.00  0.00     0.001 C 
HETATM   23  C15 UNL     1      -6.272  -1.456   0.045  1.00  0.00     0.001 C 
HETATM   24  C16 UNL     1      -5.839  -0.107   0.562  1.00  0.00     0.010 C 
ENDBRANCH  17  20
ENDBRANCH   1  16
TORSDOF 10
