REMARK  12 active torsions:
REMARK  status: ('A' for Active; 'I' for Inactive)
REMARK    1  A    between atoms: C2_2  and  C3_3 
REMARK    2  A    between atoms: C3_3  and  C4_4 
REMARK    3  A    between atoms: C4_4  and  C5_5 
REMARK    4  A    between atoms: C5_5  and  C6_6 
REMARK    5  A    between atoms: C8_9  and  C9_10 
REMARK    6  A    between atoms: C9_10  and  C10_11 
REMARK    7  A    between atoms: C11_12  and  C12_13 
REMARK    8  A    between atoms: C12_13  and  C13_14 
REMARK    9  A    between atoms: C13_14  and  C14_15 
REMARK   10  A    between atoms: C14_15  and  C15_16 
REMARK   11  A    between atoms: C15_16  and  O2_17 
REMARK   12  A    between atoms: N1_19  and  O3_21 
ROOT
HETATM    1  C10 UNL     1       1.797  -0.832  -0.789  1.00  0.00    -0.028 C 
HETATM    2  C11 UNL     1       3.038  -0.512  -0.608  1.00  0.00    -0.031 C 
ENDROOT
BRANCH   1   3
HETATM    3  C9  UNL     1       0.680  -0.361   0.011  1.00  0.00     0.059 C 
BRANCH   3   4
HETATM    4  C8  UNL     1      -0.340   0.417  -0.844  1.00  0.00     0.125 C 
HETATM    5  O1  UNL     1      -0.835  -0.388  -1.831  1.00  0.00    -0.385 OA
HETATM    6  C7  UNL     1      -2.188  -0.608  -1.605  1.00  0.00     0.172 C 
HETATM    7  C6  UNL     1      -2.389  -0.387  -0.141  1.00  0.00     0.012 C 
HETATM    8  C16 UNL     1      -1.464   0.780   0.105  1.00  0.00     0.039 C 
BRANCH   7   9
HETATM    9  C5  UNL     1      -3.785  -0.171   0.289  1.00  0.00     0.007 C 
BRANCH   9  10
HETATM   10  C4  UNL     1      -4.452   1.017  -0.333  1.00  0.00     0.004 C 
BRANCH  10  11
HETATM   11  C3  UNL     1      -5.878   1.197   0.136  1.00  0.00     0.026 C 
BRANCH  11  12
HETATM   12  C2  UNL     1      -6.732   0.034  -0.181  1.00  0.00    -0.037 C 
HETATM   13  C1  UNL     1      -7.356  -0.680   0.731  1.00  0.00     0.007 C 
ENDBRANCH  11  12
ENDBRANCH  10  11
ENDBRANCH   9  10
ENDBRANCH   7   9
ENDBRANCH   3   4
ENDBRANCH   1   3
BRANCH   2  14
HETATM   14  C12 UNL     1       3.536   0.384   0.436  1.00  0.00     0.027 C 
BRANCH  14  15
HETATM   15  C13 UNL     1       4.498  -0.355   1.323  1.00  0.00     0.012 C 
BRANCH  15  16
HETATM   16  C14 UNL     1       5.658  -0.884   0.575  1.00  0.00     0.086 C 
BRANCH  16  17
HETATM   17  C15 UNL     1       6.453   0.158  -0.062  1.00  0.00     0.135 C 
HETATM   18  N1  UNL     1       7.628   0.494   0.407  1.00  0.00    -0.251 N 
ATOM     19  H1  UNL     1       8.174   1.225  -0.049  1.00  0.00     0.196 HD
BRANCH  17  20
HETATM   20  O2  UNL     1       6.030   0.840  -1.170  1.00  0.00    -0.348 OA
ATOM     21  H2  UNL     1       6.548   1.519  -1.585  1.00  0.00     0.219 HD
ENDBRANCH  17  20
BRANCH  18  22
HETATM   22  O3  UNL     1       8.116  -0.143   1.511  1.00  0.00    -0.288 OA
ATOM     23  H3  UNL     1       8.969   0.101   1.851  1.00  0.00     0.244 HD
ENDBRANCH  18  22
ENDBRANCH  16  17
ENDBRANCH  15  16
ENDBRANCH  14  15
ENDBRANCH   2  14
TORSDOF 12
