REMARK  7 active torsions:
REMARK  status: ('A' for Active; 'I' for Inactive)
REMARK    1  A    between atoms: C9_11  and  C10_12 
REMARK    2  A    between atoms: C10_12  and  C11_13 
REMARK    3  A    between atoms: C11_13  and  C12_14 
REMARK    4  A    between atoms: C12_14  and  C13_15 
REMARK    5  A    between atoms: C13_15  and  O2_18 
REMARK    6  A    between atoms: C17_21  and  C18_22 
REMARK    7  A    between atoms: C18_22  and  O3_23 
ROOT
HETATM    1  C1  UNL     1      -2.519   2.894  -0.964  1.00  0.00     0.077 C 
HETATM    2  C2  UNL     1      -1.181   2.323  -0.653  1.00  0.00     0.057 A 
HETATM    3  O1  UNL     1       0.008   2.838  -0.872  1.00  0.00    -0.312 OA
HETATM    4  C3  UNL     1       0.956   2.034  -0.457  1.00  0.00     0.108 A 
HETATM    5  C4  UNL     1       2.340   2.187  -0.496  1.00  0.00     0.078 A 
HETATM    6 CL1  UNL     1       3.033   3.634  -1.178  1.00  0.00    -0.081 Cl
HETATM    7  C5  UNL     1       3.167   1.233  -0.011  1.00  0.00     0.001 A 
HETATM    8  C6  UNL     1       2.572   0.081   0.533  1.00  0.00    -0.044 A 
HETATM    9  C7  UNL     1       1.211  -0.062   0.567  1.00  0.00     0.022 A 
HETATM   10  C8  UNL     1       0.374   0.917   0.070  1.00  0.00     0.009 A 
HETATM   11  C9  UNL     1      -0.986   1.101  -0.054  1.00  0.00    -0.016 A 
HETATM   12  C16 UNL     1       3.405  -1.033   1.098  1.00  0.00     0.073 C 
HETATM   13  C17 UNL     1       4.814  -0.982   0.618  1.00  0.00     0.150 C 
HETATM   14  O4  UNL     1       5.016  -0.068  -0.414  1.00  0.00    -0.374 OA
HETATM   15  C19 UNL     1       4.611   1.220   0.032  1.00  0.00     0.153 C 
HETATM   16  C20 UNL     1       5.408   2.290  -0.561  1.00  0.00     0.045 C 
ENDROOT
BRANCH  11  17
HETATM   17  C10 UNL     1      -2.028   0.121   0.394  1.00  0.00     0.042 C 
BRANCH  17  18
HETATM   18  C11 UNL     1      -2.551  -0.558  -0.828  1.00  0.00     0.008 C 
BRANCH  18  19
HETATM   19  C12 UNL     1      -3.605  -1.583  -0.602  1.00  0.00     0.037 C 
BRANCH  19  20
HETATM   20  C13 UNL     1      -4.855  -1.105   0.050  1.00  0.00     0.051 C 
HETATM   21  C14 UNL     1      -5.565  -0.030  -0.724  1.00  0.00     0.045 C 
HETATM   22  C15 UNL     1      -5.803  -2.315   0.091  1.00  0.00     0.045 C 
BRANCH  20  23
HETATM   23  O2  UNL     1      -4.704  -0.712   1.369  1.00  0.00    -0.391 OA
ATOM     24  H2  UNL     1      -5.502  -0.407   1.785  1.00  0.00     0.210 HD
ENDBRANCH  20  23
ENDBRANCH  19  20
ENDBRANCH  18  19
ENDBRANCH  17  18
ENDBRANCH  11  17
BRANCH  13  25
HETATM   25  C18 UNL     1       5.340  -2.318   0.141  1.00  0.00     0.196 C 
BRANCH  25  26
HETATM   26  O3  UNL     1       4.707  -2.782  -0.990  1.00  0.00    -0.398 OA
ATOM     27  H3  UNL     1       5.037  -3.621  -1.290  1.00  0.00     0.209 HD
ENDBRANCH  25  26
ENDBRANCH  13  25
TORSDOF 7
