REMARK  9 active torsions:
REMARK  status: ('A' for Active; 'I' for Inactive)
REMARK    1  A    between atoms: C1_2  and  C2_4 
REMARK    2  A    between atoms: C4_7  and  O4_8 
REMARK    3  A    between atoms: O4_8  and  C5_9 
REMARK    4  A    between atoms: C6_10  and  O5_11 
REMARK    5  A    between atoms: C7_13  and  O6_14 
REMARK    6  A    between atoms: C8_16  and  O7_17 
REMARK    7  A    between atoms: O7_17  and  C9_18 
REMARK    8  A    between atoms: C14_23  and  O8_24 
REMARK    9  A    between atoms: C15_26  and  O9_27 
ROOT
HETATM    1  C5  UNL     1       1.111   0.205  -0.315  1.00  0.00     0.189 C 
HETATM    2  C6  UNL     1       0.409  -0.689  -1.311  1.00  0.00     0.181 C 
HETATM    3  C7  UNL     1      -1.009  -0.297  -1.562  1.00  0.00     0.181 C 
HETATM    4  C8  UNL     1      -1.659   0.139  -0.268  1.00  0.00     0.184 C 
HETATM    5  C14 UNL     1      -0.975   1.380   0.258  1.00  0.00     0.181 C 
HETATM    6  C15 UNL     1       0.414   1.546  -0.290  1.00  0.00     0.181 C 
ENDROOT
BRANCH   1   7
HETATM    7  O4  UNL     1       2.458   0.348  -0.590  1.00  0.00    -0.328 OA
BRANCH   7   8
HETATM    8  C4  UNL     1       3.259  -0.087   0.487  1.00  0.00     0.418 C 
HETATM    9  O3  UNL     1       4.030   0.975   0.958  1.00  0.00    -0.308 OA
HETATM   10  C3  UNL     1       5.354   0.750   1.310  1.00  0.00     0.156 C 
HETATM   11  C2  UNL     1       6.017  -0.126   0.561  1.00  0.00     0.064 C 
HETATM   12  C16 UNL     1       5.215  -0.735  -0.558  1.00  0.00     0.221 C 
HETATM   13  O10 UNL     1       4.014  -1.149   0.008  1.00  0.00    -0.334 OA
BRANCH  11  14
HETATM   14  C1  UNL     1       7.390  -0.464   0.799  1.00  0.00     0.209 C 
HETATM   15  O1  UNL     1       7.968  -1.292   0.066  1.00  0.00    -0.644 OA
HETATM   16  O2  UNL     1       8.092   0.115   1.833  1.00  0.00    -0.644 OA
ENDBRANCH  11  14
ENDBRANCH   7   8
ENDBRANCH   1   7
BRANCH   2  17
HETATM   17  O5  UNL     1       1.073  -0.689  -2.553  1.00  0.00    -0.390 OA
ATOM     18  H5  UNL     1       0.632  -1.251  -3.179  1.00  0.00     0.210 HD
ENDBRANCH   2  17
BRANCH   6  19
HETATM   19  O9  UNL     1       1.111   2.378   0.614  1.00  0.00    -0.390 OA
ATOM     20  H9  UNL     1       0.673   3.221   0.630  1.00  0.00     0.210 HD
ENDBRANCH   6  19
BRANCH   3  21
HETATM   21  O6  UNL     1      -1.135   0.622  -2.576  1.00  0.00    -0.390 OA
ATOM     22  H6  UNL     1      -2.038   0.872  -2.736  1.00  0.00     0.210 HD
ENDBRANCH   3  21
BRANCH   5  23
HETATM   23  O8  UNL     1      -0.882   1.309   1.643  1.00  0.00    -0.390 OA
ATOM     24  H8  UNL     1      -0.452   2.089   1.974  1.00  0.00     0.210 HD
ENDBRANCH   5  23
BRANCH   4  25
HETATM   25  O7  UNL     1      -3.000   0.454  -0.450  1.00  0.00    -0.375 OA
BRANCH  25  26
HETATM   26  C9  UNL     1      -3.842  -0.356   0.301  1.00  0.00     0.122 C 
HETATM   27  C10 UNL     1      -4.727   0.440   1.239  1.00  0.00     0.032 C 
HETATM   28  C11 UNL     1      -6.008  -0.375   1.393  1.00  0.00     0.002 C 
HETATM   29  C12 UNL     1      -5.872  -1.529   0.414  1.00  0.00     0.002 C 
HETATM   30  C13 UNL     1      -4.893  -1.003  -0.607  1.00  0.00     0.032 C 
ENDBRANCH  25  26
ENDBRANCH   4  25
TORSDOF 9
