REMARK  11 active torsions:
REMARK  status: ('A' for Active; 'I' for Inactive)
REMARK    1  A    between atoms: C2_2  and  C13_16 
REMARK    2  A    between atoms: C3_3  and  C4_4 
REMARK    3  A    between atoms: C4_4  and  C5_5 
REMARK    4  A    between atoms: C5_5  and  C6_6 
REMARK    5  A    between atoms: C6_6  and  C8_8 
REMARK    6  A    between atoms: C8_8  and  N1_9 
REMARK    7  A    between atoms: N1_9  and  C9_12 
REMARK    8  A    between atoms: C9_12  and  C10_13 
REMARK    9  A    between atoms: C13_16  and  C14_17 
REMARK   10  A    between atoms: C14_17  and  C15_18 
REMARK   11  A    between atoms: C15_18  and  C16_19 
ROOT
HETATM    1  C1  UNL     1       1.599  -2.160  -1.278  1.00  0.00     0.048 C 
HETATM    2  C2  UNL     1       0.708  -1.158  -0.596  1.00  0.00    -0.062 C 
HETATM    3  C3  UNL     1       1.211  -0.043   0.099  1.00  0.00     0.007 C 
ENDROOT
BRANCH   2   4
HETATM    4  C13 UNL     1      -0.613  -1.375  -0.692  1.00  0.00     0.006 C 
BRANCH   4   5
HETATM    5  C14 UNL     1      -1.629  -0.551  -0.120  1.00  0.00    -0.003 C 
BRANCH   5   6
HETATM    6  C15 UNL     1      -2.935  -0.825  -0.257  1.00  0.00    -0.021 C 
BRANCH   6   7
HETATM    7  C16 UNL     1      -3.987  -0.008   0.312  1.00  0.00     0.022 C 
HETATM    8  C17 UNL     1      -5.045   0.508  -0.648  1.00  0.00     0.010 C 
HETATM    9  C18 UNL     1      -6.060  -0.516  -0.867  1.00  0.00    -0.038 C 
HETATM   10  C25 UNL     1      -5.953   1.216   0.328  1.00  0.00    -0.038 C 
HETATM   11  C19 UNL     1      -5.980  -1.962  -1.120  1.00  0.00     0.015 C 
HETATM   12  C20 UNL     1      -6.988   0.047  -1.886  1.00  0.00     0.015 C 
HETATM   13  C21 UNL     1      -6.207  -0.227   0.638  1.00  0.00     0.010 C 
HETATM   14  C22 UNL     1      -4.927  -0.664   1.288  1.00  0.00    -0.035 C 
HETATM   15  C23 UNL     1      -4.912  -0.022   2.681  1.00  0.00     0.016 C 
HETATM   16  C24 UNL     1      -4.669  -2.093   1.521  1.00  0.00     0.016 C 
HETATM   17  C26 UNL     1      -7.299   1.784   0.059  1.00  0.00     0.015 C 
HETATM   18  C27 UNL     1      -5.249   2.236   1.070  1.00  0.00     0.015 C 
ENDBRANCH   6   7
ENDBRANCH   5   6
ENDBRANCH   4   5
ENDBRANCH   2   4
BRANCH   3  19
HETATM   19  C4  UNL     1       2.393   0.386   0.338  1.00  0.00     0.001 C 
BRANCH  19  20
HETATM   20  C5  UNL     1       3.660  -0.157  -0.039  1.00  0.00     0.004 C 
BRANCH  20  21
HETATM   21  C6  UNL     1       4.811   0.475   0.326  1.00  0.00    -0.059 C 
HETATM   22  C7  UNL     1       4.710   1.720   1.113  1.00  0.00     0.045 C 
BRANCH  21  23
HETATM   23  C8  UNL     1       6.114  -0.086  -0.060  1.00  0.00     0.266 C 
BRANCH  23  24
HETATM   24  N1  UNL     1       6.880   0.815  -0.876  1.00  0.00    -0.071 N 
ATOM     25  H12 UNL     1       6.347   1.100  -1.697  1.00  0.00     0.277 HD
ATOM     26  H11 UNL     1       6.981   1.720  -0.417  1.00  0.00     0.277 HD
BRANCH  24  27
HETATM   27  C9  UNL     1       8.156   0.296  -1.257  1.00  0.00     0.236 C 
BRANCH  27  28
HETATM   28  C10 UNL     1       9.105   0.167  -0.089  1.00  0.00     0.003 C 
HETATM   29  C11 UNL     1      10.418  -0.395  -0.645  1.00  0.00     0.011 C 
HETATM   30  C12 UNL     1       9.373   1.496   0.574  1.00  0.00     0.011 C 
ENDBRANCH  27  28
ENDBRANCH  24  27
ENDBRANCH  23  24
ENDBRANCH  21  23
ENDBRANCH  20  21
ENDBRANCH  19  20
ENDBRANCH   3  19
TORSDOF 11
