REMARK  5 active torsions:
REMARK  status: ('A' for Active; 'I' for Inactive)
REMARK    1  A    between atoms: C2_2  and  C3_3 
REMARK    2  A    between atoms: C4_4  and  C5_5 
REMARK    3  A    between atoms: C5_5  and  C6_6 
REMARK    4  A    between atoms: C16_22  and  C17_23 
REMARK    5  A    between atoms: C17_23  and  C20_26 
ROOT
HETATM    1  C6  UNL     1       1.008   0.396  -0.158  1.00  0.00     0.133 C 
HETATM    2  O1  UNL     1       2.174  -0.287  -0.040  1.00  0.00    -0.349 OA
HETATM    3  C7  UNL     1       2.217  -1.098   1.072  1.00  0.00     0.334 C 
HETATM    4  O2  UNL     1       3.534  -1.545   1.227  1.00  0.00    -0.293 OA
HETATM    5  C8  UNL     1       3.442  -2.870   1.657  1.00  0.00     0.337 C 
HETATM    6  C9  UNL     1       4.678  -3.382   2.313  1.00  0.00     0.120 C 
HETATM    7  O3  UNL     1       2.365  -2.935   2.542  1.00  0.00    -0.166 OA
HETATM    8  O4  UNL     1       1.276  -3.086   1.817  1.00  0.00    -0.187 OA
HETATM    9  C10 UNL     1       1.392  -2.318   0.637  1.00  0.00     0.282 C 
HETATM   10  O5  UNL     1       2.242  -3.056  -0.186  1.00  0.00    -0.187 OA
HETATM   11  O6  UNL     1       3.110  -3.716   0.589  1.00  0.00    -0.166 OA
HETATM   12  C11 UNL     1       0.095  -1.933   0.029  1.00  0.00     0.066 C 
HETATM   13  C12 UNL     1       0.053  -2.451  -1.385  1.00  0.00     0.011 C 
HETATM   14  C13 UNL     1       0.029  -1.378  -2.416  1.00  0.00     0.005 C 
HETATM   15  C14 UNL     1      -1.111  -0.412  -2.217  1.00  0.00    -0.013 C 
HETATM   16  C15 UNL     1      -0.799   0.788  -3.089  1.00  0.00     0.010 C 
HETATM   17  C16 UNL     1      -1.373  -0.048  -0.758  1.00  0.00     0.005 C 
HETATM   18  C24 UNL     1      -0.241  -0.460   0.123  1.00  0.00     0.030 C 
ENDROOT
BRANCH  17  19
HETATM   19  C17 UNL     1      -2.779  -0.138  -0.368  1.00  0.00    -0.037 C 
HETATM   20  C18 UNL     1      -3.384  -1.531  -0.531  1.00  0.00     0.016 C 
HETATM   21  C19 UNL     1      -3.670   0.645  -1.375  1.00  0.00     0.016 C 
BRANCH  19  22
HETATM   22  C20 UNL     1      -3.217   0.387   0.962  1.00  0.00    -0.044 C 
HETATM   23  C21 UNL     1      -4.743   0.256   1.142  1.00  0.00     0.015 C 
HETATM   24  C22 UNL     1      -2.982   1.852   1.160  1.00  0.00     0.015 C 
HETATM   25  C23 UNL     1      -2.750  -0.408   2.163  1.00  0.00     0.015 C 
ENDBRANCH  19  22
ENDBRANCH  17  19
BRANCH   1  26
HETATM   26  C5  UNL     1       1.125   1.551   0.855  1.00  0.00     0.059 C 
BRANCH  26  27
HETATM   27  C4  UNL     1       2.297   2.335   0.454  1.00  0.00    -0.028 C 
HETATM   28  C3  UNL     1       2.248   3.619   0.118  1.00  0.00    -0.031 C 
BRANCH  28  29
HETATM   29  C2  UNL     1       3.460   4.373  -0.281  1.00  0.00     0.022 C 
HETATM   30  C1  UNL     1       4.697   3.503  -0.249  1.00  0.00     0.009 C 
ENDBRANCH  28  29
ENDBRANCH  26  27
ENDBRANCH   1  26
TORSDOF 5
