REMARK  4 active torsions:
REMARK  status: ('A' for Active; 'I' for Inactive)
REMARK    1  A    between atoms: C2_2  and  C3_3 
REMARK    2  A    between atoms: C5_5  and  C6_6 
REMARK    3  A    between atoms: C7_7  and  C8_8 
REMARK    4  A    between atoms: C18_18  and  O1_19 
ROOT
HETATM    1  C8  UNL     1       0.256   0.538  -0.350  1.00  0.00     0.076 C 
HETATM    2  C9  UNL     1       0.838   0.728  -1.763  1.00  0.00     0.050 C 
HETATM    3  C10 UNL     1      -0.367   1.809   0.100  1.00  0.00     0.042 C 
HETATM    4  C11 UNL     1      -1.701   1.698   0.754  1.00  0.00     0.011 C 
HETATM    5  C12 UNL     1      -2.447   0.608   0.015  1.00  0.00     0.030 C 
HETATM    6  C13 UNL     1      -3.897   0.569   0.299  1.00  0.00    -0.041 C 
HETATM    7  C14 UNL     1      -4.276   0.561   1.741  1.00  0.00     0.015 C 
HETATM    8  C15 UNL     1      -4.513   1.840  -0.310  1.00  0.00     0.015 C 
HETATM    9  C16 UNL     1      -4.508  -0.586  -0.457  1.00  0.00     0.012 C 
HETATM   10  C17 UNL     1      -3.473  -1.296  -1.314  1.00  0.00     0.035 C 
HETATM   11  C18 UNL     1      -2.429  -1.844  -0.399  1.00  0.00     0.152 C 
HETATM   12  C19 UNL     1      -1.688  -0.648   0.221  1.00  0.00     0.089 C 
HETATM   13  C20 UNL     1      -1.477  -1.013   1.676  1.00  0.00     0.049 C 
HETATM   14  O2  UNL     1      -0.479  -0.577  -0.379  1.00  0.00    -0.363 OA
ENDROOT
BRANCH   1  15
HETATM   15  C7  UNL     1       1.445   0.307   0.517  1.00  0.00     0.010 C 
HETATM   16  C6  UNL     1       2.628  -0.055   0.055  1.00  0.00    -0.001 C 
BRANCH  16  17
HETATM   17  C5  UNL     1       3.773  -0.274   0.925  1.00  0.00     0.002 C 
HETATM   18  C3  UNL     1       4.938  -0.633   0.439  1.00  0.00    -0.084 C 
HETATM   19  C4  UNL     1       5.072  -0.815  -1.028  1.00  0.00     0.043 C 
BRANCH  18  20
HETATM   20  C2  UNL     1       6.127  -0.868   1.279  1.00  0.00     0.029 C 
HETATM   21  C1  UNL     1       7.216   0.074   0.866  1.00  0.00     0.010 C 
ENDBRANCH  18  20
ENDBRANCH  16  17
ENDBRANCH   1  15
BRANCH  11  22
HETATM   22  O1  UNL     1      -1.526  -2.678  -1.061  1.00  0.00    -0.393 OA
ATOM     23  H1  UNL     1      -0.861  -3.027  -0.479  1.00  0.00     0.210 HD
ENDBRANCH  11  22
TORSDOF 4
