REMARK  8 active torsions:
REMARK  status: ('A' for Active; 'I' for Inactive)
REMARK    1  A    between atoms: C3_4  and  C4_5 
REMARK    2  A    between atoms: C4_5  and  C5_6 
REMARK    3  A    between atoms: C5_6  and  C6_7 
REMARK    4  A    between atoms: C6_7  and  N1_8 
REMARK    5  A    between atoms: N1_8  and  C7_11 
REMARK    6  A    between atoms: C7_11  and  C8_12 
REMARK    7  A    between atoms: C8_12  and  N2_13 
REMARK    8  A    between atoms: N2_13  and  C9_15 
ROOT
HETATM    1  C7  UNL     1       0.588  -2.465   0.387  1.00  0.00     0.251 C 
ENDROOT
BRANCH   1   2
HETATM    2  N1  UNL     1       0.964  -1.134   0.699  1.00  0.00    -0.074 N 
ATOM      3  H12 UNL     1       0.946  -0.977   1.707  1.00  0.00     0.277 HD
ATOM      4  H11 UNL     1       0.239  -0.475   0.415  1.00  0.00     0.277 HD
BRANCH   2   5
HETATM    5  C6  UNL     1       2.253  -0.762   0.138  1.00  0.00     0.232 C 
BRANCH   5   6
HETATM    6  C5  UNL     1       2.218  -0.672  -1.365  1.00  0.00     0.033 C 
BRANCH   6   7
HETATM    7  C4  UNL     1       3.586  -0.286  -1.876  1.00  0.00     0.060 C 
BRANCH   7   8
HETATM    8  C3  UNL     1       4.070   1.002  -1.382  1.00  0.00     0.029 A 
HETATM    9  C2  UNL     1       3.924   2.257  -1.901  1.00  0.00     0.070 A 
HETATM   10  C1  UNL     1       4.565   3.136  -1.061  1.00  0.00     0.119 A 
HETATM   11 CL1  UNL     1       4.685   4.887  -1.263  1.00  0.00    -0.063 Cl
HETATM   12  N5  UNL     1       5.092   2.417  -0.047  1.00  0.00    -0.290 N 
HETATM   13  N4  UNL     1       4.791   1.148  -0.249  1.00  0.00    -0.304 N 
ATOM     14  H5  UNL     1       5.628   2.789   0.737  1.00  0.00     0.188 HD
ATOM     15  H4  UNL     1       5.065   0.382   0.366  1.00  0.00     0.186 HD
ENDBRANCH   7   8
ENDBRANCH   6   7
ENDBRANCH   5   6
ENDBRANCH   2   5
ENDBRANCH   1   2
BRANCH   1  16
HETATM   16  C8  UNL     1      -0.759  -2.867   0.921  1.00  0.00     0.147 C 
BRANCH  16  17
HETATM   17  N2  UNL     1      -1.851  -2.083   0.441  1.00  0.00    -0.386 N 
ATOM     18  H2  UNL     1      -2.349  -2.467  -0.362  1.00  0.00     0.159 HD
BRANCH  17  19
HETATM   19  C9  UNL     1      -2.333  -0.859   0.922  1.00  0.00     0.056 A 
HETATM   20  C10 UNL     1      -1.910  -0.310   2.108  1.00  0.00     0.031 A 
HETATM   21  C11 UNL     1      -2.429   0.879   2.572  1.00  0.00     0.003 A 
HETATM   22  C12 UNL     1      -3.394   1.524   1.821  1.00  0.00     0.014 A 
HETATM   23  C13 UNL     1      -3.837   0.983   0.615  1.00  0.00    -0.007 A 
HETATM   24  C14 UNL     1      -4.802   1.615  -0.148  1.00  0.00     0.015 A 
HETATM   25  C17 UNL     1      -3.315  -0.205   0.157  1.00  0.00     0.069 A 
HETATM   26  C15 UNL     1      -5.225   1.050  -1.349  1.00  0.00     0.018 A 
HETATM   27  C16 UNL     1      -4.682  -0.143  -1.781  1.00  0.00     0.088 A 
HETATM   28  N3  UNL     1      -3.755  -0.715  -1.012  1.00  0.00    -0.363 N 
ATOM     29  H3  UNL     1      -3.352  -1.597  -1.329  1.00  0.00     0.165 HD
ENDBRANCH  17  19
ENDBRANCH  16  17
ENDBRANCH   1  16
TORSDOF 8
