REMARK  9 active torsions:
REMARK  status: ('A' for Active; 'I' for Inactive)
REMARK    1  A    between atoms: N1_1  and  C1_5 
REMARK    2  A    between atoms: C1_5  and  C2_6 
REMARK    3  A    between atoms: C2_6  and  C3_7 
REMARK    4  A    between atoms: C2_6  and  N2_11 
REMARK    5  A    between atoms: C3_7  and  C4_8 
REMARK    6  A    between atoms: N2_11  and  C5_13 
REMARK    7  A    between atoms: C9_19  and  N4_20 
REMARK    8  A    between atoms: N4_20  and  N5_22 
REMARK    9  A    between atoms: N5_22  and  C10_24 
ROOT
HETATM    1  C5  UNL     1      -0.649   0.918   0.924  1.00  0.00     0.072 A 
HETATM    2  C6  UNL     1      -0.909   1.962   1.772  1.00  0.00     0.119 A 
HETATM    3  N3  UNL     1       0.030   2.652   2.485  1.00  0.00    -0.373 N 
ATOM      4  H3  UNL     1      -0.241   3.421   3.098  1.00  0.00     0.164 HD
HETATM    5  C7  UNL     1       1.311   2.296   2.361  1.00  0.00     0.090 A 
HETATM    6  C8  UNL     1       1.679   1.253   1.533  1.00  0.00     0.050 A 
HETATM    7  C9  UNL     1       0.731   0.572   0.827  1.00  0.00     0.077 A 
ENDROOT
BRANCH   1   8
HETATM    8  N2  UNL     1      -1.535   0.221   0.108  1.00  0.00    -0.380 N 
ATOM      9  H2  UNL     1      -1.062  -0.347  -0.594  1.00  0.00     0.160 HD
BRANCH   8  10
HETATM   10  C2  UNL     1      -2.927   0.124   0.034  1.00  0.00     0.117 C 
BRANCH  10  11
HETATM   11  C1  UNL     1      -3.338  -0.842  -1.107  1.00  0.00     0.255 C 
BRANCH  11  12
HETATM   12  N1  UNL     1      -2.525  -2.046  -1.096  1.00  0.00    -0.077 N 
ATOM     13  H13 UNL     1      -1.530  -1.826  -1.131  1.00  0.00     0.274 HD
ATOM     14  H12 UNL     1      -2.551  -2.507  -0.187  1.00  0.00     0.274 HD
ATOM     15  H11 UNL     1      -2.795  -2.681  -1.847  1.00  0.00     0.274 HD
ENDBRANCH  11  12
ENDBRANCH  10  11
BRANCH  10  16
HETATM   16  C3  UNL     1      -3.773   1.329  -0.044  1.00  0.00     0.139 C 
BRANCH  16  17
HETATM   17  C4  UNL     1      -5.217   0.953   0.178  1.00  0.00     0.174 C 
HETATM   18  O1  UNL     1      -5.528  -0.184   0.589  1.00  0.00    -0.648 OA
HETATM   19  O2  UNL     1      -6.242   1.852  -0.064  1.00  0.00    -0.648 OA
ENDBRANCH  16  17
ENDBRANCH  10  16
ENDBRANCH   8  10
ENDBRANCH   1   8
BRANCH   7  20
HETATM   20  N4  UNL     1       1.056  -0.567   0.030  1.00  0.00    -0.297 N 
ATOM     21  H4  UNL     1       0.490  -1.412   0.103  1.00  0.00     0.187 HD
BRANCH  20  22
HETATM   22  N5  UNL     1       2.116  -0.536  -0.828  1.00  0.00    -0.285 N 
ATOM     23  H5  UNL     1       1.885  -0.338  -1.802  1.00  0.00     0.188 HD
BRANCH  22  24
HETATM   24  C10 UNL     1       3.483  -0.739  -0.560  1.00  0.00     0.119 A 
HETATM   25  C11 UNL     1       3.855  -1.903   0.126  1.00  0.00     0.051 A 
HETATM   26  C12 UNL     1       5.199  -2.099   0.362  1.00  0.00     0.029 A 
HETATM   27  C13 UNL     1       6.178  -1.220  -0.036  1.00  0.00     0.049 A 
HETATM   28 CL1  UNL     1       7.872  -1.533   0.285  1.00  0.00    -0.083 Cl
HETATM   29  C14 UNL     1       5.742  -0.084  -0.711  1.00  0.00     0.113 A 
HETATM   30  N6  UNL     1       4.442   0.110  -0.942  1.00  0.00    -0.350 N 
ATOM     31  H6  UNL     1       4.164   0.956  -1.439  1.00  0.00     0.166 HD
ENDBRANCH  22  24
ENDBRANCH  20  22
ENDBRANCH   7  20
TORSDOF 9
