REMARK  7 active torsions:
REMARK  status: ('A' for Active; 'I' for Inactive)
REMARK    1  A    between atoms: C2_3  and  C3_4 
REMARK    2  A    between atoms: C3_4  and  N2_5 
REMARK    3  A    between atoms: N2_5  and  C4_6 
REMARK    4  A    between atoms: N2_5  and  C12_14 
REMARK    5  A    between atoms: C4_6  and  C5_7 
REMARK    6  A    between atoms: C5_7  and  C6_8 
REMARK    7  A    between atoms: C12_14  and  C13_15 
ROOT
HETATM    1  N1  UNL     1      -2.680   4.312  -1.093  1.00  0.00    -0.197 NA
HETATM    2  C1  UNL     1      -2.124   3.605  -0.343  1.00  0.00     0.064 C 
HETATM    3  C2  UNL     1      -1.423   2.695   0.581  1.00  0.00     0.168 C 
ENDROOT
BRANCH   3   4
HETATM    4  C3  UNL     1      -1.584   1.308  -0.014  1.00  0.00     0.082 C 
BRANCH   4   5
HETATM    5  N2  UNL     1      -0.972   0.289   0.731  1.00  0.00    -0.348 N 
BRANCH   5   6
HETATM    6  C4  UNL     1       0.434   0.252   0.814  1.00  0.00     0.073 C 
BRANCH   6   7
HETATM    7  C5  UNL     1       1.018  -0.095  -0.542  1.00  0.00     0.083 C 
BRANCH   7   8
HETATM    8  C6  UNL     1       2.494  -0.127  -0.392  1.00  0.00    -0.053 A 
HETATM    9  C7  UNL     1       3.157  -1.296  -0.038  1.00  0.00     0.007 A 
HETATM   10  C8  UNL     1       4.539  -1.309   0.102  1.00  0.00     0.001 A 
HETATM   11  C9  UNL     1       5.235  -0.132  -0.120  1.00  0.00     0.000 A 
HETATM   12  C10 UNL     1       4.581   1.021  -0.469  1.00  0.00     0.001 A 
HETATM   13  C11 UNL     1       3.195   1.033  -0.608  1.00  0.00     0.007 A 
ENDBRANCH   7   8
ENDBRANCH   6   7
ENDBRANCH   5   6
BRANCH   5  14
HETATM   14  C12 UNL     1      -1.738  -0.564   1.530  1.00  0.00     0.114 C 
BRANCH  14  15
HETATM   15  C13 UNL     1      -2.699  -1.364   0.690  1.00  0.00     0.020 A 
HETATM   16  C14 UNL     1      -2.796  -1.480  -0.666  1.00  0.00     0.021 A 
HETATM   17  C15 UNL     1      -3.764  -2.282  -1.160  1.00  0.00     0.008 A 
HETATM   18  C16 UNL     1      -4.572  -2.915  -0.260  1.00  0.00     0.050 A 
HETATM   19  S1  UNL     1      -3.974  -2.388   1.241  1.00  0.00    -0.101 SA
ENDBRANCH  14  15
ENDBRANCH   5  14
ENDBRANCH   4   5
ENDBRANCH   3   4
TORSDOF 7
