REMARK  5 active torsions:
REMARK  status: ('A' for Active; 'I' for Inactive)
REMARK    1  A    between atoms: C2_2  and  O1_3 
REMARK    2  A    between atoms: O1_3  and  C3_4 
REMARK       I    between atoms: C3_4  and  N1_6 
REMARK    3  A    between atoms: N1_6  and  O3_8 
REMARK    4  A    between atoms: O3_8  and  C5_9 
REMARK    5  A    between atoms: C5_9  and  C6_11 
ROOT
HETATM    1  C3  UNL     1       2.057  -0.091   0.448  1.00  0.00     0.386 C 
HETATM    2  O2  UNL     1       2.332  -1.274   0.725  1.00  0.00    -0.236 OA
HETATM    3  N1  UNL     1       0.778   0.216  -0.060  1.00  0.00    -0.199 N 
HETATM    4  C4  UNL     1       0.497   1.612  -0.368  1.00  0.00     0.191 C 
ENDROOT
BRANCH   3   5
HETATM    5  O3  UNL     1      -0.191  -0.711  -0.269  1.00  0.00    -0.223 OA
BRANCH   5   6
HETATM    6  C5  UNL     1      -1.242  -0.536  -1.106  1.00  0.00     0.150 C 
HETATM    7  S1  UNL     1      -0.912  -0.417  -2.723  1.00  0.00    -0.054 SA
BRANCH   6   8
HETATM    8  C6  UNL     1      -2.656  -0.441  -0.707  1.00  0.00     0.011 C 
HETATM    9  C7  UNL     1      -3.013  -1.805  -0.099  1.00  0.00     0.022 C 
HETATM   10  C8  UNL     1      -2.931   0.629   0.322  1.00  0.00     0.022 C 
HETATM   11  C9  UNL     1      -3.556  -0.264  -1.906  1.00  0.00     0.022 C 
ENDBRANCH   6   8
ENDBRANCH   5   6
ENDBRANCH   3   5
BRANCH   1  12
HETATM   12  O1  UNL     1       2.999   0.886   0.641  1.00  0.00    -0.303 OA
BRANCH  12  13
HETATM   13  C2  UNL     1       4.300   0.658   1.146  1.00  0.00     0.176 C 
HETATM   14  C1  UNL     1       5.108  -0.288   0.297  1.00  0.00     0.034 C 
ENDBRANCH  12  13
ENDBRANCH   1  12
TORSDOF 5
