REMARK  3 active torsions:
REMARK  status: ('A' for Active; 'I' for Inactive)
REMARK    1  A    between atoms: N1_2  and  N2_3 
REMARK       I    between atoms: N1_2  and  C6_10 
REMARK    2  A    between atoms: C6_10  and  O3_12 
REMARK    3  A    between atoms: O3_12  and  C7_13 
ROOT
HETATM    1  C1  UNL     1       0.697   1.421  -0.728  1.00  0.00     0.183 C 
HETATM    2  N1  UNL     1       0.462   0.037  -0.384  1.00  0.00    -0.239 N 
HETATM    3  C6  UNL     1      -0.854  -0.425  -0.059  1.00  0.00     0.382 C 
HETATM    4  O2  UNL     1      -1.108  -1.597   0.242  1.00  0.00    -0.236 OA
ENDROOT
BRANCH   2   5
HETATM    5  N2  UNL     1       1.490  -0.914  -0.349  1.00  0.00    -0.277 N 
HETATM    6  C2  UNL     1       2.740  -0.565  -0.288  1.00  0.00     0.132 C 
HETATM    7  C3  UNL     1       3.887  -1.482  -0.246  1.00  0.00     0.087 C 
HETATM    8  O1  UNL     1       3.176   0.731  -0.252  1.00  0.00    -0.338 OA
HETATM    9  C4  UNL     1       5.056  -0.602   0.149  1.00  0.00     0.035 C 
HETATM   10  C5  UNL     1       4.584   0.812  -0.134  1.00  0.00     0.177 C 
ATOM     11  H2  UNL     1       1.251  -1.905  -0.372  1.00  0.00     0.189 HD
ENDBRANCH   2   5
BRANCH   3  12
HETATM   12  O3  UNL     1      -1.898   0.483  -0.082  1.00  0.00    -0.293 OA
BRANCH  12  13
HETATM   13  C7  UNL     1      -3.245   0.096   0.231  1.00  0.00     0.061 C 
HETATM   14  C8  UNL     1      -4.076   1.356   0.094  1.00  0.00     0.046 C 
HETATM   15  C9  UNL     1      -3.762  -0.908  -0.770  1.00  0.00     0.046 C 
HETATM   16  C10 UNL     1      -3.345  -0.458   1.620  1.00  0.00     0.046 C 
ENDBRANCH  12  13
ENDBRANCH   3  12
TORSDOF 3
