REMARK  9 active torsions:
REMARK  status: ('A' for Active; 'I' for Inactive)
REMARK    1  A    between atoms: C3_4  and  O1_5 
REMARK    2  A    between atoms: C4_7  and  O2_8 
REMARK    3  A    between atoms: C5_10  and  O3_11 
REMARK    4  A    between atoms: C6_13  and  N2_14 
REMARK    5  A    between atoms: N2_14  and  N3_16 
REMARK    6  A    between atoms: N3_16  and  N4_17 
REMARK    7  A    between atoms: C7_20  and  C8_21 
REMARK    8  A    between atoms: C8_21  and  N5_22 
REMARK    9  A    between atoms: N5_22  and  N6_24 
ROOT
HETATM    1  C1  UNL     1       0.706  -3.487   0.516  1.00  0.00     0.221 C 
HETATM    2  N1  UNL     1       0.371  -2.433   0.171  1.00  0.00    -0.463 NA
HETATM    3  C2  UNL     1      -0.075  -1.159  -0.241  1.00  0.00     0.200 C 
HETATM    4  C3  UNL     1      -1.416  -0.854   0.383  1.00  0.00     0.185 C 
HETATM    5  C4  UNL     1      -1.434   0.305   1.324  1.00  0.00     0.180 C 
HETATM    6  C5  UNL     1      -0.900   1.573   0.689  1.00  0.00     0.175 C 
HETATM    7  C6  UNL     1       0.167   1.252  -0.328  1.00  0.00     0.154 C 
HETATM    8  C7  UNL     1       0.872  -0.055   0.086  1.00  0.00     0.071 C 
ENDROOT
BRANCH   4   9
HETATM    9  O1  UNL     1      -2.448  -0.801  -0.556  1.00  0.00    -0.390 OA
ATOM     10  H1  UNL     1      -3.292  -0.609  -0.163  1.00  0.00     0.210 HD
ENDBRANCH   4   9
BRANCH   8  11
HETATM   11  C8  UNL     1       2.179  -0.144  -0.660  1.00  0.00     0.151 C 
BRANCH  11  12
HETATM   12  N5  UNL     1       2.834  -1.375  -0.322  1.00  0.00    -0.322 N 
ATOM     13  H5  UNL     1       2.456  -2.260  -0.660  1.00  0.00     0.181 HD
BRANCH  12  14
HETATM   14  N6  UNL     1       3.858  -1.369   0.380  1.00  0.00    -0.254 N 
HETATM   15  N7  UNL     1       4.490  -1.654   1.420  1.00  0.00    -0.331 N 
ATOM     16  H72 UNL     1       3.779  -2.147   1.961  1.00  0.00     0.178 HD
ATOM     17  H71 UNL     1       5.331  -1.649   1.997  1.00  0.00     0.178 HD
ATOM     18  H6  UNL     1       4.541  -0.871  -0.191  1.00  0.00     0.207 HD
ENDBRANCH  12  14
ENDBRANCH  11  12
ENDBRANCH   8  11
BRANCH   5  19
HETATM   19  O2  UNL     1      -2.758   0.531   1.697  1.00  0.00    -0.390 OA
ATOM     20  H2  UNL     1      -2.769   1.268   2.296  1.00  0.00     0.210 HD
ENDBRANCH   5  19
BRANCH   7  21
HETATM   21  N2  UNL     1      -0.351   1.028  -1.657  1.00  0.00    -0.245 N 
ATOM     22  H2  UNL     1      -1.023   0.271  -1.785  1.00  0.00     0.197 HD
BRANCH  21  23
HETATM   23  N3  UNL     1      -0.039   1.683  -2.636  1.00  0.00    -0.248 NA
BRANCH  23  24
HETATM   24  N4  UNL     1       0.061   2.544  -3.497  1.00  0.00    -0.261 N 
ATOM     25  H42 UNL     1      -0.631   3.148  -3.054  1.00  0.00     0.193 HD
ATOM     26  H41 UNL     1       0.322   3.092  -4.316  1.00  0.00     0.193 HD
ENDBRANCH  23  24
ENDBRANCH  21  23
ENDBRANCH   7  21
BRANCH   6  27
HETATM   27  O3  UNL     1      -1.919   2.374   0.182  1.00  0.00    -0.391 OA
ATOM     28  H3  UNL     1      -1.584   3.169  -0.216  1.00  0.00     0.210 HD
ENDBRANCH   6  27
TORSDOF 9
