REMARK  3 active torsions:
REMARK  status: ('A' for Active; 'I' for Inactive)
REMARK    1  A    between atoms: C2_2  and  C3_3 
REMARK    2  A    between atoms: C3_3  and  C4_4 
REMARK    3  A    between atoms: C4_4  and  N1_5 
REMARK       I    between atoms: N1_5  and  C5_7 
REMARK       I    between atoms: C5_7  and  N2_9 
ROOT
HETATM    1  N1  UNL     1       2.130  -0.200   0.285  1.00  0.00    -0.343 N 
ATOM      2  H1  UNL     1       1.924   0.791   0.415  1.00  0.00     0.164 HD
HETATM    3  C5  UNL     1       1.078  -1.146   0.149  1.00  0.00     0.318 C 
HETATM    4  O1  UNL     1       1.373  -2.367  -0.011  1.00  0.00    -0.247 OA
HETATM    5  N2  UNL     1      -0.255  -0.699   0.195  1.00  0.00    -0.331 N 
HETATM    6  C6  UNL     1      -1.329  -1.659   0.052  1.00  0.00     0.155 C 
HETATM    7  C7  UNL     1      -2.437  -0.936  -0.681  1.00  0.00     0.257 C 
HETATM    8  N3  UNL     1      -2.993   0.179  -0.003  1.00  0.00    -0.064 N 
HETATM    9  C8  UNL     1      -3.536   1.078  -1.040  1.00  0.00     0.237 C 
HETATM   10  C9  UNL     1      -4.766   0.366  -1.505  1.00  0.00     0.029 C 
HETATM   11  C10 UNL     1      -5.240  -0.429  -0.313  1.00  0.00     0.029 C 
HETATM   12  C11 UNL     1      -4.190  -0.144   0.751  1.00  0.00     0.237 C 
HETATM   13  C12 UNL     1      -2.035   0.865   0.788  1.00  0.00     0.257 C 
HETATM   14  C13 UNL     1      -0.590   0.674   0.380  1.00  0.00     0.155 C 
ENDROOT
BRANCH   1  15
HETATM   15  C4  UNL     1       3.497  -0.667   0.236  1.00  0.00     0.124 C 
BRANCH  15  16
HETATM   16  C3  UNL     1       4.484   0.472   0.397  1.00  0.00     0.019 C 
BRANCH  16  17
HETATM   17  C2  UNL     1       5.901  -0.057   0.341  1.00  0.00    -0.003 C 
HETATM   18  C1  UNL     1       6.874   1.090   0.502  1.00  0.00     0.005 C 
ENDBRANCH  16  17
ENDBRANCH  15  16
ENDBRANCH   1  15
TORSDOF 3
