REMARK  11 active torsions:
REMARK  status: ('A' for Active; 'I' for Inactive)
REMARK    1  A    between atoms: C3_3  and  N2_32 
REMARK    2  A    between atoms: C4_4  and  C5_5 
REMARK    3  A    between atoms: C5_5  and  C6_6 
REMARK    4  A    between atoms: C6_6  and  C7_7 
REMARK    5  A    between atoms: C7_7  and  C8_8 
REMARK    6  A    between atoms: C8_8  and  C9_9 
REMARK    7  A    between atoms: C9_9  and  C10_10 
REMARK    8  A    between atoms: C15_15  and  C16_16 
REMARK    9  A    between atoms: C17_17  and  C18_18 
REMARK   10  A    between atoms: C20_20  and  C21_21 
REMARK   11  A    between atoms: N2_32  and  S1_34 
ROOT
HETATM    1  C1  UNL     1       6.391   1.984   2.112  1.00  0.00     0.019 C 
HETATM    2  C2  UNL     1       5.880   1.902   1.017  1.00  0.00    -0.059 C 
HETATM    3  C3  UNL     1       5.268   1.779  -0.274  1.00  0.00     0.091 C 
HETATM    4  C4  UNL     1       4.391   0.822  -0.494  1.00  0.00     0.013 C 
ENDROOT
BRANCH   3   5
HETATM    5  N2  UNL     1       5.644   2.714  -1.270  1.00  0.00    -0.277 N 
ATOM      6  H2  UNL     1       4.988   3.452  -1.527  1.00  0.00     0.179 HD
BRANCH   5   7
HETATM    7  S1  UNL     1       7.176   2.646  -2.063  1.00  0.00     0.227 S 
HETATM    8  C28 UNL     1       8.459   2.859  -0.836  1.00  0.00     0.186 C 
HETATM    9  O2  UNL     1       7.318   1.349  -2.797  1.00  0.00    -0.206 OA
HETATM   10  O3  UNL     1       7.328   3.767  -3.042  1.00  0.00    -0.206 OA
ENDBRANCH   5   7
ENDBRANCH   3   5
BRANCH   4  11
HETATM   11  C5  UNL     1       3.701   0.615  -1.805  1.00  0.00     0.030 C 
BRANCH  11  12
HETATM   12  C6  UNL     1       3.990  -0.734  -2.353  1.00  0.00     0.004 C 
BRANCH  12  13
HETATM   13  C7  UNL     1       3.600  -1.842  -1.482  1.00  0.00     0.000 C 
BRANCH  13  14
HETATM   14  C8  UNL     1       2.232  -2.152  -1.106  1.00  0.00     0.002 C 
BRANCH  14  15
HETATM   15  C9  UNL     1       1.382  -1.173  -0.371  1.00  0.00     0.025 C 
BRANCH  15  16
HETATM   16  C10 UNL     1       0.063  -1.899  -0.087  1.00  0.00     0.086 C 
HETATM   17  C11 UNL     1      -0.913  -1.010   0.637  1.00  0.00     0.044 C 
HETATM   18  C12 UNL     1      -2.274  -1.718   0.486  1.00  0.00     0.014 C 
HETATM   19  C13 UNL     1      -2.567  -1.805  -0.972  1.00  0.00     0.025 C 
HETATM   20  C14 UNL     1      -3.338  -0.867   1.119  1.00  0.00    -0.067 C 
HETATM   21  C26 UNL     1      -2.195  -3.024   1.163  1.00  0.00     0.024 C 
HETATM   22  C15 UNL     1      -3.627   0.313   0.592  1.00  0.00     0.004 C 
HETATM   23  C22 UNL     1      -4.029  -1.382   2.302  1.00  0.00     0.039 C 
HETATM   24  C23 UNL     1      -4.485  -2.839   2.040  1.00  0.00     0.039 C 
HETATM   25  C24 UNL     1      -3.163  -3.568   1.873  1.00  0.00    -0.071 C 
HETATM   26  C25 UNL     1      -2.978  -4.889   2.522  1.00  0.00     0.044 C 
HETATM   27  C27 UNL     1      -0.941  -3.819   1.044  1.00  0.00     0.249 C 
HETATM   28  O1  UNL     1      -0.896  -5.047   1.195  1.00  0.00    -0.268 OA
HETATM   29  N1  UNL     1       0.245  -3.063   0.735  1.00  0.00    -0.352 N 
ATOM     30  H1  UNL     1       1.164  -3.339   1.081  1.00  0.00     0.163 HD
BRANCH  22  31
HETATM   31  C16 UNL     1      -4.614   1.202   1.107  1.00  0.00     0.001 C 
HETATM   32  C17 UNL     1      -5.011   2.367   0.714  1.00  0.00     0.006 C 
BRANCH  32  33
HETATM   33  C18 UNL     1      -4.636   3.228  -0.372  1.00  0.00    -0.065 C 
HETATM   34  C19 UNL     1      -3.574   2.850  -1.367  1.00  0.00     0.048 C 
HETATM   35  C20 UNL     1      -5.210   4.408  -0.559  1.00  0.00    -0.005 C 
BRANCH  35  36
HETATM   36  C21 UNL     1      -6.262   4.985   0.274  1.00  0.00     0.142 C 
HETATM   37 CL1  UNL     1      -7.747   5.271  -0.703  1.00  0.00    -0.126 Cl
ENDBRANCH  35  36
ENDBRANCH  32  33
ENDBRANCH  22  31
ENDBRANCH  15  16
ENDBRANCH  14  15
ENDBRANCH  13  14
ENDBRANCH  12  13
ENDBRANCH  11  12
ENDBRANCH   4  11
TORSDOF 11
