REMARK  12 active torsions:
REMARK  status: ('A' for Active; 'I' for Inactive)
REMARK    1  A    between atoms: S1_2  and  C2_3 
REMARK    2  A    between atoms: N1_8  and  C6_9 
REMARK    3  A    between atoms: C6_9  and  C7_10 
REMARK    4  A    between atoms: C7_10  and  C8_11 
REMARK    5  A    between atoms: C8_11  and  C9_12 
REMARK    6  A    between atoms: C9_12  and  C10_13 
REMARK    7  A    between atoms: C10_13  and  C11_14 
REMARK    8  A    between atoms: C11_14  and  N2_15 
REMARK    9  A    between atoms: C15_21  and  N4_22 
REMARK   10  A    between atoms: N5_25  and  C16_26 
REMARK   11  A    between atoms: C16_26  and  C17_27 
REMARK   12  A    between atoms: C17_27  and  C18_28 
ROOT
HETATM    1  N2  UNL     1      -0.705  -3.211   1.207  1.00  0.00    -0.364 N 
HETATM    2  C12 UNL     1      -1.248  -3.779   2.316  1.00  0.00     0.092 A 
HETATM    3  C13 UNL     1      -2.123  -3.087   3.112  1.00  0.00     0.049 A 
HETATM    4  C14 UNL     1      -2.455  -1.803   2.781  1.00  0.00     0.079 A 
HETATM    5  N3  UNL     1      -3.256  -0.894   3.343  1.00  0.00    -0.190 N 
ATOM      6  H3  UNL     1      -3.800  -1.038   4.194  1.00  0.00     0.184 HD
HETATM    7  C15 UNL     1      -3.238   0.250   2.612  1.00  0.00     0.679 A 
HETATM    8  N5  UNL     1      -2.413   0.040   1.584  1.00  0.00    -0.180 N 
HETATM    9  C24 UNL     1      -1.908  -1.233   1.663  1.00  0.00     0.094 A 
HETATM   10  C25 UNL     1      -1.015  -1.954   0.861  1.00  0.00     0.123 A 
ENDROOT
BRANCH   1  11
HETATM   11  C11 UNL     1       0.196  -3.992   0.410  1.00  0.00     0.128 C 
BRANCH  11  12
HETATM   12  C10 UNL     1       1.631  -3.919   0.802  1.00  0.00     0.020 C 
BRANCH  12  13
HETATM   13  C9  UNL     1       2.294  -2.600   0.712  1.00  0.00     0.002 C 
BRANCH  13  14
HETATM   14  C8  UNL     1       2.363  -2.039  -0.679  1.00  0.00     0.002 C 
BRANCH  14  15
HETATM   15  C7  UNL     1       3.024  -0.700  -0.723  1.00  0.00     0.020 C 
BRANCH  15  16
HETATM   16  C6  UNL     1       4.448  -0.716  -0.221  1.00  0.00     0.128 C 
BRANCH  16  17
HETATM   17  N1  UNL     1       5.048   0.602  -0.277  1.00  0.00    -0.364 N 
HETATM   18  C5  UNL     1       4.921   1.391   0.796  1.00  0.00     0.109 A 
HETATM   19  C4  UNL     1       5.455   2.663   0.825  1.00  0.00     0.027 A 
HETATM   20  C3  UNL     1       6.125   3.087  -0.300  1.00  0.00     0.040 A 
HETATM   21 BR1  UNL     1       5.247   3.741   2.368  1.00  0.00    -0.050 Br
HETATM   22  C2  UNL     1       6.247   2.265  -1.397  1.00  0.00     0.017 A 
HETATM   23  C26 UNL     1       5.697   1.001  -1.379  1.00  0.00     0.109 A 
BRANCH  22  24
HETATM   24  S1  UNL     1       7.123   2.898  -2.805  1.00  0.00    -0.133 SA
HETATM   25  C1  UNL     1       8.880   2.493  -2.618  1.00  0.00     0.095 C 
ENDBRANCH  22  24
ENDBRANCH  16  17
ENDBRANCH  15  16
ENDBRANCH  14  15
ENDBRANCH  13  14
ENDBRANCH  12  13
ENDBRANCH  11  12
ENDBRANCH   1  11
BRANCH   8  26
HETATM   26  C16 UNL     1      -2.025   0.896   0.467  1.00  0.00     0.148 C 
BRANCH  26  27
HETATM   27  C17 UNL     1      -2.827   0.697  -0.777  1.00  0.00     0.025 C 
BRANCH  27  28
HETATM   28  C18 UNL     1      -4.268   1.035  -0.742  1.00  0.00    -0.013 C 
HETATM   29  C19 UNL     1      -4.945   0.703  -2.083  1.00  0.00     0.005 C 
HETATM   30  C20 UNL     1      -5.937   1.734  -2.499  1.00  0.00     0.000 C 
HETATM   31  C21 UNL     1      -6.784   2.280  -1.371  1.00  0.00     0.000 C 
HETATM   32  C22 UNL     1      -5.935   2.839  -0.269  1.00  0.00     0.000 C 
HETATM   33  C23 UNL     1      -4.486   2.540  -0.499  1.00  0.00     0.005 C 
ENDBRANCH  27  28
ENDBRANCH  26  27
ENDBRANCH   8  26
BRANCH   7  34
HETATM   34  N4  UNL     1      -3.888   1.331   2.893  1.00  0.00    -0.234 N 
ATOM     35  H42 UNL     1      -4.518   1.491   3.679  1.00  0.00     0.174 HD
ATOM     36  H41 UNL     1      -3.874   2.190   2.344  1.00  0.00     0.174 HD
ENDBRANCH   7  34
TORSDOF 12
