REMARK  10 active torsions:
REMARK  status: ('A' for Active; 'I' for Inactive)
REMARK    1  A    between atoms: C2_2  and  C4_4 
REMARK    2  A    between atoms: C4_4  and  C5_5 
REMARK    3  A    between atoms: C4_4  and  C7_7 
REMARK    4  A    between atoms: C7_7  and  C8_8 
REMARK    5  A    between atoms: C7_7  and  C28_31 
REMARK    6  A    between atoms: C8_8  and  C9_9 
REMARK    7  A    between atoms: C13_13  and  C14_14 
REMARK    8  A    between atoms: C21_22  and  C23_24 
REMARK    9  A    between atoms: C24_26  and  C26_28 
REMARK   10  A    between atoms: C28_31  and  C30_33 
ROOT
HETATM    1  C9  UNL     1      -0.001  -0.312   0.097  1.00  0.00    -0.053 C 
HETATM    2  C10 UNL     1      -0.217  -1.653   0.618  1.00  0.00     0.012 C 
HETATM    3  C11 UNL     1      -0.253  -2.857  -0.242  1.00  0.00     0.015 C 
HETATM    4  C12 UNL     1      -1.744  -1.488   1.049  1.00  0.00     0.016 C 
HETATM    5  C13 UNL     1      -2.316  -0.992  -0.246  1.00  0.00     0.022 C 
HETATM    6  C26 UNL     1      -1.274   0.015  -0.733  1.00  0.00     0.110 C 
HETATM    7  C27 UNL     1      -0.796  -0.269  -2.095  1.00  0.00     0.077 C 
HETATM    8  N1  UNL     1      -0.407  -0.472  -3.196  1.00  0.00    -0.196 NA
ENDROOT
BRANCH   6   9
HETATM    9  C24 UNL     1      -1.768   1.395  -0.681  1.00  0.00     0.110 A 
HETATM   10  C23 UNL     1      -3.163   1.605  -1.066  1.00  0.00     0.171 A 
HETATM   11  O2  UNL     1      -2.225   1.858  -2.027  1.00  0.00    -0.366 OA
HETATM   12  C25 UNL     1      -1.131   2.555   0.000  1.00  0.00     0.051 C 
BRANCH  10  13
HETATM   13  C21 UNL     1      -4.045   0.427  -1.255  1.00  0.00     0.008 C 
HETATM   14  C14 UNL     1      -3.727  -0.623  -0.244  1.00  0.00     0.022 C 
HETATM   15  C15 UNL     1      -4.474  -0.512   1.056  1.00  0.00     0.022 C 
HETATM   16  C16 UNL     1      -4.187   0.707   1.864  1.00  0.00     0.024 C 
HETATM   17  C17 UNL     1      -4.493  -1.794   1.856  1.00  0.00     0.024 C 
HETATM   18  C18 UNL     1      -5.932  -0.292   0.713  1.00  0.00     0.157 C 
HETATM   19  O1  UNL     1      -6.794  -0.977   1.315  1.00  0.00    -0.292 OA
HETATM   20  C19 UNL     1      -6.318   0.680  -0.278  1.00  0.00     0.048 C 
HETATM   21  C20 UNL     1      -5.443   0.991  -1.162  1.00  0.00    -0.011 C 
HETATM   22  C22 UNL     1      -4.048  -0.143  -2.673  1.00  0.00     0.023 C 
ENDBRANCH  10  13
ENDBRANCH   6   9
BRANCH   1  23
HETATM   23  C8  UNL     1       1.216   0.194  -0.510  1.00  0.00    -0.016 C 
BRANCH  23  24
HETATM   24  C7  UNL     1       2.532   0.277   0.236  1.00  0.00     0.020 C 
BRANCH  24  25
HETATM   25  C4  UNL     1       3.108  -1.033   0.651  1.00  0.00     0.021 C 
BRANCH  25  26
HETATM   26  C2  UNL     1       4.268  -1.070   1.529  1.00  0.00    -0.088 C 
HETATM   27  C1  UNL     1       5.373  -1.682   1.344  1.00  0.00     0.014 C 
HETATM   28  C3  UNL     1       4.213  -0.321   2.859  1.00  0.00     0.043 C 
ENDBRANCH  25  26
BRANCH  25  29
HETATM   29  C5  UNL     1       3.356  -1.904  -0.591  1.00  0.00     0.005 C 
HETATM   30  C6  UNL     1       4.446  -1.569  -1.496  1.00  0.00     0.006 C 
ENDBRANCH  25  29
ENDBRANCH  24  25
BRANCH  24  31
HETATM   31  C28 UNL     1       3.402   1.290  -0.432  1.00  0.00    -0.011 C 
HETATM   32  C29 UNL     1       2.618   2.566  -0.793  1.00  0.00     0.010 C 
BRANCH  31  33
HETATM   33  C30 UNL     1       4.610   1.788   0.289  1.00  0.00     0.000 C 
HETATM   34  C31 UNL     1       5.340   2.852  -0.560  1.00  0.00     0.005 C 
ENDBRANCH  31  33
ENDBRANCH  24  31
ENDBRANCH  23  24
ENDBRANCH   1  23
TORSDOF 10
