REMARK  11 active torsions:
REMARK  status: ('A' for Active; 'I' for Inactive)
REMARK    1  A    between atoms: C2_2  and  C3_3 
REMARK    2  A    between atoms: C3_3  and  C4_4 
REMARK    3  A    between atoms: C4_4  and  C5_5 
REMARK    4  A    between atoms: C5_5  and  N1_6 
REMARK    5  A    between atoms: C5_5  and  C8_11 
REMARK       I    between atoms: N1_6  and  C6_8 
REMARK       I    between atoms: C8_11  and  N2_13 
REMARK    6  A    between atoms: N2_13  and  C9_15 
REMARK    7  A    between atoms: N3_17  and  C11_18 
REMARK    8  A    between atoms: C11_18  and  O3_19 
REMARK    9  A    between atoms: C11_18  and  C12_21 
REMARK   10  A    between atoms: C23_32  and  C24_33 
REMARK   11  A    between atoms: C24_33  and  S1_36 
ROOT
HETATM    1  C9  UNL     1      -0.346   0.949  -0.348  1.00  0.00     0.115 C 
HETATM    2  C10 UNL     1       0.853   0.039  -0.459  1.00  0.00     0.150 C 
HETATM    3  N3  UNL     1       1.901   0.971  -0.732  1.00  0.00    -0.362 N 
HETATM    4  C22 UNL     1       1.330   2.131  -1.462  1.00  0.00     0.138 C 
HETATM    5  C23 UNL     1      -0.164   1.962  -1.432  1.00  0.00     0.119 C 
ENDROOT
BRANCH   1   6
HETATM    6  N2  UNL     1      -1.596   0.289  -0.282  1.00  0.00    -0.352 N 
HETATM    7  C8  UNL     1      -2.503   0.532   0.807  1.00  0.00     0.240 C 
HETATM    8  O2  UNL     1      -2.207   1.337   1.724  1.00  0.00    -0.271 OA
ATOM      9  H2  UNL     1      -1.857  -0.368  -1.017  1.00  0.00     0.163 HD
BRANCH   7  10
HETATM   10  C5  UNL     1      -3.816  -0.152   0.889  1.00  0.00     0.176 C 
BRANCH  10  11
HETATM   11  C4  UNL     1      -4.610   0.067  -0.377  1.00  0.00     0.035 C 
BRANCH  11  12
HETATM   12  C3  UNL     1      -5.895  -0.718  -0.340  1.00  0.00     0.002 C 
BRANCH  12  13
HETATM   13  C2  UNL     1      -6.628  -0.439  -1.649  1.00  0.00    -0.004 C 
HETATM   14  C1  UNL     1      -5.721  -0.899  -2.772  1.00  0.00     0.005 C 
ENDBRANCH  12  13
ENDBRANCH  11  12
ENDBRANCH  10  11
BRANCH  10  15
HETATM   15  N1  UNL     1      -4.545   0.261   2.062  1.00  0.00    -0.348 N 
HETATM   16  C6  UNL     1      -4.940  -0.644   3.085  1.00  0.00     0.214 C 
HETATM   17  C7  UNL     1      -5.689  -0.129   4.256  1.00  0.00     0.117 C 
HETATM   18  O1  UNL     1      -4.673  -1.868   3.027  1.00  0.00    -0.274 OA
ATOM     19  H1  UNL     1      -4.788   1.246   2.163  1.00  0.00     0.163 HD
ENDBRANCH  10  15
ENDBRANCH   7  10
ENDBRANCH   1   6
BRANCH   5  20
HETATM   20  C24 UNL     1      -0.640   1.588  -2.784  1.00  0.00     0.368 C 
HETATM   21  F1  UNL     1      -0.023   0.497  -3.337  1.00  0.00    -0.185 F 
HETATM   22  F2  UNL     1      -2.016   1.269  -2.771  1.00  0.00    -0.185 F 
BRANCH  20  23
HETATM   23  S1  UNL     1      -0.503   2.959  -3.889  1.00  0.00     0.176 S 
HETATM   24  O4  UNL     1      -1.147   2.616  -5.230  1.00  0.00    -0.591 OA
HETATM   25  O5  UNL     1       0.886   3.381  -4.205  1.00  0.00    -0.591 OA
HETATM   26  O6  UNL     1      -1.431   4.272  -3.317  1.00  0.00    -0.591 OA
ENDBRANCH  20  23
ENDBRANCH   5  20
BRANCH   3  27
HETATM   27  C11 UNL     1       3.277   0.921  -0.444  1.00  0.00     0.122 C 
BRANCH  27  28
HETATM   28  O3  UNL     1       4.008   1.937  -0.807  1.00  0.00    -0.349 OA
ATOM     29  H3  UNL     1       4.937   1.903  -0.613  1.00  0.00     0.219 HD
ENDBRANCH  27  28
BRANCH  27  30
HETATM   30  C12 UNL     1       4.029  -0.145   0.228  1.00  0.00     0.026 C 
HETATM   31  C13 UNL     1       3.786  -1.512  -0.324  1.00  0.00     0.022 C 
HETATM   32  C14 UNL     1       4.617  -2.524   0.440  1.00  0.00    -0.013 C 
HETATM   33  C15 UNL     1       6.090  -2.246   0.330  1.00  0.00     0.009 C 
HETATM   34  C19 UNL     1       4.237  -2.497   1.901  1.00  0.00     0.009 C 
HETATM   35  C16 UNL     1       6.328  -0.844   0.851  1.00  0.00    -0.013 C 
HETATM   36  C17 UNL     1       5.995  -0.766   2.304  1.00  0.00     0.009 C 
HETATM   37  C21 UNL     1       5.539   0.102   0.026  1.00  0.00     0.022 C 
HETATM   38  C18 UNL     1       4.542  -1.152   2.476  1.00  0.00    -0.013 C 
HETATM   39  C20 UNL     1       3.739  -0.117   1.702  1.00  0.00     0.022 C 
ENDBRANCH  27  30
ENDBRANCH   3  27
TORSDOF 11
