REMARK  7 active torsions:
REMARK  status: ('A' for Active; 'I' for Inactive)
REMARK    1  A    between atoms: C7_7  and  C8_8 
REMARK    2  A    between atoms: C8_8  and  C9_9 
REMARK    3  A    between atoms: C11_11  and  C12_12 
REMARK    4  A    between atoms: C13_15  and  C14_16 
REMARK    5  A    between atoms: C15_20  and  C16_21 
REMARK    6  A    between atoms: C17_23  and  C18_24 
REMARK    7  A    between atoms: C21_29  and  C22_30 
ROOT
HETATM    1  C9  UNL     1       0.962   1.122   1.549  1.00  0.00     0.109 C 
HETATM    2  C10 UNL     1       1.440   2.409   0.902  1.00  0.00     0.047 C 
HETATM    3  C11 UNL     1       0.285   3.004   0.194  1.00  0.00     0.120 C 
HETATM    4  C13 UNL     1      -0.866   2.014   0.520  1.00  0.00     0.188 C 
HETATM    5  N2  UNL     1      -0.261   0.837   0.834  1.00  0.00    -0.367 N 
HETATM    6  C15 UNL     1      -0.850  -0.355   1.081  1.00  0.00     0.107 C 
ENDROOT
BRANCH   1   7
HETATM    7  C8  UNL     1       1.937   0.028   1.544  1.00  0.00     0.001 C 
BRANCH   7   8
HETATM    8  C7  UNL     1       2.382  -0.710   0.377  1.00  0.00    -0.078 C 
HETATM    9  C2  UNL     1       3.479  -1.720   0.784  1.00  0.00     0.010 C 
HETATM   10  C1  UNL     1       4.708  -1.042   1.265  1.00  0.00     0.015 C 
HETATM   11  C3  UNL     1       3.713  -2.638  -0.389  1.00  0.00     0.009 C 
HETATM   12  C4  UNL     1       4.185  -1.903  -1.591  1.00  0.00     0.001 C 
HETATM   13  C5  UNL     1       3.691  -0.509  -1.751  1.00  0.00     0.004 C 
HETATM   14  C6  UNL     1       2.434  -0.211  -0.977  1.00  0.00     0.034 C 
ENDBRANCH   7   8
ENDBRANCH   1   7
BRANCH   4  15
HETATM   15  C14 UNL     1      -1.684   2.079  -0.740  1.00  0.00     0.255 C 
HETATM   16  N1  UNL     1      -2.903   2.783  -0.764  1.00  0.00    -0.060 NA
HETATM   17  O3  UNL     1      -1.245   1.515  -1.719  1.00  0.00    -0.275 OA
ENDBRANCH   4  15
BRANCH   6  18
HETATM   18  C16 UNL     1      -2.120  -0.764   0.414  1.00  0.00     0.037 A 
HETATM   19  S1  UNL     1      -3.711  -0.465   0.904  1.00  0.00    -0.086 SA
HETATM   20  C17 UNL     1      -4.558  -1.571  -0.141  1.00  0.00     0.055 A 
HETATM   21  C20 UNL     1      -3.509  -2.139  -0.836  1.00  0.00     0.040 A 
HETATM   22  C21 UNL     1      -2.268  -1.721  -0.556  1.00  0.00     0.060 A 
BRANCH  20  23
HETATM   23  C18 UNL     1      -6.025  -1.774  -0.200  1.00  0.00     0.273 C 
HETATM   24  C19 UNL     1      -6.815  -0.521   0.072  1.00  0.00     0.096 C 
HETATM   25  F1  UNL     1      -6.407  -2.778   0.676  1.00  0.00    -0.201 F 
HETATM   26  F2  UNL     1      -6.304  -2.280  -1.464  1.00  0.00    -0.201 F 
ENDBRANCH  20  23
BRANCH  22  27
HETATM   27  C22 UNL     1      -1.074  -2.175  -1.326  1.00  0.00     0.210 C 
HETATM   28  O4  UNL     1      -0.210  -2.939  -1.025  1.00  0.00    -0.644 OA
HETATM   29  O5  UNL     1      -0.949  -1.586  -2.604  1.00  0.00    -0.644 OA
ENDBRANCH  22  27
ENDBRANCH   6  18
BRANCH   3  30
HETATM   30  C12 UNL     1      -0.010   4.379   0.469  1.00  0.00     0.179 C 
HETATM   31  O1  UNL     1      -0.685   5.053  -0.295  1.00  0.00    -0.648 OA
HETATM   32  O2  UNL     1       0.460   4.963   1.623  1.00  0.00    -0.648 OA
ENDBRANCH   3  30
TORSDOF 7
