REMARK  12 active torsions:
REMARK  status: ('A' for Active; 'I' for Inactive)
REMARK    1  A    between atoms: S1_2  and  C1_4 
REMARK    2  A    between atoms: S1_2  and  N2_22 
REMARK    3  A    between atoms: C1_4  and  C2_5 
REMARK    4  A    between atoms: C2_5  and  C3_6 
REMARK    5  A    between atoms: C6_9  and  N1_10 
REMARK    6  A    between atoms: C9_13  and  O3_14 
REMARK    7  A    between atoms: C16_25  and  C17_26 
REMARK    8  A    between atoms: C17_26  and  C18_27 
REMARK    9  A    between atoms: C18_27  and  N3_28 
REMARK   10  A    between atoms: C21_31  and  O4_32 
REMARK   11  A    between atoms: C21_31  and  C22_34 
REMARK   12  A    between atoms: C22_34  and  O5_35 
ROOT
HETATM    1  O1  UNL     1      -0.823  -0.504   1.845  1.00  0.00    -0.211 OA
HETATM    2  S1  UNL     1      -0.503  -0.259   0.384  1.00  0.00     0.211 S 
HETATM    3  O2  UNL     1      -1.033  -1.379  -0.468  1.00  0.00    -0.211 OA
ENDROOT
BRANCH   2   4
HETATM    4  C1  UNL     1       1.287  -0.181   0.245  1.00  0.00     0.158 C 
BRANCH   4   5
HETATM    5  C2  UNL     1       1.704   0.894   1.219  1.00  0.00     0.021 C 
BRANCH   5   6
HETATM    6  C3  UNL     1       3.163   1.121   1.346  1.00  0.00    -0.008 C 
HETATM    7  C4  UNL     1       3.814   1.528   0.081  1.00  0.00     0.007 C 
HETATM    8  C5  UNL     1       5.145   0.954  -0.227  1.00  0.00     0.042 C 
HETATM    9  C6  UNL     1       5.991   0.626   0.946  1.00  0.00     0.294 C 
HETATM   10  C12 UNL     1       5.300   0.168   2.181  1.00  0.00     0.274 C 
HETATM   11  F1  UNL     1       5.836  -0.993   2.704  1.00  0.00    -0.204 F 
HETATM   12  F2  UNL     1       5.398   1.111   3.215  1.00  0.00    -0.204 F 
HETATM   13  C13 UNL     1       3.832  -0.084   1.994  1.00  0.00     0.086 C 
BRANCH   9  14
HETATM   14  N1  UNL     1       7.026  -0.338   0.644  1.00  0.00     0.099 N 
HETATM   15  C7  UNL     1       8.286  -0.048   1.314  1.00  0.00     0.275 C 
HETATM   16  C8  UNL     1       9.035  -1.368   1.367  1.00  0.00     0.062 C 
HETATM   17  C9  UNL     1       9.063  -2.008  -0.006  1.00  0.00     0.121 C 
HETATM   18  C10 UNL     1       8.657  -0.970  -1.046  1.00  0.00     0.062 C 
HETATM   19  C11 UNL     1       7.207  -0.579  -0.760  1.00  0.00     0.275 C 
BRANCH  17  20
HETATM   20  O3  UNL     1       8.109  -3.041  -0.122  1.00  0.00    -0.395 OA
ATOM     21  H3  UNL     1       8.127  -3.442  -0.983  1.00  0.00     0.210 HD
ENDBRANCH  17  20
ENDBRANCH   9  14
ENDBRANCH   5   6
ENDBRANCH   4   5
ENDBRANCH   2   4
BRANCH   2  22
HETATM   22  N2  UNL     1      -1.131   1.258  -0.079  1.00  0.00    -0.210 NA
HETATM   23  C14 UNL     1      -0.846   1.587  -1.454  1.00  0.00     0.107 C 
HETATM   24  C15 UNL     1      -2.151   1.333  -2.217  1.00  0.00     0.021 C 
HETATM   25  C16 UNL     1      -3.111   0.843  -1.211  1.00  0.00     0.002 C 
HETATM   26  C25 UNL     1      -2.561   1.398   0.114  1.00  0.00     0.112 C 
BRANCH  25  27
HETATM   27  C17 UNL     1      -4.516   1.321  -1.444  1.00  0.00     0.036 C 
BRANCH  27  28
HETATM   28  C18 UNL     1      -5.417   0.767  -0.334  1.00  0.00     0.272 C 
BRANCH  28  29
HETATM   29  N3  UNL     1      -6.773   1.160  -0.503  1.00  0.00     0.088 N 
HETATM   30  C19 UNL     1      -7.396   0.514  -1.622  1.00  0.00     0.275 C 
HETATM   31  C20 UNL     1      -7.637  -0.960  -1.386  1.00  0.00     0.070 C 
HETATM   32  C21 UNL     1      -8.444  -1.159  -0.150  1.00  0.00     0.082 C 
HETATM   33  C23 UNL     1      -7.756  -0.489   1.011  1.00  0.00     0.070 C 
HETATM   34  C24 UNL     1      -7.539   0.974   0.726  1.00  0.00     0.275 C 
BRANCH  32  35
HETATM   35  O4  UNL     1      -9.691  -0.565  -0.314  1.00  0.00    -0.388 OA
ATOM     36  H4  UNL     1     -10.206  -0.692   0.474  1.00  0.00     0.210 HD
ENDBRANCH  32  35
BRANCH  32  37
HETATM   37  C22 UNL     1      -8.613  -2.647   0.170  1.00  0.00     0.201 C 
BRANCH  37  38
HETATM   38  O5  UNL     1      -9.289  -3.333  -0.814  1.00  0.00    -0.398 OA
ATOM     39  H5  UNL     1      -9.394  -4.256  -0.615  1.00  0.00     0.209 HD
ENDBRANCH  37  38
ENDBRANCH  32  37
ENDBRANCH  28  29
ENDBRANCH  27  28
ENDBRANCH  25  27
ENDBRANCH   2  22
TORSDOF 12
