REMARK  11 active torsions:
REMARK  status: ('A' for Active; 'I' for Inactive)
REMARK    1  A    between atoms: N1_2  and  C2_5 
REMARK    2  A    between atoms: C3_6  and  O1_7 
REMARK    3  A    between atoms: C4_9  and  C6_11 
REMARK    4  A    between atoms: C7_12  and  C8_13 
REMARK    5  A    between atoms: C9_15  and  C10_16 
REMARK    6  A    between atoms: C10_16  and  O4_18 
REMARK    7  A    between atoms: C13_21  and  O5_22 
REMARK    8  A    between atoms: C20_31  and  C22_33 
REMARK    9  A    between atoms: C22_33  and  C23_34 
REMARK   10  A    between atoms: C23_34  and  C24_35 
REMARK   11  A    between atoms: C26_37  and  O7_38 
ROOT
HETATM    1  C2  UNL     1       1.195  -0.602  -1.759  1.00  0.00     0.235 C 
HETATM    2  C3  UNL     1      -0.171  -1.007  -1.435  1.00  0.00     0.167 C 
HETATM    3  C4  UNL     1      -0.672  -0.877  -0.030  1.00  0.00     0.059 C 
HETATM    4  C5  UNL     1      -0.769  -2.331   0.523  1.00  0.00     0.028 C 
HETATM    5  C14 UNL     1       0.171  -0.123   0.893  1.00  0.00     0.193 C 
HETATM    6  O6  UNL     1      -0.379   0.926   1.621  1.00  0.00    -0.314 OA
HETATM    7  C15 UNL     1       0.367   0.499   2.718  1.00  0.00     0.186 C 
HETATM    8  C16 UNL     1      -0.291   0.671   4.045  1.00  0.00     0.084 C 
HETATM    9  C17 UNL     1       1.788   0.988   2.658  1.00  0.00     0.037 C 
HETATM   10  C18 UNL     1       2.333   0.925   1.450  1.00  0.00    -0.014 C 
HETATM   11  C19 UNL     1       1.469   0.391   0.366  1.00  0.00     0.094 C 
HETATM   12  C20 UNL     1       2.188  -0.479  -0.614  1.00  0.00     0.055 C 
HETATM   13  C21 UNL     1       2.487  -1.880  -0.077  1.00  0.00     0.031 C 
HETATM   14  O8  UNL     1       0.376  -0.756   2.156  1.00  0.00    -0.314 OA
ENDROOT
BRANCH   3  15
HETATM   15  C6  UNL     1      -2.071  -0.442  -0.064  1.00  0.00    -0.011 C 
HETATM   16  C7  UNL     1      -2.702   0.671   0.114  1.00  0.00     0.004 C 
BRANCH  16  17
HETATM   17  C8  UNL     1      -4.219   0.682  -0.013  1.00  0.00     0.174 C 
HETATM   18  O2  UNL     1      -4.789   1.888   0.235  1.00  0.00    -0.364 OA
HETATM   19  C9  UNL     1      -6.037   1.646   0.806  1.00  0.00     0.224 C 
HETATM   20  C12 UNL     1      -5.908   0.374   1.605  1.00  0.00     0.077 C 
HETATM   21  C13 UNL     1      -4.801  -0.350   0.934  1.00  0.00     0.153 C 
BRANCH  19  22
HETATM   22  C10 UNL     1      -7.022   1.474  -0.307  1.00  0.00     0.287 C 
HETATM   23  O3  UNL     1      -6.673   1.565  -1.507  1.00  0.00    -0.262 OA
BRANCH  22  24
HETATM   24  O4  UNL     1      -8.367   1.197  -0.012  1.00  0.00    -0.324 OA
HETATM   25  C11 UNL     1      -9.282   1.031  -1.072  1.00  0.00     0.213 C 
ENDBRANCH  22  24
ENDBRANCH  19  22
BRANCH  21  26
HETATM   26  O5  UNL     1      -3.828  -0.824   1.823  1.00  0.00    -0.393 OA
ATOM     27  H5  UNL     1      -4.193  -1.470   2.416  1.00  0.00     0.210 HD
ENDBRANCH  21  26
ENDBRANCH  16  17
ENDBRANCH   3  15
BRANCH   2  28
HETATM   28  O1  UNL     1      -1.025  -0.256  -2.295  1.00  0.00    -0.392 OA
ATOM     29  H1  UNL     1      -1.913  -0.519  -2.084  1.00  0.00     0.210 HD
ENDBRANCH   2  28
BRANCH   1  30
HETATM   30  N1  UNL     1       1.769  -1.453  -2.763  1.00  0.00    -0.071 N 
HETATM   31  C1  UNL     1       1.085  -1.395  -4.028  1.00  0.00     0.267 C 
ATOM     32  H12 UNL     1       1.828  -2.415  -2.429  1.00  0.00     0.277 HD
ATOM     33  H11 UNL     1       2.762  -1.252  -2.881  1.00  0.00     0.277 HD
ENDBRANCH   1  30
BRANCH  12  34
HETATM   34  C22 UNL     1       3.423   0.137  -1.035  1.00  0.00    -0.142 C 
BRANCH  34  35
HETATM   35  C23 UNL     1       4.489   0.674  -1.404  1.00  0.00     0.060 C 
BRANCH  35  36
HETATM   36  C24 UNL     1       5.827   0.477  -0.777  1.00  0.00    -0.033 C 
HETATM   37  C25 UNL     1       5.944  -0.333   0.435  1.00  0.00     0.050 C 
HETATM   38  C26 UNL     1       6.903   1.062  -1.261  1.00  0.00     0.141 C 
BRANCH  38  39
HETATM   39  O7  UNL     1       8.180   1.017  -0.854  1.00  0.00    -0.367 OA
HETATM   40  C27 UNL     1       8.791   0.648   0.306  1.00  0.00     0.208 C 
ENDBRANCH  38  39
ENDBRANCH  35  36
ENDBRANCH  34  35
ENDBRANCH  12  34
TORSDOF 11
