REMARK  9 active torsions:
REMARK  status: ('A' for Active; 'I' for Inactive)
REMARK    1  A    between atoms: O1_2  and  C2_3 
REMARK    2  A    between atoms: C8_9  and  O2_10 
REMARK    3  A    between atoms: O2_10  and  C9_11 
REMARK    4  A    between atoms: C9_11  and  C10_12 
REMARK    5  A    between atoms: C10_12  and  O3_13 
REMARK    6  A    between atoms: C10_12  and  C11_15 
REMARK    7  A    between atoms: C14_18  and  O4_19 
REMARK    8  A    between atoms: C16_22  and  C17_23 
REMARK    9  A    between atoms: C17_23  and  O5_24 
ROOT
HETATM    1  O2  UNL     1      -0.734  -2.111  -1.000  1.00  0.00    -0.346 OA
ENDROOT
BRANCH   1   2
HETATM    2  C8  UNL     1      -1.835  -2.029  -0.216  1.00  0.00     0.103 A 
HETATM    3  C7  UNL     1      -2.625  -0.901  -0.237  1.00  0.00     0.014 A 
HETATM    4  C6  UNL     1      -2.378   0.163  -1.070  1.00  0.00     0.016 A 
HETATM    5  C21 UNL     1      -3.754  -0.831   0.592  1.00  0.00     0.034 A 
HETATM    6  C5  UNL     1      -3.190   1.271  -1.112  1.00  0.00     0.010 A 
HETATM    7  C3  UNL     1      -4.301   1.366  -0.309  1.00  0.00    -0.028 A 
HETATM    8  C2  UNL     1      -4.553   0.285   0.540  1.00  0.00     0.087 A 
HETATM    9  C4  UNL     1      -5.205   2.533  -0.320  1.00  0.00     0.051 C 
HETATM   10  C20 UNL     1      -4.040  -1.909   1.401  1.00  0.00     0.071 A 
HETATM   11  C19 UNL     1      -3.223  -3.024   1.392  1.00  0.00     0.081 A 
HETATM   12 CL3  UNL     1      -5.453  -1.932   2.406  1.00  0.00    -0.081 Cl
HETATM   13  C18 UNL     1      -2.110  -3.133   0.602  1.00  0.00     0.091 A 
HETATM   14 CL2  UNL     1      -3.585  -4.413   2.431  1.00  0.00    -0.081 Cl
HETATM   15 CL1  UNL     1      -1.099  -4.561   0.619  1.00  0.00    -0.079 Cl
BRANCH   8  16
HETATM   16  O1  UNL     1      -5.690   0.412   1.352  1.00  0.00    -0.354 OA
HETATM   17  C1  UNL     1      -5.430   1.162   2.564  1.00  0.00     0.210 C 
ENDBRANCH   8  16
ENDBRANCH   1   2
BRANCH   1  18
HETATM   18  C9  UNL     1       0.595  -1.883  -0.792  1.00  0.00     0.210 C 
BRANCH  18  19
HETATM   19  C10 UNL     1       1.073  -0.565  -0.323  1.00  0.00     0.176 C 
BRANCH  19  20
HETATM   20  O3  UNL     1       0.555  -0.246   0.931  1.00  0.00    -0.390 OA
ATOM     21  H3  UNL     1       0.862   0.601   1.232  1.00  0.00     0.210 HD
ENDBRANCH  19  20
BRANCH  19  22
HETATM   22  C11 UNL     1       2.597  -0.548  -0.153  1.00  0.00     0.088 C 
HETATM   23  C12 UNL     1       2.971  -1.551   0.927  1.00  0.00     0.049 C 
HETATM   24  C13 UNL     1       3.180  -1.048  -1.444  1.00  0.00     0.072 C 
HETATM   25  C14 UNL     1       4.622  -0.595  -1.502  1.00  0.00     0.123 C 
HETATM   26  C15 UNL     1       4.588   0.923  -1.589  1.00  0.00     0.066 C 
HETATM   27  C16 UNL     1       3.534   1.510  -0.692  1.00  0.00     0.148 C 
HETATM   28  O6  UNL     1       3.041   0.670   0.248  1.00  0.00    -0.370 OA
BRANCH  25  29
HETATM   29  O4  UNL     1       5.243  -1.089  -2.632  1.00  0.00    -0.395 OA
ATOM     30  H4  UNL     1       6.149  -0.804  -2.668  1.00  0.00     0.210 HD
ENDBRANCH  25  29
BRANCH  27  31
HETATM   31  C17 UNL     1       4.218   2.656   0.075  1.00  0.00     0.196 C 
BRANCH  31  32
HETATM   32  O5  UNL     1       4.763   3.584  -0.777  1.00  0.00    -0.398 OA
ATOM     33  H5  UNL     1       5.185   4.291  -0.304  1.00  0.00     0.209 HD
ENDBRANCH  31  32
ENDBRANCH  27  31
ENDBRANCH  19  22
ENDBRANCH  18  19
ENDBRANCH   1  18
TORSDOF 9
