REMARK  3 active torsions:
REMARK  status: ('A' for Active; 'I' for Inactive)
REMARK    1  A    between atoms: C1_2  and  C2_5 
REMARK    2  A    between atoms: C3_9  and  C4_10 
REMARK    3  A    between atoms: C4_10  and  C5_11 
ROOT
HETATM    1  C2  UNL     1       1.080   1.391  -2.022  1.00  0.00     0.343 C 
HETATM    2  N1  UNL     1       1.001   2.433  -1.018  1.00  0.00    -0.048 N 
ATOM      3  H11 UNL     1       0.431   3.238  -1.277  1.00  0.00     0.279 HD
ATOM      4  H12 UNL     1       1.861   2.963  -0.879  1.00  0.00     0.279 HD
HETATM    5  C3  UNL     1       0.519   1.675   0.190  1.00  0.00     0.223 C 
HETATM    6  C11 UNL     1       1.411   0.533   0.138  1.00  0.00     0.010 A 
HETATM    7  C12 UNL     1       1.738   0.314  -1.196  1.00  0.00     0.059 A 
HETATM    8  N2  UNL     1       2.554  -0.745  -1.220  1.00  0.00    -0.356 N 
ATOM      9  H2  UNL     1       2.958  -1.144  -2.067  1.00  0.00     0.166 HD
HETATM   10  C13 UNL     1       2.770  -1.212   0.015  1.00  0.00     0.043 A 
HETATM   11  C14 UNL     1       3.532  -2.248   0.519  1.00  0.00     0.030 A 
HETATM   12  C15 UNL     1       3.626  -2.541   1.862  1.00  0.00     0.002 A 
HETATM   13  C16 UNL     1       2.919  -1.754   2.769  1.00  0.00     0.001 A 
HETATM   14  C17 UNL     1       2.161  -0.723   2.263  1.00  0.00     0.014 A 
HETATM   15  C18 UNL     1       2.070  -0.436   0.911  1.00  0.00     0.001 A 
ENDROOT
BRANCH   5  16
HETATM   16  C4  UNL     1      -0.926   1.546  -0.019  1.00  0.00     0.042 C 
BRANCH  16  17
HETATM   17  C5  UNL     1      -1.799   0.856   0.966  1.00  0.00    -0.012 C 
HETATM   18  C6  UNL     1      -3.229   1.004   0.407  1.00  0.00     0.005 C 
HETATM   19  C7  UNL     1      -3.441  -0.078  -0.614  1.00  0.00     0.000 C 
HETATM   20  C8  UNL     1      -3.705  -1.363   0.183  1.00  0.00     0.000 C 
HETATM   21  C9  UNL     1      -2.704  -1.464   1.281  1.00  0.00     0.000 C 
HETATM   22  C10 UNL     1      -1.466  -0.613   1.051  1.00  0.00     0.005 C 
ENDBRANCH  16  17
ENDBRANCH   5  16
BRANCH   1  23
HETATM   23  C1  UNL     1       2.041   1.817  -3.143  1.00  0.00     0.421 C 
HETATM   24  F1  UNL     1       1.629   2.960  -3.749  1.00  0.00    -0.168 F 
HETATM   25  F2  UNL     1       3.279   1.973  -2.507  1.00  0.00    -0.168 F 
HETATM   26  F3  UNL     1       2.134   0.741  -4.005  1.00  0.00    -0.168 F 
ENDBRANCH   1  23
TORSDOF 3
