REMARK  4 active torsions:
REMARK  status: ('A' for Active; 'I' for Inactive)
REMARK    1  A    between atoms: C9_12  and  C11_14 
REMARK    2  A    between atoms: C11_14  and  N2_15 
REMARK    3  A    between atoms: C19_23  and  O2_24 
REMARK    4  A    between atoms: O2_24  and  C20_25 
ROOT
HETATM    1  C1  UNL     1      -4.068   3.062   0.828  1.00  0.00     0.025 C 
HETATM    2  C2  UNL     1      -3.271   2.608  -0.135  1.00  0.00     0.005 C 
HETATM    3  C3  UNL     1      -3.432   3.008  -1.528  1.00  0.00     0.247 C 
HETATM    4  O1  UNL     1      -4.533   3.517  -1.859  1.00  0.00    -0.268 OA
HETATM    5  N1  UNL     1      -2.356   2.803  -2.419  1.00  0.00    -0.356 N 
ATOM      6  H1  UNL     1      -2.423   3.217  -3.349  1.00  0.00     0.162 HD
HETATM    7  C4  UNL     1      -1.174   2.051  -2.103  1.00  0.00     0.133 C 
HETATM    8  C5  UNL     1      -0.921   1.994  -0.629  1.00  0.00    -0.016 C 
HETATM    9  C6  UNL     1      -0.551   3.432  -0.225  1.00  0.00     0.018 C 
HETATM   10  C7  UNL     1      -2.165   1.664   0.159  1.00  0.00     0.034 C 
HETATM   11  C8  UNL     1      -2.590   0.303  -0.379  1.00  0.00     0.025 C 
HETATM   12  C9  UNL     1      -1.622  -0.775  -0.034  1.00  0.00    -0.007 C 
HETATM   13  C10 UNL     1      -1.817  -1.795  -1.188  1.00  0.00     0.021 C 
HETATM   14  C14 UNL     1      -0.196  -0.352   0.077  1.00  0.00     0.008 C 
HETATM   15  C15 UNL     1       0.812  -1.115  -0.711  1.00  0.00    -0.005 C 
HETATM   16  C16 UNL     1       1.277  -2.415  -0.221  1.00  0.00     0.005 C 
HETATM   17  C17 UNL     1       2.437  -2.379   0.752  1.00  0.00     0.003 C 
HETATM   18  C18 UNL     1       3.730  -1.961   0.105  1.00  0.00     0.032 C 
HETATM   19  C19 UNL     1       3.980  -0.537   0.592  1.00  0.00     0.132 C 
HETATM   20  C22 UNL     1       2.679   0.202   0.383  1.00  0.00     0.037 C 
HETATM   21  C23 UNL     1       1.988  -0.132  -0.894  1.00  0.00    -0.007 C 
HETATM   22  C24 UNL     1       1.201   1.096  -1.309  1.00  0.00     0.011 C 
HETATM   23  C25 UNL     1       0.141   1.066  -0.206  1.00  0.00     0.002 C 
ENDROOT
BRANCH  12  24
HETATM   24  C11 UNL     1      -2.070  -1.522   1.194  1.00  0.00     0.071 C 
BRANCH  24  25
HETATM   25  N2  UNL     1      -3.246  -2.226   1.228  1.00  0.00    -0.384 N 
HETATM   26  C12 UNL     1      -4.537  -1.770   1.246  1.00  0.00     0.120 C 
HETATM   27  C13 UNL     1      -3.093  -3.551   1.774  1.00  0.00     0.153 C 
ENDBRANCH  24  25
ENDBRANCH  12  24
BRANCH  19  28
HETATM   28  O2  UNL     1       5.087   0.055  -0.005  1.00  0.00    -0.316 OA
BRANCH  28  29
HETATM   29  C20 UNL     1       6.159   0.422   0.826  1.00  0.00     0.255 C 
HETATM   30  C21 UNL     1       7.389   1.055   0.331  1.00  0.00     0.126 C 
HETATM   31  O3  UNL     1       6.075   0.203   2.066  1.00  0.00    -0.266 OA
ENDBRANCH  28  29
ENDBRANCH  19  28
TORSDOF 4
