REMARK  5 active torsions:
REMARK  status: ('A' for Active; 'I' for Inactive)
REMARK    1  A    between atoms: C2_2  and  C3_3 
REMARK    2  A    between atoms: C5_7  and  C6_8 
REMARK    3  A    between atoms: C6_8  and  O3_10 
REMARK    4  A    between atoms: C10_14  and  C11_15 
REMARK    5  A    between atoms: C11_15  and  O4_18 
ROOT
HETATM    1  C3  UNL     1      -0.553   1.557   0.088  1.00  0.00     0.114 C 
HETATM    2  C4  UNL     1       0.620   1.856  -0.804  1.00  0.00     0.267 C 
HETATM    3  O1  UNL     1       0.507   2.483  -1.861  1.00  0.00    -0.265 OA
HETATM    4  O2  UNL     1       1.828   1.388  -0.369  1.00  0.00    -0.312 OA
HETATM    5  C5  UNL     1       1.779   0.361   0.639  1.00  0.00     0.164 C 
HETATM    6  C8  UNL     1       0.625  -0.568   0.423  1.00  0.00     0.022 C 
HETATM    7  C9  UNL     1       0.606  -1.517   1.612  1.00  0.00     0.013 C 
HETATM    8  C10 UNL     1      -0.721   0.107   0.282  1.00  0.00     0.043 C 
ENDROOT
BRANCH   8   9
HETATM    9  C11 UNL     1      -1.652  -0.629  -0.614  1.00  0.00     0.056 C 
HETATM   10  C12 UNL     1      -3.084  -0.163  -0.530  1.00  0.00     0.045 C 
HETATM   11  C13 UNL     1      -1.706  -2.125  -0.292  1.00  0.00     0.045 C 
BRANCH   9  12
HETATM   12  O4  UNL     1      -1.259  -0.595  -1.959  1.00  0.00    -0.390 OA
ATOM     13  H4  UNL     1      -1.854  -1.065  -2.531  1.00  0.00     0.210 HD
ENDBRANCH   9  12
ENDBRANCH   8   9
BRANCH   1  14
HETATM   14  C2  UNL     1      -1.651   2.368  -0.392  1.00  0.00    -0.022 C 
HETATM   15  C1  UNL     1      -2.131   3.361   0.338  1.00  0.00     0.008 C 
ENDBRANCH   1  14
BRANCH   5  16
HETATM   16  C6  UNL     1       3.073  -0.420   0.370  1.00  0.00     0.144 C 
HETATM   17  C7  UNL     1       3.185  -0.763  -1.095  1.00  0.00     0.042 C 
BRANCH  16  18
HETATM   18  O3  UNL     1       3.259  -1.468   1.215  1.00  0.00    -0.393 OA
ATOM     19  H3  UNL     1       4.060  -1.951   1.049  1.00  0.00     0.210 HD
ENDBRANCH  16  18
ENDBRANCH   5  16
TORSDOF 5
