REMARK  3 active torsions:
REMARK  status: ('A' for Active; 'I' for Inactive)
REMARK    1  A    between atoms: C2_2  and  N1_4 
REMARK       I    between atoms: N1_4  and  C4_6 
REMARK       I    between atoms: C4_6  and  N2_8 
REMARK       I    between atoms: N2_8  and  C5_10 
REMARK    2  A    between atoms: C5_10  and  C6_12 
REMARK    3  A    between atoms: C10_16  and  N3_17 
ROOT
HETATM    1  N1  UNL     1      -2.396   0.418   0.092  1.00  0.00    -0.339 N 
ATOM      2  H1  UNL     1      -1.881   0.761   0.903  1.00  0.00     0.164 HD
HETATM    3  C4  UNL     1      -1.708  -0.261  -0.922  1.00  0.00     0.323 C 
HETATM    4  O1  UNL     1      -2.413  -0.674  -1.927  1.00  0.00    -0.247 OA
HETATM    5  N2  UNL     1      -0.349  -0.541  -0.966  1.00  0.00    -0.275 N 
ATOM      6  H2  UNL     1      -0.004  -1.048  -1.781  1.00  0.00     0.173 HD
HETATM    7  C5  UNL     1       0.588  -0.189   0.009  1.00  0.00     0.259 C 
HETATM    8  O2  UNL     1       0.280   0.432   1.038  1.00  0.00    -0.267 OA
ENDROOT
BRANCH   7   9
HETATM    9  C6  UNL     1       2.011  -0.535  -0.128  1.00  0.00     0.034 A 
HETATM   10  C7  UNL     1       2.478  -1.379  -1.099  1.00  0.00     0.017 A 
HETATM   11  C8  UNL     1       3.835  -1.683  -1.203  1.00  0.00     0.003 A 
HETATM   12  C9  UNL     1       4.745  -1.143  -0.331  1.00  0.00     0.036 A 
HETATM   13  C10 UNL     1       4.307  -0.274   0.679  1.00  0.00     0.103 A 
HETATM   14  C11 UNL     1       2.960  -0.010   0.734  1.00  0.00     0.053 A 
BRANCH  13  15
HETATM   15  N3  UNL     1       5.240   0.293   1.590  1.00  0.00    -0.116 N 
HETATM   16  O3  UNL     1       6.444   0.018   1.491  1.00  0.00    -0.532 OA
HETATM   17  O4  UNL     1       4.839   1.142   2.582  1.00  0.00    -0.532 OA
ENDBRANCH  13  15
ENDBRANCH   7   9
BRANCH   1  18
HETATM   18  C2  UNL     1      -3.851   0.646   0.008  1.00  0.00     0.078 C 
HETATM   19  C1  UNL     1      -4.157   2.107   0.078  1.00  0.00     0.032 C 
HETATM   20  C3  UNL     1      -4.482  -0.068   1.168  1.00  0.00     0.032 C 
ENDBRANCH   1  18
TORSDOF 3
