REMARK  7 active torsions:
REMARK  status: ('A' for Active; 'I' for Inactive)
REMARK    1  A    between atoms: C4_4  and  C5_5 
REMARK    2  A    between atoms: C8_9  and  O1_10 
REMARK    3  A    between atoms: C9_12  and  N2_13 
REMARK       I    between atoms: N2_13  and  C10_15 
REMARK    4  A    between atoms: C10_15  and  C11_17 
REMARK    5  A    between atoms: C11_17  and  C12_18 
REMARK    6  A    between atoms: C11_17  and  C14_22 
REMARK    7  A    between atoms: C12_18  and  C13_19 
ROOT
HETATM    1  C5  UNL     1      -3.738   1.568   0.562  1.00  0.00    -0.008 C 
HETATM    2  C6  UNL     1      -4.658   2.487   0.302  1.00  0.00     0.090 C 
HETATM    3  C7  UNL     1      -5.540   2.375  -0.806  1.00  0.00     0.087 C 
HETATM    4  N1  UNL     1      -6.278   2.302  -1.721  1.00  0.00    -0.192 NA
ENDROOT
BRANCH   1   5
HETATM    5  C4  UNL     1      -3.555   0.365  -0.269  1.00  0.00     0.048 C 
HETATM    6  C2  UNL     1      -3.953  -0.891   0.466  1.00  0.00    -0.025 C 
HETATM    7  C1  UNL     1      -5.135  -0.603   1.334  1.00  0.00     0.016 C 
HETATM    8  C3  UNL     1      -4.419  -1.884  -0.609  1.00  0.00     0.016 C 
HETATM    9  C23 UNL     1      -2.878  -1.530   1.235  1.00  0.00     0.102 C 
HETATM   10  C20 UNL     1      -1.503  -1.531   0.592  1.00  0.00     0.050 C 
HETATM   11  C22 UNL     1      -2.606  -0.968   2.556  1.00  0.00     0.264 C 
HETATM   12  C9  UNL     1      -1.145  -0.136   0.171  1.00  0.00     0.120 C 
HETATM   13  C21 UNL     1      -0.711  -2.015   1.791  1.00  0.00     0.186 C 
HETATM   14  C8  UNL     1      -2.189   0.269  -0.869  1.00  0.00     0.149 C 
HETATM   15  O5  UNL     1      -1.239  -1.180   2.804  1.00  0.00    -0.321 OA
HETATM   16  O6  UNL     1      -3.329  -0.390   3.407  1.00  0.00    -0.265 OA
BRANCH  12  17
HETATM   17  N2  UNL     1       0.142  -0.003  -0.475  1.00  0.00    -0.353 N 
HETATM   18  C10 UNL     1       1.034   1.026  -0.093  1.00  0.00     0.223 C 
HETATM   19  O2  UNL     1       0.745   1.826   0.806  1.00  0.00    -0.273 OA
ATOM     20  H2  UNL     1       0.408  -0.656  -1.212  1.00  0.00     0.163 HD
BRANCH  18  21
HETATM   21  C11 UNL     1       2.391   1.201  -0.773  1.00  0.00     0.092 C 
BRANCH  21  22
HETATM   22  C12 UNL     1       2.940   2.433  -0.213  1.00  0.00     0.127 C 
BRANCH  22  23
HETATM   23  C13 UNL     1       4.234   2.952  -0.642  1.00  0.00     0.173 C 
HETATM   24  O3  UNL     1       5.262   2.842   0.073  1.00  0.00    -0.648 OA
HETATM   25  O4  UNL     1       4.440   3.605  -1.861  1.00  0.00    -0.648 OA
ENDBRANCH  22  23
ENDBRANCH  21  22
BRANCH  21  26
HETATM   26  C14 UNL     1       3.126  -0.100  -0.653  1.00  0.00    -0.001 C 
HETATM   27  C15 UNL     1       4.451  -0.211  -1.288  1.00  0.00     0.011 C 
HETATM   28  C16 UNL     1       5.616  -0.659  -0.501  1.00  0.00     0.079 C 
HETATM   29  C17 UNL     1       5.184  -1.726   0.482  1.00  0.00     0.243 C 
HETATM   30  F1  UNL     1       6.286  -2.181   1.196  1.00  0.00    -0.206 F 
HETATM   31  F2  UNL     1       4.478  -2.740  -0.093  1.00  0.00    -0.206 F 
HETATM   32  C18 UNL     1       4.274  -0.968   1.444  1.00  0.00     0.079 C 
HETATM   33  C19 UNL     1       3.006  -0.706   0.726  1.00  0.00     0.011 C 
ENDBRANCH  21  26
ENDBRANCH  18  21
ENDBRANCH  12  17
BRANCH  14  34
HETATM   34  O1  UNL     1      -1.844   1.506  -1.406  1.00  0.00    -0.393 OA
ATOM     35  H1  UNL     1      -0.976   1.445  -1.787  1.00  0.00     0.210 HD
ENDBRANCH  14  34
ENDBRANCH   1   5
TORSDOF 7
