REMARK  7 active torsions:
REMARK  status: ('A' for Active; 'I' for Inactive)
REMARK    1  A    between atoms: C1_2  and  C2_3 
REMARK    2  A    between atoms: C3_4  and  C4_5 
REMARK    3  A    between atoms: C7_8  and  C8_9 
REMARK    4  A    between atoms: C8_9  and  N2_10 
REMARK    5  A    between atoms: N2_10  and  S1_12 
REMARK    6  A    between atoms: S1_12  and  C9_15 
REMARK    7  A    between atoms: N3_24  and  O4_26 
ROOT
HETATM    1  C8  UNL     1      -0.885  -0.224  -0.222  1.00  0.00     0.197 C 
ENDROOT
BRANCH   1   2
HETATM    2  C7  UNL     1       0.458   0.426  -0.233  1.00  0.00     0.072 A 
HETATM    3  C6  UNL     1       0.703   1.778   0.011  1.00  0.00     0.037 A 
HETATM    4  C5  UNL     1       2.064   1.989  -0.089  1.00  0.00     0.040 A 
HETATM    5  C4  UNL     1       2.588   0.760  -0.388  1.00  0.00     0.075 A 
HETATM    6  O3  UNL     1       1.627  -0.121  -0.463  1.00  0.00    -0.313 OA
BRANCH   5   7
HETATM    7  C3  UNL     1       4.036   0.524  -0.587  1.00  0.00     0.040 C 
HETATM    8  C2  UNL     1       4.405  -0.705  -0.869  1.00  0.00     0.049 C 
BRANCH   8   9
HETATM    9  C1  UNL     1       5.756  -1.097  -1.088  1.00  0.00     0.135 C 
HETATM   10  N1  UNL     1       5.987  -2.506  -1.393  1.00  0.00    -0.081 NA
HETATM   11  N3  UNL     1       6.757  -0.351  -1.045  1.00  0.00    -0.255 N 
ATOM     12  H3  UNL     1       7.624  -0.853  -1.237  1.00  0.00     0.195 HD
BRANCH  11  13
HETATM   13  O4  UNL     1       6.959   0.928  -0.811  1.00  0.00    -0.288 OA
ATOM     14  H4  UNL     1       7.720   1.495  -0.778  1.00  0.00     0.244 HD
ENDBRANCH  11  13
ENDBRANCH   8   9
ENDBRANCH   5   7
ENDBRANCH   1   2
BRANCH   1  15
HETATM   15  N2  UNL     1      -1.132  -0.675   1.121  1.00  0.00    -0.309 N 
ATOM     16  H2  UNL     1      -0.471  -0.546   1.887  1.00  0.00     0.172 HD
BRANCH  15  17
HETATM   17  S1  UNL     1      -2.647  -1.451   1.305  1.00  0.00     0.259 S 
HETATM   18  O1  UNL     1      -2.773  -1.831   2.773  1.00  0.00    -0.201 OA
HETATM   19  O2  UNL     1      -2.740  -2.702   0.518  1.00  0.00    -0.201 OA
BRANCH  17  20
HETATM   20  C9  UNL     1      -3.988  -0.405   0.943  1.00  0.00     0.082 A 
HETATM   21  C10 UNL     1      -4.475  -0.343  -0.347  1.00  0.00     0.044 A 
HETATM   22  C11 UNL     1      -5.545   0.477  -0.689  1.00  0.00     0.013 A 
HETATM   23 BR1  UNL     1      -6.148   0.490  -2.517  1.00  0.00    -0.051 Br
HETATM   24  C12 UNL     1      -6.158   1.261   0.259  1.00  0.00     0.038 A 
HETATM   25  C13 UNL     1      -5.683   1.210   1.551  1.00  0.00     0.013 A 
HETATM   26 BR2  UNL     1      -6.547   2.305   2.848  1.00  0.00    -0.051 Br
HETATM   27  C14 UNL     1      -4.616   0.389   1.881  1.00  0.00     0.044 A 
ENDBRANCH  17  20
ENDBRANCH  15  17
ENDBRANCH   1  15
TORSDOF 7
