REMARK  2 active torsions:
REMARK  status: ('A' for Active; 'I' for Inactive)
REMARK    1  A    between atoms: C2_2  and  N2_7 
REMARK    2  A    between atoms: N1_3  and  O1_5 
ROOT
HETATM    1  N2  UNL     1      -0.852  -0.024   0.026  1.00  0.00    -0.318 N 
HETATM    2  C3  UNL     1      -0.037  -1.226   0.080  1.00  0.00     0.402 C 
HETATM    3  N3  UNL     1       1.172  -0.928  -0.672  1.00  0.00     0.129 N 
HETATM    4  C4  UNL     1       1.953  -2.141  -0.790  1.00  0.00     0.314 C 
HETATM    5  C5  UNL     1       1.872   0.109   0.039  1.00  0.00     0.545 C 
HETATM    6  N4  UNL     1       1.141   1.329  -0.000  1.00  0.00     0.129 N 
HETATM    7  C6  UNL     1       1.762   2.325   0.877  1.00  0.00     0.314 C 
HETATM    8  C7  UNL     1      -0.228   1.191   0.463  1.00  0.00     0.402 C 
ENDROOT
BRANCH   1   9
HETATM    9  C2  UNL     1      -2.184  -0.015  -0.426  1.00  0.00     0.098 C 
HETATM   10  C1  UNL     1      -2.555   0.200  -1.836  1.00  0.00     0.091 C 
HETATM   11  N1  UNL     1      -3.123  -0.204   0.446  1.00  0.00    -0.257 N 
ATOM     12  H1  UNL     1      -4.093  -0.199   0.131  1.00  0.00     0.195 HD
BRANCH  11  13
HETATM   13  O1  UNL     1      -2.863  -0.411   1.778  1.00  0.00    -0.288 OA
ATOM     14  H1  UNL     1      -3.552  -0.550   2.418  1.00  0.00     0.244 HD
ENDBRANCH  11  13
ENDBRANCH   1   9
TORSDOF 2
