REMARK  1 active torsions:
REMARK  status: ('A' for Active; 'I' for Inactive)
REMARK    1  A    between atoms: N1_1  and  N2_4 
ROOT
HETATM    1  N2  UNL     1       2.044  -0.432   0.408  1.00  0.00    -0.110 NA
HETATM    2  C1  UNL     1       0.909  -1.291   0.339  1.00  0.00     0.181 C 
HETATM    3  C2  UNL     1      -0.377  -0.506   0.452  1.00  0.00     0.240 C 
HETATM    4  C3  UNL     1      -1.573  -1.404   0.165  1.00  0.00     0.039 C 
HETATM    5  C4  UNL     1      -2.639  -0.316  -0.020  1.00  0.00     0.032 C 
HETATM    6  C5  UNL     1      -1.855   0.621  -0.950  1.00  0.00     0.273 C 
HETATM    7  N3  UNL     1      -0.477   0.527  -0.537  1.00  0.00     0.096 N 
HETATM    8  C6  UNL     1       0.001   1.778   0.029  1.00  0.00     0.301 C 
HETATM    9  C7  UNL     1       1.495   1.740   0.175  1.00  0.00     0.226 C 
HETATM   10  O1  UNL     1       1.996   0.591  -0.455  1.00  0.00    -0.283 OA
ENDROOT
BRANCH   1  11
HETATM   11  N1  UNL     1       3.200  -1.198   0.156  1.00  0.00    -0.341 NA
ATOM     12  H12 UNL     1       3.237  -1.977   0.813  1.00  0.00     0.173 HD
ATOM     13  H11 UNL     1       4.012  -0.583   0.205  1.00  0.00     0.173 HD
ENDBRANCH   1  11
TORSDOF 1
