REMARK  12 active torsions:
REMARK  status: ('A' for Active; 'I' for Inactive)
REMARK    1  A    between atoms: C2_2  and  C3_3 
REMARK    2  A    between atoms: C3_3  and  C4_4 
REMARK    3  A    between atoms: C6_7  and  C7_8 
REMARK    4  A    between atoms: C7_8  and  C8_9 
REMARK    5  A    between atoms: C8_9  and  C9_11 
REMARK    6  A    between atoms: C9_11  and  O4_13 
REMARK    7  A    between atoms: C15_20  and  C16_21 
REMARK    8  A    between atoms: C18_24  and  O7_25 
REMARK    9  A    between atoms: C26_34  and  C27_35 
REMARK   10  A    between atoms: C27_35  and  C28_37 
REMARK   11  A    between atoms: C28_37  and  C29_38 
REMARK   12  A    between atoms: C34_43  and  O9_44 
ROOT
HETATM    1  C4  UNL     1      -2.770  -0.123   1.702  1.00  0.00     0.065 C 
HETATM    2  C5  UNL     1      -3.823   0.628   0.951  1.00  0.00     0.144 C 
HETATM    3  O1  UNL     1      -4.996   0.923   1.040  1.00  0.00    -0.296 OA
HETATM    4  C6  UNL     1      -2.710   0.882  -0.048  1.00  0.00     0.050 C 
HETATM    5  C11 UNL     1      -3.130   0.957  -1.463  1.00  0.00    -0.008 C 
HETATM    6  C12 UNL     1      -2.714   0.503  -2.587  1.00  0.00     0.003 C 
HETATM    7  C13 UNL     1      -1.677  -0.297  -3.187  1.00  0.00    -0.039 C 
HETATM    8  C14 UNL     1      -2.054  -1.769  -3.087  1.00  0.00     0.198 A 
HETATM    9  O5  UNL     1      -2.887  -2.016  -2.077  1.00  0.00    -0.353 OA
HETATM   10  C15 UNL     1      -1.614  -2.431  -1.786  1.00  0.00     0.182 A 
HETATM   11  C18 UNL     1      -0.543  -1.682  -1.063  1.00  0.00     0.108 C 
HETATM   12  C19 UNL     1      -0.928  -0.826   0.053  1.00  0.00     0.049 C 
HETATM   13  C20 UNL     1      -2.334  -0.500   0.300  1.00  0.00     0.020 C 
HETATM   14  C21 UNL     1       0.433  -1.150  -2.084  1.00  0.00     0.009 C 
HETATM   15  C22 UNL     1       0.929  -2.422  -2.811  1.00  0.00     0.020 C 
HETATM   16  C23 UNL     1       1.664  -0.458  -1.692  1.00  0.00     0.037 C 
HETATM   17  C24 UNL     1       2.271  -0.513  -0.377  1.00  0.00     0.001 C 
HETATM   18  C25 UNL     1       3.428  -1.534  -0.290  1.00  0.00     0.011 C 
HETATM   19  C26 UNL     1       2.930   0.844  -0.251  1.00  0.00     0.062 C 
HETATM   20  C33 UNL     1       2.002   1.795  -1.005  1.00  0.00     0.050 C 
HETATM   21  C34 UNL     1       1.647   0.974  -2.192  1.00  0.00     0.064 C 
HETATM   22  C35 UNL     1       0.331   1.191  -2.805  1.00  0.00     0.053 C 
HETATM   23  C36 UNL     1      -0.235  -0.171  -3.027  1.00  0.00    -0.004 C 
HETATM   24  C37 UNL     1       0.412  -0.543  -4.402  1.00  0.00     0.021 C 
ENDROOT
BRANCH   4  25
HETATM   25  C7  UNL     1      -2.003   2.084   0.448  1.00  0.00     0.111 C 
BRANCH  25  26
HETATM   26  C8  UNL     1      -2.958   3.257   0.522  1.00  0.00     0.225 C 
HETATM   27  O2  UNL     1      -3.345   3.748  -0.573  1.00  0.00    -0.287 OA
BRANCH  26  28
HETATM   28  C9  UNL     1      -3.428   3.819   1.758  1.00  0.00     0.329 C 
HETATM   29  O3  UNL     1      -3.028   3.320   2.854  1.00  0.00    -0.256 OA
BRANCH  28  30
HETATM   30  O4  UNL     1      -4.300   4.879   1.859  1.00  0.00    -0.320 OA
HETATM   31  C10 UNL     1      -4.736   5.399   3.114  1.00  0.00     0.213 C 
ENDBRANCH  28  30
ENDBRANCH  26  28
ENDBRANCH  25  26
ENDBRANCH   4  25
BRANCH   1  32
HETATM   32  C3  UNL     1      -3.412  -1.299   2.482  1.00  0.00     0.039 C 
BRANCH  32  33
HETATM   33  C2  UNL     1      -2.369  -2.039   3.226  1.00  0.00    -0.036 C 
HETATM   34  C1  UNL     1      -2.170  -3.318   2.971  1.00  0.00     0.007 C 
ENDBRANCH  32  33
ENDBRANCH   1  32
BRANCH  11  35
HETATM   35  O7  UNL     1       0.247  -2.716  -0.450  1.00  0.00    -0.385 OA
ATOM     36  H7  UNL     1       0.928  -2.240   0.010  1.00  0.00     0.210 HD
ENDBRANCH  11  35
BRANCH  10  37
HETATM   37  C16 UNL     1      -1.690  -3.911  -1.678  1.00  0.00     0.163 C 
HETATM   38  C17 UNL     1      -2.972  -4.611  -1.942  1.00  0.00     0.094 C 
HETATM   39  O6  UNL     1      -0.755  -4.635  -1.380  1.00  0.00    -0.295 OA
ENDBRANCH  10  37
BRANCH  21  40
HETATM   40  O9  UNL     1       2.632   1.263  -3.147  1.00  0.00    -0.389 OA
ATOM     41  H9  UNL     1       2.621   2.160  -3.460  1.00  0.00     0.210 HD
ENDBRANCH  21  40
BRANCH  19  42
HETATM   42  C27 UNL     1       3.149   1.293   1.134  1.00  0.00     0.132 C 
HETATM   43  O8  UNL     1       2.654   2.312   1.556  1.00  0.00    -0.298 OA
BRANCH  42  44
HETATM   44  C28 UNL     1       3.997   0.481   2.035  1.00  0.00     0.083 C 
BRANCH  44  45
HETATM   45  C29 UNL     1       4.098   1.146   3.416  1.00  0.00    -0.003 A 
HETATM   46  C30 UNL     1       4.892   0.519   4.481  1.00  0.00     0.010 A 
HETATM   47  C31 UNL     1       5.373   1.788   3.777  1.00  0.00    -0.014 A 
HETATM   48  C32 UNL     1       6.604   1.601   2.904  1.00  0.00     0.010 C 
ENDBRANCH  44  45
ENDBRANCH  42  44
ENDBRANCH  19  42
TORSDOF 12
