REMARK  11 active torsions:
REMARK  status: ('A' for Active; 'I' for Inactive)
REMARK    1  A    between atoms: C1_2  and  C2_4 
REMARK    2  A    between atoms: C2_4  and  N2_5 
REMARK    3  A    between atoms: N2_5  and  C3_7 
REMARK    4  A    between atoms: C3_7  and  N3_9 
REMARK    5  A    between atoms: N3_9  and  N4_11 
REMARK    6  A    between atoms: C4_13  and  C5_14 
REMARK    7  A    between atoms: C7_16  and  O2_17 
REMARK    8  A    between atoms: C8_19  and  O3_20 
REMARK    9  A    between atoms: O3_20  and  S2_21 
REMARK   10  A    between atoms: S2_21  and  N5_22 
REMARK   11  A    between atoms: C9_27  and  N6_28 
ROOT
HETATM    1  C5  UNL     1       0.283  -1.040  -0.997  1.00  0.00    -0.014 A 
HETATM    2  C6  UNL     1       0.649  -0.314  -2.132  1.00  0.00     0.052 A 
HETATM    3  C7  UNL     1       1.895   0.256  -2.127  1.00  0.00     0.103 A 
HETATM    4  C8  UNL     1       2.782   0.134  -1.047  1.00  0.00     0.157 A 
HETATM    5  C9  UNL     1       2.402  -0.585   0.056  1.00  0.00     0.141 A 
HETATM    6  C10 UNL     1       1.147  -1.165   0.063  1.00  0.00     0.052 A 
ENDROOT
BRANCH   1   7
HETATM    7  C4  UNL     1      -1.020  -1.676  -0.933  1.00  0.00     0.118 C 
HETATM    8  N4  UNL     1      -1.342  -2.332   0.121  1.00  0.00    -0.309 N 
ATOM      9  H4  UNL     1      -0.657  -2.377   0.875  1.00  0.00     0.186 HD
BRANCH   8  10
HETATM   10  N3  UNL     1      -2.555  -2.988   0.315  1.00  0.00    -0.277 N 
ATOM     11  H3  UNL     1      -2.609  -4.003   0.227  1.00  0.00     0.189 HD
BRANCH  10  12
HETATM   12  C3  UNL     1      -3.701  -2.247   0.631  1.00  0.00     0.186 C 
HETATM   13  S1  UNL     1      -5.116  -3.003   0.859  1.00  0.00    -0.040 SA
BRANCH  12  14
HETATM   14  N2  UNL     1      -3.646  -0.844   0.753  1.00  0.00    -0.358 N 
ATOM     15  H2  UNL     1      -2.751  -0.377   0.606  1.00  0.00     0.162 HD
BRANCH  14  16
HETATM   16  C2  UNL     1      -4.803  -0.034   1.078  1.00  0.00     0.221 C 
BRANCH  16  17
HETATM   17  C1  UNL     1      -4.413   1.380   1.087  1.00  0.00     0.248 C 
HETATM   18  N1  UNL     1      -3.089   1.765   0.803  1.00  0.00    -0.061 NA
HETATM   19  O1  UNL     1      -5.258   2.258   1.348  1.00  0.00    -0.275 OA
ENDBRANCH  16  17
ENDBRANCH  14  16
ENDBRANCH  12  14
ENDBRANCH  10  12
ENDBRANCH   8  10
ENDBRANCH   1   7
BRANCH   3  20
HETATM   20  O2  UNL     1       2.358   1.005  -3.216  1.00  0.00    -0.358 OA
ATOM     21  H2  UNL     1       3.222   1.400  -3.213  1.00  0.00     0.217 HD
ENDBRANCH   3  20
BRANCH   5  22
HETATM   22  N6  UNL     1       3.211  -0.818   1.193  1.00  0.00    -0.113 N 
HETATM   23  O6  UNL     1       4.053  -0.064   1.675  1.00  0.00    -0.532 OA
HETATM   24  O7  UNL     1       3.078  -2.036   1.887  1.00  0.00    -0.532 OA
ENDBRANCH   5  22
BRANCH   4  25
HETATM   25  O3  UNL     1       4.032   0.739  -1.113  1.00  0.00    -0.211 OA
BRANCH  25  26
HETATM   26  S2  UNL     1       4.269   2.341  -0.631  1.00  0.00     0.360 S 
HETATM   27  O4  UNL     1       3.120   2.780   0.210  1.00  0.00    -0.176 OA
HETATM   28  O5  UNL     1       4.255   3.202  -1.878  1.00  0.00    -0.176 OA
BRANCH  26  29
HETATM   29  N5  UNL     1       5.753   2.600   0.206  1.00  0.00    -0.305 N 
ATOM     30  H52 UNL     1       6.416   1.846   0.386  1.00  0.00     0.171 HD
ATOM     31  H51 UNL     1       5.896   3.567   0.497  1.00  0.00     0.171 HD
ENDBRANCH  26  29
ENDBRANCH  25  26
ENDBRANCH   4  25
TORSDOF 11
