REMARK  11 active torsions:
REMARK  status: ('A' for Active; 'I' for Inactive)
REMARK    1  A    between atoms: N1_2  and  C2_3 
REMARK    2  A    between atoms: N1_2  and  C10_12 
REMARK    3  A    between atoms: C2_3  and  C3_4 
REMARK    4  A    between atoms: C3_4  and  C4_5 
REMARK    5  A    between atoms: C4_5  and  N2_6 
REMARK    6  A    between atoms: C10_12  and  C11_13 
REMARK    7  A    between atoms: C10_12  and  C17_21 
REMARK    8  A    between atoms: C11_13  and  C12_14 
REMARK    9  A    between atoms: C12_14  and  O2_16 
REMARK   10  A    between atoms: O2_16  and  C13_17 
REMARK   11  A    between atoms: C17_21  and  N3_22 
ROOT
HETATM    1  C10 UNL     1      -1.328  -0.666  -1.020  1.00  0.00     0.250 C 
ENDROOT
BRANCH   1   2
HETATM    2  N1  UNL     1       0.022  -0.721  -0.571  1.00  0.00     0.091 N 
HETATM    3  C1  UNL     1       0.166  -1.610   0.588  1.00  0.00     0.310 C 
BRANCH   2   4
HETATM    4  C2  UNL     1       0.928  -1.192  -1.624  1.00  0.00     0.274 C 
BRANCH   4   5
HETATM    5  C3  UNL     1       2.363  -1.079  -1.228  1.00  0.00     0.060 C 
BRANCH   5   6
HETATM    6  C4  UNL     1       2.830   0.312  -0.892  1.00  0.00     0.274 C 
BRANCH   6   7
HETATM    7  N2  UNL     1       4.233   0.212  -0.503  1.00  0.00     0.088 N 
HETATM    8  C5  UNL     1       4.806   1.514  -0.224  1.00  0.00     0.272 C 
HETATM    9  C6  UNL     1       6.321   1.268  -0.134  1.00  0.00     0.030 C 
HETATM   10  C7  UNL     1       6.584   0.461   1.142  1.00  0.00     0.003 C 
HETATM   11  C8  UNL     1       5.295  -0.065   1.715  1.00  0.00     0.030 C 
HETATM   12  C9  UNL     1       4.374  -0.640   0.663  1.00  0.00     0.272 C 
ENDBRANCH   6   7
ENDBRANCH   5   6
ENDBRANCH   4   5
ENDBRANCH   2   4
ENDBRANCH   1   2
BRANCH   1  13
HETATM   13  C11 UNL     1      -1.935  -1.895  -1.616  1.00  0.00     0.148 C 
BRANCH  13  14
HETATM   14  C12 UNL     1      -2.031  -3.099  -0.815  1.00  0.00     0.261 C 
HETATM   15  O1  UNL     1      -1.343  -4.117  -1.175  1.00  0.00    -0.265 OA
BRANCH  14  16
HETATM   16  O2  UNL     1      -2.801  -3.274   0.317  1.00  0.00    -0.311 OA
BRANCH  16  17
HETATM   17  C13 UNL     1      -2.883  -4.450   1.067  1.00  0.00     0.060 C 
HETATM   18  C14 UNL     1      -3.425  -5.536   0.134  1.00  0.00     0.045 C 
HETATM   19  C15 UNL     1      -1.576  -4.909   1.669  1.00  0.00     0.045 C 
HETATM   20  C16 UNL     1      -3.878  -4.285   2.185  1.00  0.00     0.045 C 
ENDBRANCH  16  17
ENDBRANCH  14  16
ENDBRANCH  13  14
ENDBRANCH   1  13
BRANCH   1  21
HETATM   21  C17 UNL     1      -1.620   0.455  -1.933  1.00  0.00     0.171 C 
BRANCH  21  22
HETATM   22  N3  UNL     1      -1.451   1.784  -1.490  1.00  0.00    -0.286 N 
HETATM   23  C18 UNL     1      -0.339   2.672  -1.571  1.00  0.00     0.227 C 
HETATM   24  O3  UNL     1       0.502   2.617  -2.485  1.00  0.00    -0.273 OA
HETATM   25  C19 UNL     1      -0.455   3.587  -0.383  1.00  0.00     0.122 C 
HETATM   26  C20 UNL     1      -1.956   3.786  -0.365  1.00  0.00     0.050 C 
HETATM   27  C21 UNL     1      -2.414   4.860  -1.324  1.00  0.00     0.020 C 
HETATM   28  C24 UNL     1      -2.404   4.194   0.998  1.00  0.00     0.020 C 
HETATM   29  C25 UNL     1      -2.525   2.489  -0.805  1.00  0.00     0.235 C 
HETATM   30  C22 UNL     1      -3.727   5.283  -0.671  1.00  0.00     0.001 C 
HETATM   31  C23 UNL     1      -3.357   5.343   0.780  1.00  0.00     0.001 C 
HETATM   32  O4  UNL     1      -3.707   2.084  -0.618  1.00  0.00    -0.272 OA
ENDBRANCH  21  22
ENDBRANCH   1  21
TORSDOF 11
