REMARK  6 active torsions:
REMARK  status: ('A' for Active; 'I' for Inactive)
REMARK    1  A    between atoms: O1_2  and  C2_3 
REMARK    2  A    between atoms: C5_6  and  N1_7 
REMARK    3  A    between atoms: C8_12  and  O4_13 
REMARK    4  A    between atoms: C10_16  and  O5_17 
REMARK    5  A    between atoms: C12_19  and  O6_20 
REMARK    6  A    between atoms: C14_22  and  O7_23 
ROOT
HETATM    1  C2  UNL     1      -3.201   0.783   0.786  1.00  0.00     0.105 A 
HETATM    2  C3  UNL     1      -1.978   1.357   1.058  1.00  0.00     0.054 A 
HETATM    3  C4  UNL     1      -0.852   0.753   0.532  1.00  0.00     0.016 A 
HETATM    4  C5  UNL     1       0.357   1.354   0.808  1.00  0.00     0.122 A 
HETATM    5  C6  UNL     1       1.494   0.798   0.297  1.00  0.00     0.005 A 
HETATM    6  C7  UNL     1       1.436  -0.368  -0.499  1.00  0.00     0.017 A 
HETATM    7  C8  UNL     1       0.254  -0.963  -0.774  1.00  0.00     0.089 A 
HETATM    8  C9  UNL     1      -0.927  -0.387  -0.242  1.00  0.00     0.047 A 
HETATM    9  C10 UNL     1      -2.157  -0.941  -0.499  1.00  0.00     0.118 A 
HETATM   10  C12 UNL     1      -3.321  -0.352   0.020  1.00  0.00     0.136 A 
HETATM   11  C14 UNL     1       2.742  -0.820  -0.960  1.00  0.00     0.174 C 
HETATM   12  C16 UNL     1       3.653  -0.727   0.299  1.00  0.00     0.153 C 
HETATM   13  N2  UNL     1       3.929   0.661   0.480  1.00  0.00    -0.410 N 
HETATM   14  C17 UNL     1       4.998   0.969   1.371  1.00  0.00     0.143 C 
HETATM   15  C18 UNL     1       2.772   1.484   0.605  1.00  0.00     0.158 C 
ENDROOT
BRANCH   4  16
HETATM   16  N1  UNL     1       0.393   2.539   1.632  1.00  0.00    -0.114 N 
HETATM   17  O2  UNL     1       0.074   3.652   1.160  1.00  0.00    -0.532 OA
HETATM   18  O3  UNL     1       0.775   2.490   2.943  1.00  0.00    -0.532 OA
ENDBRANCH   4  16
BRANCH   1  19
HETATM   19  O1  UNL     1      -4.327   1.395   1.317  1.00  0.00    -0.353 OA
HETATM   20  C1  UNL     1      -4.237   2.545   2.097  1.00  0.00     0.210 C 
ENDBRANCH   1  19
BRANCH   7  21
HETATM   21  O4  UNL     1       0.085  -2.086  -1.531  1.00  0.00    -0.359 OA
ATOM     22  H4  UNL     1      -0.746  -2.504  -1.724  1.00  0.00     0.217 HD
ENDBRANCH   7  21
BRANCH   9  23
HETATM   23  O5  UNL     1      -2.311  -2.088  -1.260  1.00  0.00    -0.352 OA
HETATM   24  C11 UNL     1      -2.375  -3.330  -0.542  1.00  0.00     0.210 C 
ENDBRANCH   9  23
BRANCH  11  25
HETATM   25  O7  UNL     1       2.882  -2.026  -1.555  1.00  0.00    -0.384 OA
HETATM   26  C15 UNL     1       3.580  -1.854  -2.776  1.00  0.00     0.202 C 
ENDBRANCH  11  25
BRANCH  10  27
HETATM   27  O6  UNL     1      -4.581  -0.882  -0.220  1.00  0.00    -0.351 OA
HETATM   28  C13 UNL     1      -5.275  -0.417  -1.366  1.00  0.00     0.210 C 
ENDBRANCH  10  27
TORSDOF 6
