REMARK  7 active torsions:
REMARK  status: ('A' for Active; 'I' for Inactive)
REMARK    1  A    between atoms: C2_2  and  C3_3 
REMARK    2  A    between atoms: C3_3  and  N1_4 
REMARK    3  A    between atoms: C6_9  and  C7_10 
REMARK    4  A    between atoms: C8_11  and  C9_12 
REMARK    5  A    between atoms: C9_12  and  C10_13 
REMARK    6  A    between atoms: C11_14  and  C12_15 
REMARK    7  A    between atoms: C12_15  and  O2_17 
ROOT
HETATM    1  C10 UNL     1      -1.124  -0.237  -0.346  1.00  0.00    -0.034 C 
HETATM    2  C11 UNL     1      -1.876   1.010  -0.415  1.00  0.00     0.043 C 
HETATM    3  C14 UNL     1      -3.104   0.924   0.178  1.00  0.00     0.020 C 
HETATM    4  C15 UNL     1      -3.559  -0.324   0.792  1.00  0.00     0.038 C 
HETATM    5  C16 UNL     1      -5.111  -0.403   0.725  1.00  0.00     0.042 C 
HETATM    6  C17 UNL     1      -3.223  -0.306   2.259  1.00  0.00     0.042 C 
HETATM    7  N3  UNL     1      -3.109  -1.538   0.172  1.00  0.00    -0.398 N 
ATOM      8  H3  UNL     1      -3.555  -2.437   0.355  1.00  0.00     0.155 HD
HETATM    9  C18 UNL     1      -1.976  -1.409  -0.735  1.00  0.00     0.044 C 
HETATM   10  C19 UNL     1      -2.508  -1.348  -2.127  1.00  0.00     0.043 C 
HETATM   11  C20 UNL     1      -1.154  -2.663  -0.540  1.00  0.00     0.043 C 
ENDROOT
BRANCH   1  12
HETATM   12  C9  UNL     1       0.285  -0.308  -0.764  1.00  0.00     0.065 C 
BRANCH  12  13
HETATM   13  C8  UNL     1       1.222   0.489   0.071  1.00  0.00    -0.020 C 
HETATM   14  C7  UNL     1       2.445   0.215   0.411  1.00  0.00     0.027 C 
BRANCH  14  15
HETATM   15  C6  UNL     1       3.300  -0.898   0.112  1.00  0.00     0.050 A 
HETATM   16  N1  UNL     1       4.508  -1.078   0.694  1.00  0.00    -0.338 N 
HETATM   17  C4  UNL     1       5.128  -2.171   0.224  1.00  0.00     0.183 A 
HETATM   18  N2  UNL     1       4.325  -2.715  -0.672  1.00  0.00    -0.360 N 
HETATM   19  C5  UNL     1       3.194  -1.955  -0.765  1.00  0.00     0.118 A 
ATOM     20  H2  UNL     1       4.517  -3.562  -1.206  1.00  0.00     0.166 HD
BRANCH  16  21
HETATM   21  C3  UNL     1       5.140  -0.229   1.703  1.00  0.00     0.156 C 
BRANCH  21  22
HETATM   22  C2  UNL     1       5.996   0.798   1.081  1.00  0.00    -0.017 C 
HETATM   23  C1  UNL     1       5.802   2.079   1.253  1.00  0.00     0.008 C 
ENDBRANCH  21  22
ENDBRANCH  16  21
ENDBRANCH  14  15
ENDBRANCH  12  13
ENDBRANCH   1  12
BRANCH   2  24
HETATM   24  C12 UNL     1      -1.482   2.217  -1.079  1.00  0.00     0.293 C 
HETATM   25  O1  UNL     1      -0.398   2.359  -1.676  1.00  0.00    -0.259 OA
BRANCH  24  26
HETATM   26  O2  UNL     1      -2.345   3.339  -1.084  1.00  0.00    -0.323 OA
HETATM   27  C13 UNL     1      -1.923   4.499  -1.744  1.00  0.00     0.213 C 
ENDBRANCH  24  26
ENDBRANCH   2  24
TORSDOF 7
