REMARK  7 active torsions:
REMARK  status: ('A' for Active; 'I' for Inactive)
REMARK    1  A    between atoms: C2_2  and  C4_4 
REMARK    2  A    between atoms: C4_4  and  C6_6 
REMARK    3  A    between atoms: C7_7  and  C8_8 
REMARK    4  A    between atoms: N1_9  and  N2_11 
REMARK    5  A    between atoms: N3_14  and  C11_15 
REMARK    6  A    between atoms: C17_21  and  O1_22 
REMARK    7  A    between atoms: C18_24  and  O2_25 
ROOT
HETATM    1  C6  UNL     1      -2.436   0.195   1.057  1.00  0.00    -0.003 A 
HETATM    2  C7  UNL     1      -1.224  -0.240   1.637  1.00  0.00    -0.009 A 
HETATM    3  C15 UNL     1      -1.338  -0.840   2.896  1.00  0.00     0.016 A 
HETATM    4  C16 UNL     1      -2.513  -1.018   3.564  1.00  0.00     0.040 A 
HETATM    5  C17 UNL     1      -3.654  -0.581   2.962  1.00  0.00     0.099 A 
HETATM    6  C18 UNL     1      -3.626   0.032   1.695  1.00  0.00     0.109 A 
ENDROOT
BRANCH   2   7
HETATM    7  C8  UNL     1       0.082  -0.099   1.067  1.00  0.00     0.119 C 
HETATM    8  N1  UNL     1       0.524   0.404  -0.003  1.00  0.00    -0.313 N 
ATOM      9  H1  UNL     1      -0.125   0.822  -0.670  1.00  0.00     0.185 HD
BRANCH   8  10
HETATM   10  N2  UNL     1       1.913   0.394  -0.287  1.00  0.00    -0.322 N 
HETATM   11  C9  UNL     1       2.377  -0.293  -1.439  1.00  0.00     0.187 C 
HETATM   12  C10 UNL     1       3.851  -0.527  -1.525  1.00  0.00     0.084 C 
HETATM   13  N3  UNL     1       4.658   0.391  -0.840  1.00  0.00    -0.371 N 
HETATM   14  C13 UNL     1       4.238   0.820   0.438  1.00  0.00     0.148 C 
HETATM   15  C14 UNL     1       2.791   1.082   0.598  1.00  0.00     0.163 C 
BRANCH  13  16
HETATM   16  C11 UNL     1       5.988   0.599  -1.231  1.00  0.00     0.059 C 
HETATM   17  C12 UNL     1       6.807  -0.649  -0.928  1.00  0.00     0.055 C 
ENDBRANCH  13  16
ENDBRANCH   8  10
ENDBRANCH   2   7
BRANCH   1  18
HETATM   18  C4  UNL     1      -2.354   0.803  -0.272  1.00  0.00     0.046 C 
HETATM   19  C5  UNL     1      -3.518   1.742  -0.621  1.00  0.00     0.020 C 
BRANCH  18  20
HETATM   20  C2  UNL     1      -2.328  -0.283  -1.326  1.00  0.00    -0.085 C 
HETATM   21  C1  UNL     1      -2.426  -1.561  -1.071  1.00  0.00     0.014 C 
HETATM   22  C3  UNL     1      -2.213   0.175  -2.743  1.00  0.00     0.043 C 
ENDBRANCH  18  20
ENDBRANCH   1  18
BRANCH   6  23
HETATM   23  O2  UNL     1      -4.862   0.392   1.240  1.00  0.00    -0.353 OA
HETATM   24  C19 UNL     1      -5.783  -0.454   0.571  1.00  0.00     0.210 C 
ENDBRANCH   6  23
BRANCH   5  25
HETATM   25  O1  UNL     1      -4.853  -0.758   3.639  1.00  0.00    -0.358 OA
ATOM     26  H1  UNL     1      -5.649  -0.453   3.219  1.00  0.00     0.217 HD
ENDBRANCH   5  25
TORSDOF 7
