REMARK  3 active torsions:
REMARK  status: ('A' for Active; 'I' for Inactive)
REMARK    1  A    between atoms: C1_2  and  N1_3 
REMARK       I    between atoms: N1_3  and  C2_5 
REMARK    2  A    between atoms: C2_5  and  O3_7 
REMARK    3  A    between atoms: O3_7  and  C3_8 
ROOT
HETATM    1  C3  UNL     1       1.272  -0.429  -0.393  1.00  0.00     0.204 C 
HETATM    2  C4  UNL     1       0.261   0.547   0.173  1.00  0.00     0.079 C 
HETATM    3  C5  UNL     1      -1.002  -0.241   0.242  1.00  0.00     0.071 C 
HETATM    4  C6  UNL     1      -1.746  -0.325  -1.061  1.00  0.00     0.038 C 
HETATM    5  C7  UNL     1      -3.130  -0.892  -0.740  1.00  0.00     0.003 C 
HETATM    6  C8  UNL     1      -3.934   0.231  -0.137  1.00  0.00     0.000 C 
HETATM    7  C9  UNL     1      -3.072   1.049   0.790  1.00  0.00     0.003 C 
HETATM    8  C10 UNL     1      -1.926   0.235   1.343  1.00  0.00     0.038 C 
HETATM    9  O4  UNL     1      -0.509  -1.553   0.543  1.00  0.00    -0.330 OA
HETATM   10  C11 UNL     1       0.699  -1.747  -0.116  1.00  0.00     0.143 C 
HETATM   11  S1  UNL     1       1.255  -3.245  -0.456  1.00  0.00    -0.055 SA
ENDROOT
BRANCH   1  12
HETATM   12  O3  UNL     1       2.483  -0.182   0.268  1.00  0.00    -0.291 OA
BRANCH  12  13
HETATM   13  C2  UNL     1       3.666   0.160  -0.343  1.00  0.00     0.367 C 
HETATM   14  N1  UNL     1       4.825   0.386   0.435  1.00  0.00    -0.280 N 
ATOM     15  H1  UNL     1       4.793   0.298   1.451  1.00  0.00     0.173 HD
HETATM   16  O2  UNL     1       3.648   0.256  -1.597  1.00  0.00    -0.238 OA
BRANCH  14  17
HETATM   17  C1  UNL     1       6.031   0.737  -0.218  1.00  0.00     0.357 C 
HETATM   18  O1  UNL     1       6.085   0.853  -1.489  1.00  0.00    -0.283 OA
ENDBRANCH  14  17
ENDBRANCH  12  13
ENDBRANCH   1  12
TORSDOF 3
