REMARK  3 active torsions:
REMARK  status: ('A' for Active; 'I' for Inactive)
REMARK    1  A    between atoms: C2_2  and  C3_3 
REMARK    2  A    between atoms: C5_5  and  C6_6 
REMARK    3  A    between atoms: C12_12  and  O1_13 
ROOT
HETATM    1  C6  UNL     1       1.044  -0.431   0.075  1.00  0.00     0.083 C 
HETATM    2  C7  UNL     1       0.127  -0.822   1.236  1.00  0.00     0.020 C 
HETATM    3  C8  UNL     1      -1.187  -0.116   1.004  1.00  0.00     0.040 C 
HETATM    4  C9  UNL     1      -1.804  -0.413  -0.319  1.00  0.00     0.069 C 
HETATM    5  C10 UNL     1      -3.013  -1.294  -0.126  1.00  0.00     0.041 C 
HETATM    6  C11 UNL     1      -4.291  -0.633  -0.592  1.00  0.00     0.034 C 
HETATM    7  C12 UNL     1      -4.476   0.730   0.034  1.00  0.00     0.118 C 
HETATM    8  C13 UNL     1      -3.257   1.611  -0.135  1.00  0.00     0.034 C 
HETATM    9  C14 UNL     1      -2.272   0.857  -0.993  1.00  0.00     0.041 C 
HETATM   10  O2  UNL     1      -0.926  -1.060  -1.223  1.00  0.00    -0.328 OA
HETATM   11  C15 UNL     1       0.438  -1.052  -1.116  1.00  0.00     0.120 C 
HETATM   12  N1  UNL     1       1.180  -1.564  -2.013  1.00  0.00    -0.383 N 
ATOM     13  H11 UNL     1       0.761  -1.994  -2.837  1.00  0.00     0.158 HD
ATOM     14  H12 UNL     1       2.197  -1.558  -1.933  1.00  0.00     0.158 HD
ENDROOT
BRANCH   1  15
HETATM   15  C5  UNL     1       2.423  -0.873   0.282  1.00  0.00    -0.012 C 
HETATM   16  C3  UNL     1       3.422  -0.017   0.288  1.00  0.00    -0.087 C 
HETATM   17  C4  UNL     1       3.174   1.430   0.084  1.00  0.00     0.043 C 
BRANCH  16  18
HETATM   18  C2  UNL     1       4.807  -0.486   0.498  1.00  0.00     0.029 C 
HETATM   19  C1  UNL     1       5.709  -0.156  -0.671  1.00  0.00     0.010 C 
ENDBRANCH  16  18
ENDBRANCH   1  15
BRANCH   7  20
HETATM   20  O1  UNL     1      -5.548   1.368  -0.540  1.00  0.00    -0.396 OA
ATOM     21  H1  UNL     1      -5.664   2.225  -0.146  1.00  0.00     0.210 HD
ENDBRANCH   7  20
TORSDOF 3
