REMARK  10 active torsions:
REMARK  status: ('A' for Active; 'I' for Inactive)
REMARK    1  A    between atoms: O1_2  and  C2_3 
REMARK    2  A    between atoms: C2_3  and  C3_5 
REMARK    3  A    between atoms: C3_5  and  N1_6 
REMARK    4  A    between atoms: N1_6  and  C4_8 
REMARK    5  A    between atoms: C5_11  and  N3_12 
REMARK    6  A    between atoms: N5_20  and  C8_21 
REMARK    7  A    between atoms: C8_21  and  C9_22 
REMARK    8  A    between atoms: C9_22  and  C10_23 
REMARK    9  A    between atoms: C10_23  and  O4_24 
REMARK   10  A    between atoms: O4_24  and  S1_25 
ROOT
HETATM    1  C4  UNL     1      -2.228  -0.488  -0.756  1.00  0.00     0.681 A 
HETATM    2  N2  UNL     1      -2.432  -1.577   0.024  1.00  0.00    -0.175 N 
ATOM      3  H2  UNL     1      -3.368  -1.746   0.393  1.00  0.00     0.186 HD
HETATM    4  C5  UNL     1      -1.454  -2.443   0.331  1.00  0.00     0.145 A 
HETATM    5  C6  UNL     1      -0.198  -2.180  -0.190  1.00  0.00     0.126 A 
HETATM    6  N4  UNL     1       0.988  -2.817  -0.093  1.00  0.00    -0.302 N 
ATOM      7  H4  UNL     1       1.159  -3.675   0.431  1.00  0.00     0.171 HD
HETATM    8  C7  UNL     1       1.908  -2.137  -0.799  1.00  0.00     0.328 A 
HETATM    9  O3  UNL     1       3.122  -2.415  -0.949  1.00  0.00    -0.246 OA
HETATM   10  N5  UNL     1       1.326  -1.071  -1.347  1.00  0.00    -0.283 N 
HETATM   11  C11 UNL     1       0.005  -1.060  -0.990  1.00  0.00     0.158 A 
HETATM   12  N6  UNL     1      -1.025  -0.244  -1.249  1.00  0.00    -0.174 N 
ATOM     13  H6  UNL     1      -0.880   0.578  -1.835  1.00  0.00     0.186 HD
ENDROOT
BRANCH  10  14
HETATM   14  C8  UNL     1       1.888  -0.062  -2.165  1.00  0.00     0.137 C 
BRANCH  14  15
HETATM   15  C9  UNL     1       2.428   1.152  -1.520  1.00  0.00     0.048 C 
BRANCH  15  16
HETATM   16  C10 UNL     1       3.548   0.915  -0.533  1.00  0.00     0.194 C 
BRANCH  16  17
HETATM   17  O4  UNL     1       3.958   2.140  -0.017  1.00  0.00    -0.257 OA
BRANCH  17  18
HETATM   18  S1  UNL     1       5.185   2.017   1.081  1.00  0.00     0.251 S 
HETATM   19  O5  UNL     1       6.210   3.087   0.750  1.00  0.00    -0.572 OA
HETATM   20  O6  UNL     1       4.762   2.239   2.491  1.00  0.00    -0.572 OA
HETATM   21  O7  UNL     1       5.983   0.544   1.012  1.00  0.00    -0.572 OA
ENDBRANCH  17  18
ENDBRANCH  16  17
ENDBRANCH  15  16
ENDBRANCH  14  15
ENDBRANCH  10  14
BRANCH   4  22
HETATM   22  N3  UNL     1      -1.610  -3.486   1.067  1.00  0.00    -0.383 N 
ATOM     23  H32 UNL     1      -2.535  -3.680   1.451  1.00  0.00     0.157 HD
ATOM     24  H31 UNL     1      -0.867  -4.144   1.300  1.00  0.00     0.157 HD
ENDBRANCH   4  22
BRANCH   1  25
HETATM   25  N1  UNL     1      -3.206   0.337  -1.035  1.00  0.00    -0.217 N 
ATOM     26  H1  UNL     1      -3.000   1.142  -1.627  1.00  0.00     0.178 HD
BRANCH  25  27
HETATM   27  C3  UNL     1      -4.541   0.178  -0.562  1.00  0.00     0.249 C 
BRANCH  27  28
HETATM   28  C2  UNL     1      -4.754   0.831   0.763  1.00  0.00     0.276 C 
HETATM   29  O2  UNL     1      -5.881   0.782   1.319  1.00  0.00    -0.263 OA
BRANCH  28  30
HETATM   30  O1  UNL     1      -3.751   1.504   1.430  1.00  0.00    -0.325 OA
HETATM   31  C1  UNL     1      -3.956   2.123   2.688  1.00  0.00     0.213 C 
ENDBRANCH  28  30
ENDBRANCH  27  28
ENDBRANCH  25  27
ENDBRANCH   1  25
TORSDOF 10
