REMARK  8 active torsions:
REMARK  status: ('A' for Active; 'I' for Inactive)
REMARK    1  A    between atoms: C5_5  and  S1_6 
REMARK    2  A    between atoms: S1_6  and  N1_9 
REMARK       I    between atoms: N1_9  and  C6_11 
REMARK    3  A    between atoms: C6_11  and  C7_13 
REMARK    4  A    between atoms: C7_13  and  C8_14 
REMARK    5  A    between atoms: C8_14  and  C9_15 
REMARK    6  A    between atoms: N3_19  and  C11_20 
REMARK    7  A    between atoms: C12_21  and  C13_22 
REMARK    8  A    between atoms: C17_29  and  C18_30 
ROOT
HETATM    1  C9  UNL     1      -0.633  -0.221   0.931  1.00  0.00     0.056 A 
HETATM    2  N2  UNL     1      -1.299  -0.188   2.142  1.00  0.00    -0.350 N 
ATOM      3  H2  UNL     1      -0.920  -0.483   3.042  1.00  0.00     0.166 HD
HETATM    4  C10 UNL     1      -2.505   0.290   1.933  1.00  0.00     0.189 A 
HETATM    5  N3  UNL     1      -2.736   0.590   0.684  1.00  0.00    -0.308 N 
HETATM    6  C22 UNL     1      -1.554   0.270   0.054  1.00  0.00     0.041 A 
HETATM    7  C23 UNL     1      -1.253   0.469  -1.419  1.00  0.00     0.071 C 
ENDROOT
BRANCH   1   8
HETATM    8  C8  UNL     1       0.720  -0.691   0.808  1.00  0.00     0.037 C 
BRANCH   8   9
HETATM    9  C7  UNL     1       1.413  -0.780  -0.287  1.00  0.00     0.077 C 
BRANCH   9  10
HETATM   10  C6  UNL     1       2.827  -1.300  -0.203  1.00  0.00     0.254 C 
HETATM   11  N1  UNL     1       3.604  -1.407  -1.368  1.00  0.00    -0.247 N 
ATOM     12  H1  UNL     1       3.207  -1.135  -2.267  1.00  0.00     0.182 HD
HETATM   13  O3  UNL     1       3.286  -1.629   0.913  1.00  0.00    -0.268 OA
BRANCH  11  14
HETATM   14  S1  UNL     1       5.211  -1.990  -1.291  1.00  0.00     0.265 S 
HETATM   15  O1  UNL     1       5.266  -3.399  -0.739  1.00  0.00    -0.200 OA
HETATM   16  O2  UNL     1       5.813  -2.043  -2.677  1.00  0.00    -0.200 OA
BRANCH  14  17
HETATM   17  C5  UNL     1       6.256  -1.005  -0.314  1.00  0.00     0.081 A 
HETATM   18  C4  UNL     1       6.879   0.133  -0.810  1.00  0.00     0.026 A 
HETATM   19  C3  UNL     1       7.711   0.899  -0.011  1.00  0.00     0.010 A 
HETATM   20  C2  UNL     1       7.926   0.530   1.293  1.00  0.00    -0.040 A 
HETATM   21  C1  UNL     1       8.818   1.358   2.144  1.00  0.00     0.050 C 
HETATM   22  C25 UNL     1       7.320  -0.592   1.802  1.00  0.00     0.041 A 
HETATM   23  C24 UNL     1       6.491  -1.348   0.991  1.00  0.00     0.049 A 
HETATM   24 CL1  UNL     1       7.619  -1.034   3.471  1.00  0.00    -0.084 Cl
ENDBRANCH  14  17
ENDBRANCH  11  14
ENDBRANCH   9  10
ENDBRANCH   8   9
ENDBRANCH   1   8
BRANCH   5  25
HETATM   25  C11 UNL     1      -3.805   1.090  -0.073  1.00  0.00     0.064 A 
HETATM   26  C12 UNL     1      -3.787   2.464  -0.369  1.00  0.00     0.069 A 
HETATM   27  C14 UNL     1      -4.782   3.058  -1.175  1.00  0.00     0.040 A 
HETATM   28  C15 UNL     1      -5.769   2.275  -1.664  1.00  0.00     0.012 A 
HETATM   29 BR1  UNL     1      -7.131   3.024  -2.752  1.00  0.00    -0.051 Br
HETATM   30  C16 UNL     1      -5.772   0.953  -1.365  1.00  0.00     0.029 A 
HETATM   31  C17 UNL     1      -4.788   0.307  -0.555  1.00  0.00    -0.021 A 
BRANCH  26  32
HETATM   32  C13 UNL     1      -2.776   3.351   0.193  1.00  0.00     0.211 C 
HETATM   33  O4  UNL     1      -2.828   4.592  -0.182  1.00  0.00    -0.644 OA
HETATM   34  O5  UNL     1      -1.775   3.093   1.060  1.00  0.00    -0.644 OA
ENDBRANCH  26  32
BRANCH  31  35
HETATM   35  C18 UNL     1      -4.931  -1.097  -0.284  1.00  0.00    -0.022 C 
HETATM   36  C19 UNL     1      -6.185  -1.692  -1.009  1.00  0.00     0.019 C 
HETATM   37  C20 UNL     1      -3.840  -2.083  -0.334  1.00  0.00     0.019 C 
HETATM   38  C21 UNL     1      -5.439  -1.177   1.155  1.00  0.00     0.019 C 
ENDBRANCH  31  35
ENDBRANCH   5  25
TORSDOF 8
