REMARK  7 active torsions:
REMARK  status: ('A' for Active; 'I' for Inactive)
REMARK    1  A    between atoms: C4_4  and  S1_5 
REMARK    2  A    between atoms: S1_5  and  N1_8 
REMARK       I    between atoms: N1_8  and  C6_10 
REMARK       I    between atoms: C6_10  and  N2_12 
REMARK    3  A    between atoms: N2_12  and  C7_14 
REMARK    4  A    between atoms: C20_27  and  C21_28 
REMARK       I    between atoms: C21_28  and  N3_30 
REMARK    5  A    between atoms: N3_30  and  C22_32 
REMARK    6  A    between atoms: C22_32  and  C24_34 
REMARK    7  A    between atoms: C24_34  and  N4_35 
ROOT
HETATM    1  C1  UNL     1      -0.356  -1.180  -3.446  1.00  0.00     0.050 C 
HETATM    2  C2  UNL     1      -0.385   0.030  -2.611  1.00  0.00    -0.033 A 
HETATM    3  C3  UNL     1      -1.524   0.784  -2.541  1.00  0.00     0.030 A 
HETATM    4  C4  UNL     1      -1.635   1.924  -1.781  1.00  0.00     0.040 A 
HETATM    5  C17 UNL     1      -0.504   2.296  -1.057  1.00  0.00     0.035 A 
HETATM    6  C18 UNL     1       0.659   1.550  -1.113  1.00  0.00    -0.005 A 
HETATM    7  C19 UNL     1       1.882   1.741  -0.507  1.00  0.00     0.049 A 
HETATM    8  C20 UNL     1       2.691   0.696  -0.933  1.00  0.00     0.102 A 
HETATM    9  N5  UNL     1       1.977  -0.079  -1.753  1.00  0.00    -0.351 N 
ATOM     10  H5  UNL     1       2.329  -0.921  -2.209  1.00  0.00     0.166 HD
HETATM   11  C30 UNL     1       0.723   0.406  -1.896  1.00  0.00     0.049 A 
ENDROOT
BRANCH   4  12
HETATM   12  S1  UNL     1      -3.060   2.940  -1.717  1.00  0.00     0.056 S 
HETATM   13  C5  UNL     1      -2.785   4.445  -2.644  1.00  0.00     0.142 C 
HETATM   14  O1  UNL     1      -4.188   2.170  -2.363  1.00  0.00    -0.245 OA
BRANCH  12  15
HETATM   15  N1  UNL     1      -3.402   3.178  -0.236  1.00  0.00    -0.265 N 
HETATM   16  C6  UNL     1      -4.505   2.552   0.384  1.00  0.00     0.328 C 
HETATM   17  O2  UNL     1      -5.002   3.248   1.356  1.00  0.00    -0.246 OA
HETATM   18  N2  UNL     1      -5.104   1.341   0.099  1.00  0.00    -0.333 N 
ATOM     19  H2  UNL     1      -4.696   0.800  -0.663  1.00  0.00     0.165 HD
ATOM     20  H1  UNL     1      -2.815   3.806   0.313  1.00  0.00     0.180 HD
BRANCH  18  21
HETATM   21  C7  UNL     1      -6.244   0.759   0.762  1.00  0.00     0.035 C 
HETATM   22  C8  UNL     1      -6.536  -0.540   0.022  1.00  0.00     0.035 C 
HETATM   23  C9  UNL     1      -7.753  -1.238   0.557  1.00  0.00    -0.012 C 
HETATM   24  C10 UNL     1      -8.906  -0.260   0.517  1.00  0.00     0.009 C 
HETATM   25  C14 UNL     1      -7.411  -1.678   1.967  1.00  0.00     0.009 C 
HETATM   26  C11 UNL     1      -8.624   0.923   1.403  1.00  0.00    -0.012 C 
HETATM   27  C12 UNL     1      -8.298   0.430   2.790  1.00  0.00     0.009 C 
HETATM   28  C16 UNL     1      -7.422   1.666   0.810  1.00  0.00     0.035 C 
HETATM   29  C13 UNL     1      -7.078  -0.433   2.744  1.00  0.00    -0.012 C 
HETATM   30  C15 UNL     1      -5.919   0.346   2.196  1.00  0.00     0.035 C 
ENDBRANCH  18  21
ENDBRANCH  12  15
ENDBRANCH   4  12
BRANCH   8  31
HETATM   31  C21 UNL     1       4.093   0.540  -0.560  1.00  0.00     0.268 C 
HETATM   32  O3  UNL     1       4.688   1.461   0.082  1.00  0.00    -0.266 OA
HETATM   33  N3  UNL     1       4.797  -0.626  -0.906  1.00  0.00    -0.347 N 
ATOM     34  H3  UNL     1       4.338  -1.386  -1.408  1.00  0.00     0.163 HD
BRANCH  33  35
HETATM   35  C22 UNL     1       6.220  -0.720  -0.522  1.00  0.00     0.119 C 
HETATM   36  C23 UNL     1       6.917  -1.202  -1.757  1.00  0.00     0.038 C 
BRANCH  35  37
HETATM   37  C24 UNL     1       6.350  -1.676   0.614  1.00  0.00     0.082 C 
BRANCH  37  38
HETATM   38  N4  UNL     1       7.636  -1.891   1.126  1.00  0.00    -0.391 N 
HETATM   39  C25 UNL     1       8.606  -2.607   0.403  1.00  0.00     0.128 C 
HETATM   40  C26 UNL     1       9.634  -3.268   1.336  1.00  0.00     0.099 C 
HETATM   41  C27 UNL     1      10.066  -2.341   2.435  1.00  0.00     0.246 C 
HETATM   42  F1  UNL     1       9.532  -2.692   3.660  1.00  0.00    -0.206 F 
HETATM   43  F2  UNL     1      11.453  -2.310   2.548  1.00  0.00    -0.206 F 
HETATM   44  C28 UNL     1       9.654  -0.905   2.128  1.00  0.00     0.099 C 
HETATM   45  C29 UNL     1       8.175  -0.767   1.869  1.00  0.00     0.128 C 
ENDBRANCH  37  38
ENDBRANCH  35  37
ENDBRANCH  33  35
ENDBRANCH   8  31
TORSDOF 7
