REMARK  2 active torsions:
REMARK  status: ('A' for Active; 'I' for Inactive)
REMARK    1  A    between atoms: N1_1  and  C1_5 
REMARK    2  A    between atoms: C1_5  and  C2_6 
ROOT
HETATM    1  C1  UNL     1       0.490  -0.439   0.019  1.00  0.00     0.133 C 
HETATM    2  C3  UNL     1      -0.256   0.069   1.231  1.00  0.00     0.039 C 
HETATM    3  C4  UNL     1      -1.672   0.157   0.706  1.00  0.00     0.002 C 
HETATM    4  C5  UNL     1      -1.555   0.636  -0.718  1.00  0.00     0.002 C 
HETATM    5  C6  UNL     1      -0.286  -0.044  -1.183  1.00  0.00     0.039 C 
ENDROOT
BRANCH   1   6
HETATM    6  N1  UNL     1       0.551  -1.889   0.069  1.00  0.00    -0.070 N 
ATOM      7  H13 UNL     1       1.146  -2.275  -0.664  1.00  0.00     0.275 HD
ATOM      8  H12 UNL     1       1.077  -2.225   0.876  1.00  0.00     0.275 HD
ATOM      9  H11 UNL     1      -0.394  -2.272   0.039  1.00  0.00     0.275 HD
ENDBRANCH   1   6
BRANCH   1  10
HETATM   10  C2  UNL     1       1.885   0.126   0.063  1.00  0.00     0.124 C 
HETATM   11  S1  UNL     1       1.953   1.903   0.008  1.00  0.00    -0.095 SA
ENDBRANCH   1  10
TORSDOF 2
