REMARK  7 active torsions:
REMARK  status: ('A' for Active; 'I' for Inactive)
REMARK    1  A    between atoms: C6_8  and  O3_9 
REMARK    2  A    between atoms: C7_11  and  C8_12 
REMARK    3  A    between atoms: C8_12  and  O4_13 
REMARK    4  A    between atoms: C13_20  and  O6_21 
REMARK    5  A    between atoms: O6_21  and  C14_22 
REMARK    6  A    between atoms: C14_22  and  C15_23 
REMARK    7  A    between atoms: C15_23  and  O7_24 
ROOT
HETATM    1  C1  UNL     1      -1.304   4.065  -0.745  1.00  0.00     0.078 C 
HETATM    2  C2  UNL     1      -0.611   3.202   0.284  1.00  0.00     0.158 C 
HETATM    3  C3  UNL     1      -0.170   4.043   1.451  1.00  0.00     0.078 C 
HETATM    4  O1  UNL     1       0.471   2.514  -0.266  1.00  0.00    -0.345 OA
HETATM    5  C4  UNL     1       0.040   1.245  -0.526  1.00  0.00     0.188 C 
HETATM    6  C5  UNL     1      -0.899   1.040   0.677  1.00  0.00     0.186 C 
HETATM    7  O2  UNL     1      -1.556   2.229   0.677  1.00  0.00    -0.345 OA
HETATM    8  C6  UNL     1      -1.688  -0.173   0.338  1.00  0.00     0.166 C 
HETATM    9  C7  UNL     1      -0.741  -1.347   0.471  1.00  0.00     0.068 C 
HETATM   10  C9  UNL     1       0.546  -1.189  -0.214  1.00  0.00     0.170 C 
HETATM   11  O5  UNL     1       0.007  -1.687  -1.405  1.00  0.00    -0.371 OA
HETATM   12  C10 UNL     1      -0.935  -2.363  -0.622  1.00  0.00     0.069 C 
HETATM   13  C11 UNL     1      -2.307  -2.399  -1.230  1.00  0.00     0.047 C 
HETATM   14  C12 UNL     1      -0.417  -3.751  -0.316  1.00  0.00     0.047 C 
HETATM   15  C13 UNL     1       1.084   0.171  -0.398  1.00  0.00     0.183 C 
ENDROOT
BRANCH  15  16
HETATM   16  O6  UNL     1       1.841   0.199  -1.568  1.00  0.00    -0.379 OA
BRANCH  16  17
HETATM   17  C14 UNL     1       3.150   0.550  -1.364  1.00  0.00     0.194 C 
BRANCH  17  18
HETATM   18  C15 UNL     1       3.917  -0.356  -0.455  1.00  0.00     0.190 C 
BRANCH  18  19
HETATM   19  O7  UNL     1       3.957  -1.659  -0.946  1.00  0.00    -0.399 OA
ATOM     20  H7  UNL     1       4.444  -2.235  -0.368  1.00  0.00     0.209 HD
ENDBRANCH  18  19
ENDBRANCH  17  18
ENDBRANCH  16  17
ENDBRANCH  15  16
BRANCH   9  21
HETATM   21  C8  UNL     1      -0.662  -1.924   1.865  1.00  0.00     0.182 C 
BRANCH  21  22
HETATM   22  O4  UNL     1      -1.880  -2.391   2.329  1.00  0.00    -0.400 OA
ATOM     23  H4  UNL     1      -1.830  -2.754   3.206  1.00  0.00     0.209 HD
ENDBRANCH  21  22
ENDBRANCH   9  21
BRANCH   8  24
HETATM   24  O3  UNL     1      -2.839  -0.335   1.058  1.00  0.00    -0.392 OA
ATOM     25  H3  UNL     1      -3.343  -1.110   0.841  1.00  0.00     0.210 HD
ENDBRANCH   8  24
TORSDOF 7
