REMARK  3 active torsions:
REMARK  status: ('A' for Active; 'I' for Inactive)
REMARK    1  A    between atoms: C3_6  and  C4_7 
REMARK    2  A    between atoms: C4_7  and  C5_8 
REMARK    3  A    between atoms: C5_8  and  C6_9 
ROOT
HETATM    1  C4  UNL     1      -0.879  -0.198  -0.783  1.00  0.00     0.033 C 
ENDROOT
BRANCH   1   2
HETATM    2  C3  UNL     1      -2.149  -0.520   0.023  1.00  0.00     0.186 C 
HETATM    3  N1  UNL     1      -3.205  -0.965  -0.898  1.00  0.00    -0.071 N 
HETATM    4  C2  UNL     1      -4.390  -0.695  -0.070  1.00  0.00     0.233 C 
ATOM      5  H12 UNL     1      -3.116  -1.918  -1.252  1.00  0.00     0.277 HD
ATOM      6  H11 UNL     1      -3.200  -0.535  -1.823  1.00  0.00     0.277 HD
HETATM    7  C1  UNL     1      -4.164   0.764   0.277  1.00  0.00     0.029 C 
HETATM    8  C12 UNL     1      -2.673   0.765   0.626  1.00  0.00     0.034 C 
ENDBRANCH   1   2
BRANCH   1   9
HETATM    9  C5  UNL     1       0.139   0.242   0.200  1.00  0.00     0.009 C 
BRANCH   9  10
HETATM   10  C6  UNL     1       1.473   0.624  -0.313  1.00  0.00     0.017 C 
HETATM   11  C7  UNL     1       2.116  -0.543  -1.028  1.00  0.00     0.039 C 
HETATM   12  C8  UNL     1       2.834  -1.225   0.116  1.00  0.00     0.122 C 
HETATM   13  C9  UNL     1       4.232  -0.610   0.184  1.00  0.00     0.034 C 
HETATM   14  O1  UNL     1       2.307  -0.665   1.296  1.00  0.00    -0.380 OA
HETATM   15  C10 UNL     1       3.841   0.843   0.497  1.00  0.00     0.035 C 
HETATM   16  C11 UNL     1       2.407   0.696   0.909  1.00  0.00     0.126 C 
ENDBRANCH   9  10
ENDBRANCH   1   9
TORSDOF 3
