REMARK  0 active torsions:
REMARK  status: ('A' for Active; 'I' for Inactive)
ROOT
HETATM    1  N1  UNL     1       2.173   3.460  -0.482  1.00  0.00    -0.191 NA
HETATM    2  C1  UNL     1       2.447   2.331  -0.296  1.00  0.00     0.105 C 
HETATM    3  C2  UNL     1       2.769   0.907  -0.079  1.00  0.00     0.112 A 
HETATM    4  C3  UNL     1       4.088   0.540  -0.140  1.00  0.00     0.112 A 
HETATM    5  N2  UNL     1       5.237   1.348  -0.365  1.00  0.00    -0.093 NA
HETATM    6  S1  UNL     1       4.053  -1.128   0.118  1.00  0.00    -0.053 SA
HETATM    7  C4  UNL     1       2.360  -1.342   0.300  1.00  0.00     0.115 A 
HETATM    8  N3  UNL     1       1.895  -2.617   0.505  1.00  0.00    -0.300 N 
ATOM      9  H3  UNL     1       2.503  -3.183   1.097  1.00  0.00     0.171 HD
HETATM   10  C5  UNL     1       0.796  -3.269   0.080  1.00  0.00     0.325 C 
HETATM   11  O1  UNL     1       0.870  -4.500   0.205  1.00  0.00    -0.247 OA
HETATM   12  N4  UNL     1      -0.352  -2.806  -0.451  1.00  0.00    -0.306 N 
ATOM     13  H4  UNL     1      -0.810  -3.460  -1.086  1.00  0.00     0.171 HD
HETATM   14  C6  UNL     1      -1.011  -1.630  -0.297  1.00  0.00     0.071 A 
HETATM   15  C7  UNL     1      -2.339  -1.965  -0.473  1.00  0.00     0.033 A 
HETATM   16  C8  UNL     1      -3.310  -1.037  -0.348  1.00  0.00     0.014 A 
HETATM   17  C9  UNL     1      -2.947   0.260  -0.038  1.00  0.00    -0.023 A 
HETATM   18  C10 UNL     1      -3.956   1.216   0.111  1.00  0.00     0.012 A 
HETATM   19  C11 UNL     1      -3.644   2.498   0.436  1.00  0.00     0.001 A 
HETATM   20  C12 UNL     1      -2.322   2.819   0.610  1.00  0.00     0.001 A 
HETATM   21  C13 UNL     1      -1.315   1.877   0.464  1.00  0.00     0.015 A 
HETATM   22  C14 UNL     1      -1.617   0.594   0.138  1.00  0.00     0.010 A 
HETATM   23  C15 UNL     1      -0.605  -0.345   0.010  1.00  0.00     0.114 A 
HETATM   24  O2  UNL     1       0.546   0.267   0.223  1.00  0.00    -0.303 OA
HETATM   25  C16 UNL     1       1.859  -0.068   0.152  1.00  0.00     0.133 A 
ENDROOT
TORSDOF 0
