REMARK  9 active torsions:
REMARK  status: ('A' for Active; 'I' for Inactive)
REMARK    1  A    between atoms: S1_2  and  N1_5 
REMARK    2  A    between atoms: N1_5  and  C2_7 
REMARK    3  A    between atoms: C2_7  and  C3_8 
REMARK    4  A    between atoms: C2_7  and  C10_15 
REMARK    5  A    between atoms: C3_8  and  C4_9 
REMARK    6  A    between atoms: C10_15  and  O4_17 
REMARK    7  A    between atoms: O4_17  and  C11_18 
REMARK    8  A    between atoms: C11_18  and  C12_19 
REMARK       I    between atoms: C12_19  and  N2_21 
REMARK    9  A    between atoms: N2_21  and  C13_23 
ROOT
HETATM    1  C2  UNL     1      -1.253  -0.899  -0.480  1.00  0.00     0.192 C 
ENDROOT
BRANCH   1   2
HETATM    2  N1  UNL     1      -1.815  -1.691   0.611  1.00  0.00    -0.305 N 
ATOM      3  H1  UNL     1      -1.762  -1.447   1.600  1.00  0.00     0.173 HD
BRANCH   2   4
HETATM    4  S1  UNL     1      -2.586  -3.108  -0.024  1.00  0.00     0.223 S 
HETATM    5  C1  UNL     1      -1.388  -4.124  -0.878  1.00  0.00     0.185 C 
HETATM    6  O1  UNL     1      -3.645  -2.742  -0.978  1.00  0.00    -0.206 OA
HETATM    7  O2  UNL     1      -3.089  -3.904   1.136  1.00  0.00    -0.206 OA
ENDBRANCH   2   4
ENDBRANCH   1   2
BRANCH   1   8
HETATM    8  C3  UNL     1      -1.519   0.528  -0.229  1.00  0.00     0.040 C 
BRANCH   8   9
HETATM    9  C4  UNL     1      -2.910   1.000  -0.113  1.00  0.00    -0.012 C 
HETATM   10  C5  UNL     1      -3.738   0.389   0.981  1.00  0.00     0.005 C 
HETATM   11  C6  UNL     1      -4.854   1.401   1.298  1.00  0.00     0.000 C 
HETATM   12  C7  UNL     1      -5.675   1.682   0.065  1.00  0.00     0.000 C 
HETATM   13  C8  UNL     1      -4.852   2.017  -1.148  1.00  0.00     0.000 C 
HETATM   14  C9  UNL     1      -3.718   1.027  -1.378  1.00  0.00     0.005 C 
ENDBRANCH   8   9
ENDBRANCH   1   8
BRANCH   1  15
HETATM   15  C10 UNL     1       0.264  -1.064  -0.336  1.00  0.00     0.282 C 
HETATM   16  O3  UNL     1       0.741  -1.397   0.751  1.00  0.00    -0.263 OA
BRANCH  15  17
HETATM   17  O4  UNL     1       1.068  -0.848  -1.427  1.00  0.00    -0.310 OA
BRANCH  17  18
HETATM   18  C11 UNL     1       2.470  -0.980  -1.392  1.00  0.00     0.281 C 
BRANCH  18  19
HETATM   19  C12 UNL     1       3.109  -0.009  -0.483  1.00  0.00     0.242 C 
HETATM   20  O5  UNL     1       2.451   0.870   0.169  1.00  0.00    -0.271 OA
HETATM   21  N2  UNL     1       4.508  -0.029  -0.312  1.00  0.00    -0.352 N 
ATOM     22  H2  UNL     1       5.073  -0.722  -0.803  1.00  0.00     0.163 HD
BRANCH  21  23
HETATM   23  C13 UNL     1       5.134   0.923   0.551  1.00  0.00     0.110 C 
HETATM   24  C14 UNL     1       5.928   0.315   1.689  1.00  0.00     0.053 C 
HETATM   25  C15 UNL     1       6.830   1.494   2.013  1.00  0.00     0.169 C 
HETATM   26  O6  UNL     1       7.085   2.151   0.842  1.00  0.00    -0.389 OA
HETATM   27  C16 UNL     1       6.220   1.713  -0.149  1.00  0.00     0.192 C 
ENDBRANCH  21  23
ENDBRANCH  18  19
ENDBRANCH  17  18
ENDBRANCH  15  17
ENDBRANCH   1  15
TORSDOF 9
