REMARK  5 active torsions:
REMARK  status: ('A' for Active; 'I' for Inactive)
REMARK    1  A    between atoms: C1_2  and  C2_3 
REMARK    2  A    between atoms: C5_6  and  N1_7 
REMARK    3  A    between atoms: N1_7  and  C6_9 
REMARK    4  A    between atoms: C7_12  and  N3_13 
REMARK    5  A    between atoms: N3_13  and  C8_15 
ROOT
HETATM    1  C6  UNL     1       0.951  -1.157   0.167  1.00  0.00     0.140 A 
HETATM    2  N2  UNL     1       0.266   0.001   0.172  1.00  0.00    -0.175 N 
ATOM      3  H2  UNL     1       0.776   0.882   0.233  1.00  0.00     0.186 HD
HETATM    4  C7  UNL     1      -1.090   0.022   0.097  1.00  0.00     0.685 A 
HETATM    5  N4  UNL     1      -1.798  -1.115   0.015  1.00  0.00    -0.185 N 
ATOM      6  H4  UNL     1      -2.816  -1.075  -0.040  1.00  0.00     0.184 HD
HETATM    7  C14 UNL     1      -1.174  -2.308   0.005  1.00  0.00     0.136 A 
HETATM    8  C15 UNL     1       0.215  -2.321   0.082  1.00  0.00     0.109 A 
HETATM    9  C16 UNL     1       0.612  -3.713   0.052  1.00  0.00     0.264 A 
HETATM   10  O2  UNL     1       1.796  -4.104   0.103  1.00  0.00    -0.267 OA
HETATM   11  N5  UNL     1      -0.559  -4.545  -0.045  1.00  0.00    -0.288 N 
ATOM     12  H5  UNL     1      -0.582  -5.564  -0.085  1.00  0.00     0.172 HD
HETATM   13  C17 UNL     1      -1.671  -3.671  -0.074  1.00  0.00     0.276 A 
HETATM   14  O3  UNL     1      -2.864  -4.028  -0.154  1.00  0.00    -0.266 OA
ENDROOT
BRANCH   1  15
HETATM   15  N1  UNL     1       2.210  -1.226   0.234  1.00  0.00    -0.341 N 
ATOM     16  H1  UNL     1       2.606  -2.166   0.220  1.00  0.00     0.167 HD
BRANCH  15  17
HETATM   17  C5  UNL     1       3.128  -0.180   0.325  1.00  0.00     0.033 A 
HETATM   18  C4  UNL     1       4.051  -0.006  -0.681  1.00  0.00     0.030 A 
HETATM   19  C3  UNL     1       4.988   1.000  -0.666  1.00  0.00     0.017 A 
HETATM   20  C2  UNL     1       5.019   1.874   0.386  1.00  0.00     0.002 A 
HETATM   21  C19 UNL     1       4.101   1.731   1.424  1.00  0.00     0.017 A 
HETATM   22  C18 UNL     1       3.174   0.711   1.378  1.00  0.00     0.030 A 
BRANCH  20  23
HETATM   23  C1  UNL     1       6.008   2.945   0.414  1.00  0.00     0.269 C 
HETATM   24  O1  UNL     1       6.827   3.073  -0.512  1.00  0.00    -0.301 OA
ENDBRANCH  20  23
ENDBRANCH  15  17
ENDBRANCH   1  15
BRANCH   4  25
HETATM   25  N3  UNL     1      -1.746   1.134   0.103  1.00  0.00    -0.189 N 
ATOM     26  H3  UNL     1      -1.215   2.002   0.166  1.00  0.00     0.184 HD
BRANCH  25  27
HETATM   27  C8  UNL     1      -3.143   1.222   0.028  1.00  0.00     0.087 A 
HETATM   28  C9  UNL     1      -3.900   1.118   1.169  1.00  0.00     0.033 A 
HETATM   29  C10 UNL     1      -5.273   1.196   1.159  1.00  0.00     0.002 A 
HETATM   30  C11 UNL     1      -5.945   1.388  -0.045  1.00  0.00     0.003 A 
HETATM   31  C12 UNL     1      -5.185   1.491  -1.176  1.00  0.00     0.044 A 
HETATM   32  C13 UNL     1      -3.795   1.412  -1.170  1.00  0.00     0.143 A 
HETATM   33  F1  UNL     1      -3.060   1.516  -2.303  1.00  0.00    -0.204 F 
ENDBRANCH  25  27
ENDBRANCH   4  25
TORSDOF 5
