REMARK  4 active torsions:
REMARK  status: ('A' for Active; 'I' for Inactive)
REMARK    1  A    between atoms: S1_2  and  C2_4 
REMARK    2  A    between atoms: C8_11  and  N1_12 
REMARK       I    between atoms: N1_12  and  C9_14 
REMARK    3  A    between atoms: C9_14  and  C10_16 
REMARK    4  A    between atoms: C16_24  and  O3_25 
ROOT
HETATM    1  N1  UNL     1       0.411  -0.602   0.355  1.00  0.00    -0.324 N 
ATOM      2  H1  UNL     1       0.487   0.368   0.660  1.00  0.00     0.169 HD
HETATM    3  C9  UNL     1       1.637  -1.010  -0.090  1.00  0.00     0.271 C 
HETATM    4  O2  UNL     1       1.863  -2.114  -0.607  1.00  0.00    -0.266 OA
ENDROOT
BRANCH   1   5
HETATM    5  C8  UNL     1      -0.893  -1.017   0.545  1.00  0.00     0.030 C 
HETATM    6  C7  UNL     1      -1.366  -2.206   0.338  1.00  0.00     0.035 C 
HETATM    7  C6  UNL     1      -2.801  -2.685   0.553  1.00  0.00     0.058 C 
HETATM    8 CL1  UNL     1      -0.302  -3.519  -0.249  1.00  0.00    -0.087 Cl
HETATM    9  C5  UNL     1      -3.480  -1.555   1.227  1.00  0.00    -0.004 C 
HETATM   10  C4  UNL     1      -4.925  -1.522   1.353  1.00  0.00     0.006 C 
HETATM   11  C18 UNL     1      -3.141  -0.393   0.232  1.00  0.00     0.012 C 
HETATM   12  C3  UNL     1      -5.288  -0.036   1.174  1.00  0.00     0.018 C 
HETATM   13  C2  UNL     1      -4.384   0.243  -0.036  1.00  0.00     0.083 C 
HETATM   14  C17 UNL     1      -1.933   0.147   0.868  1.00  0.00     0.065 C 
BRANCH  13  15
HETATM   15  S1  UNL     1      -4.566   1.801  -0.788  1.00  0.00     0.015 S 
HETATM   16  C1  UNL     1      -6.295   1.906  -1.384  1.00  0.00     0.127 C 
HETATM   17  O1  UNL     1      -3.744   1.787  -2.098  1.00  0.00    -0.258 OA
ENDBRANCH  13  15
ENDBRANCH   1   5
BRANCH   3  18
HETATM   18  C10 UNL     1       2.854  -0.103   0.013  1.00  0.00     0.106 C 
HETATM   19  N2  UNL     1       2.920   0.999  -0.777  1.00  0.00    -0.366 N 
HETATM   20  C11 UNL     1       3.703   1.069  -1.933  1.00  0.00     0.061 C 
ATOM     21  H2  UNL     1       2.371   1.817  -0.514  1.00  0.00     0.165 HD
HETATM   22  C12 UNL     1       5.139   1.430  -1.813  1.00  0.00     0.044 C 
HETATM   23  C13 UNL     1       5.672   1.686  -0.455  1.00  0.00     0.005 C 
HETATM   24  C14 UNL     1       5.634   0.500   0.458  1.00  0.00     0.003 C 
HETATM   25  C15 UNL     1       4.650   0.724   1.583  1.00  0.00     0.038 C 
HETATM   26  C16 UNL     1       3.371  -0.017   1.406  1.00  0.00     0.173 C 
BRANCH  26  27
HETATM   27  O3  UNL     1       3.674  -1.348   1.872  1.00  0.00    -0.389 OA
ATOM     28  H3  UNL     1       4.004  -1.293   2.761  1.00  0.00     0.210 HD
ENDBRANCH  26  27
ENDBRANCH   3  18
TORSDOF 4
