REMARK  5 active torsions:
REMARK  status: ('A' for Active; 'I' for Inactive)
REMARK    1  A    between atoms: C2_3  and  C3_4 
REMARK       I    between atoms: C3_4  and  N2_6 
REMARK    2  A    between atoms: N2_6  and  C4_8 
REMARK    3  A    between atoms: C15_20  and  O2_21 
REMARK    4  A    between atoms: C16_23  and  N3_24 
REMARK    5  A    between atoms: N3_24  and  C17_26 
ROOT
HETATM    1  N1  UNL     1       9.077   3.654  -1.618  1.00  0.00    -0.197 NA
HETATM    2  C1  UNL     1       8.765   2.658  -1.104  1.00  0.00     0.068 C 
HETATM    3  C2  UNL     1       8.368   1.396  -0.480  1.00  0.00     0.226 C 
ENDROOT
BRANCH   3   4
HETATM    4  C3  UNL     1       6.941   1.201  -0.727  1.00  0.00     0.231 C 
HETATM    5  O1  UNL     1       6.235   2.027  -1.400  1.00  0.00    -0.273 OA
HETATM    6  N2  UNL     1       6.223   0.076  -0.238  1.00  0.00    -0.355 N 
ATOM      7  H2  UNL     1       6.730  -0.620   0.309  1.00  0.00     0.162 HD
BRANCH   6   8
HETATM    8  C4  UNL     1       4.808  -0.135  -0.475  1.00  0.00     0.089 C 
HETATM    9  C5  UNL     1       4.623  -1.381  -1.253  1.00  0.00     0.030 C 
HETATM   10  C6  UNL     1       3.797  -2.433  -0.545  1.00  0.00     0.041 C 
HETATM   11  C7  UNL     1       2.592  -1.847   0.075  1.00  0.00    -0.049 A 
HETATM   12  C8  UNL     1       1.379  -2.454  -0.056  1.00  0.00     0.045 A 
HETATM   13  C12 UNL     1       2.736  -0.669   0.770  1.00  0.00    -0.049 A 
HETATM   14  C9  UNL     1       0.254  -1.881   0.520  1.00  0.00     0.079 A 
HETATM   15  C10 UNL     1       0.424  -0.692   1.216  1.00  0.00     0.012 A 
HETATM   16  O3  UNL     1      -0.916  -2.600   0.312  1.00  0.00    -0.345 OA
HETATM   17  C11 UNL     1       1.660  -0.069   1.353  1.00  0.00     0.020 A 
HETATM   18  C14 UNL     1      -0.702   0.025   1.862  1.00  0.00     0.240 C 
HETATM   19  F1  UNL     1      -1.188  -0.543   2.986  1.00  0.00    -0.241 F 
HETATM   20  C15 UNL     1      -1.741   0.345   0.799  1.00  0.00     0.204 C 
HETATM   21  C16 UNL     1      -2.525  -0.758   0.267  1.00  0.00     0.039 C 
HETATM   22  C23 UNL     1      -2.184  -2.160   0.762  1.00  0.00     0.230 C 
HETATM   23  C13 UNL     1       4.080  -0.098   0.850  1.00  0.00     0.064 C 
BRANCH  20  24
HETATM   24  O2  UNL     1      -0.993   1.036  -0.191  1.00  0.00    -0.387 OA
ATOM     25  H2  UNL     1      -1.642   1.236  -0.855  1.00  0.00     0.210 HD
ENDBRANCH  20  24
BRANCH  21  26
HETATM   26  N3  UNL     1      -3.920  -0.682   0.201  1.00  0.00    -0.388 N 
ATOM     27  H3  UNL     1      -4.445  -1.310   0.810  1.00  0.00     0.159 HD
BRANCH  26  28
HETATM   28  C17 UNL     1      -4.661   0.166  -0.613  1.00  0.00     0.081 C 
HETATM   29  C18 UNL     1      -4.559   1.624  -0.371  1.00  0.00     0.025 C 
HETATM   30  C19 UNL     1      -5.338   1.934   0.906  1.00  0.00     0.002 C 
HETATM   31  C20 UNL     1      -6.803   1.854   0.549  1.00  0.00     0.000 C 
HETATM   32  C21 UNL     1      -7.062   0.901  -0.571  1.00  0.00     0.002 C 
HETATM   33  C22 UNL     1      -6.139  -0.269  -0.629  1.00  0.00     0.025 C 
ENDBRANCH  26  28
ENDBRANCH  21  26
ENDBRANCH   6   8
ENDBRANCH   3   4
TORSDOF 5
