REMARK  5 active torsions:
REMARK  status: ('A' for Active; 'I' for Inactive)
REMARK    1  A    between atoms: N1_2  and  C2_5 
REMARK    2  A    between atoms: C2_5  and  C3_6 
REMARK    3  A    between atoms: C3_6  and  O1_7 
REMARK    4  A    between atoms: O1_7  and  C4_8 
REMARK    5  A    between atoms: C4_8  and  C5_10 
ROOT
HETATM    1  C5  UNL     1       0.872   0.684  -0.649  1.00  0.00     0.091 C 
HETATM    2  C6  UNL     1       0.335   1.856   0.107  1.00  0.00     0.024 C 
HETATM    3  C7  UNL     1      -0.873   1.379   0.857  1.00  0.00     0.016 C 
HETATM    4  C8  UNL     1      -2.114   2.134   0.486  1.00  0.00    -0.019 C 
HETATM    5  C9  UNL     1      -3.379   1.758   0.440  1.00  0.00    -0.084 C 
HETATM    6  C10 UNL     1      -4.263   2.871   0.011  1.00  0.00     0.043 C 
HETATM    7  C11 UNL     1      -4.177   0.529   0.692  1.00  0.00     0.071 C 
HETATM    8  C12 UNL     1      -3.725  -0.547  -0.269  1.00  0.00     0.065 C 
HETATM    9  C13 UNL     1      -4.854  -1.145  -1.044  1.00  0.00     0.046 C 
HETATM   10  C14 UNL     1      -2.847  -1.588   0.331  1.00  0.00     0.076 C 
HETATM   11  C15 UNL     1      -1.791  -0.709  -0.281  1.00  0.00     0.073 C 
HETATM   12  O3  UNL     1      -2.663  -0.036  -1.045  1.00  0.00    -0.368 OA
HETATM   13  C16 UNL     1      -0.624  -1.378  -0.935  1.00  0.00     0.022 C 
HETATM   14  C17 UNL     1      -0.513  -2.866  -0.724  1.00  0.00     0.013 C 
HETATM   15  C18 UNL     1       0.267  -0.555  -0.036  1.00  0.00     0.013 C 
HETATM   16  C19 UNL     1      -0.973  -0.082   0.730  1.00  0.00     0.034 C 
ENDROOT
BRANCH   1  17
HETATM   17  C4  UNL     1       2.359   0.570  -0.422  1.00  0.00     0.263 C 
HETATM   18  O2  UNL     1       2.875   1.366   0.384  1.00  0.00    -0.265 OA
BRANCH  17  19
HETATM   19  O1  UNL     1       3.117  -0.362  -1.061  1.00  0.00    -0.320 OA
BRANCH  19  20
HETATM   20  C3  UNL     1       4.497  -0.482  -0.850  1.00  0.00     0.206 C 
BRANCH  20  21
HETATM   21  C2  UNL     1       4.911  -0.852   0.533  1.00  0.00     0.258 C 
BRANCH  21  22
HETATM   22  N1  UNL     1       6.364  -0.927   0.543  1.00  0.00    -0.077 N 
HETATM   23  C1  UNL     1       6.951   0.389   0.371  1.00  0.00     0.267 C 
ATOM     24  H12 UNL     1       6.712  -1.589  -0.151  1.00  0.00     0.276 HD
ATOM     25  H11 UNL     1       6.712  -1.388   1.384  1.00  0.00     0.276 HD
ENDBRANCH  21  22
ENDBRANCH  20  21
ENDBRANCH  19  20
ENDBRANCH  17  19
ENDBRANCH   1  17
TORSDOF 5
