REMARK  4 active torsions:
REMARK  status: ('A' for Active; 'I' for Inactive)
REMARK    1  A    between atoms: C2_2  and  C4_4 
REMARK    2  A    between atoms: C15_17  and  N2_18 
REMARK    3  A    between atoms: N2_18  and  C16_20 
REMARK    4  A    between atoms: C16_20  and  C17_21 
REMARK       I    between atoms: C17_21  and  N3_23 
ROOT
HETATM    1  C4  UNL     1      -0.834   1.828  -0.450  1.00  0.00     0.097 C 
HETATM    2  C5  UNL     1      -0.849   2.578  -1.707  1.00  0.00     0.076 C 
HETATM    3  N1  UNL     1      -0.861   3.199  -2.707  1.00  0.00    -0.196 NA
HETATM    4  C6  UNL     1      -2.287   1.782   0.004  1.00  0.00     0.109 C 
HETATM    5  C7  UNL     1      -2.514   0.432   0.607  1.00  0.00     0.134 C 
HETATM    6  O1  UNL     1      -2.675   0.265   1.789  1.00  0.00    -0.297 OA
HETATM    7  C8  UNL     1      -2.514  -0.631  -0.417  1.00  0.00     0.073 C 
HETATM    8  C9  UNL     1      -1.165  -0.608  -1.068  1.00  0.00     0.045 C 
HETATM    9  C10 UNL     1      -0.682  -2.007  -0.892  1.00  0.00     0.012 C 
HETATM   10  C11 UNL     1      -1.983  -2.823  -0.968  1.00  0.00     0.010 C 
HETATM   11  C12 UNL     1      -2.824  -2.000   0.021  1.00  0.00    -0.037 C 
HETATM   12  C13 UNL     1      -4.256  -2.429  -0.216  1.00  0.00     0.015 C 
HETATM   13  C14 UNL     1      -2.439  -2.354   1.410  1.00  0.00     0.015 C 
HETATM   14  C15 UNL     1      -0.243   0.456  -0.623  1.00  0.00     0.011 C 
ENDROOT
BRANCH   1  15
HETATM   15  C2  UNL     1      -0.140   2.705   0.549  1.00  0.00     0.006 C 
HETATM   16  C1  UNL     1       1.254   3.094   0.252  1.00  0.00     0.011 C 
HETATM   17  C3  UNL     1      -0.949   4.008   0.602  1.00  0.00     0.011 C 
ENDBRANCH   1  15
BRANCH  14  18
HETATM   18  N2  UNL     1       0.757   0.129   0.345  1.00  0.00    -0.386 N 
ATOM     19  H2  UNL     1       0.582   0.174   1.349  1.00  0.00     0.159 HD
BRANCH  18  20
HETATM   20  C16 UNL     1       2.030  -0.269  -0.200  1.00  0.00     0.222 C 
BRANCH  20  21
HETATM   21  C17 UNL     1       3.148  -0.252   0.732  1.00  0.00     0.236 C 
HETATM   22  O2  UNL     1       2.996   0.135   1.914  1.00  0.00    -0.272 OA
HETATM   23  N3  UNL     1       4.419  -0.689   0.250  1.00  0.00    -0.359 N 
HETATM   24  C18 UNL     1       5.614  -0.614   1.076  1.00  0.00     0.152 C 
HETATM   25  C19 UNL     1       4.575  -1.269  -1.074  1.00  0.00     0.152 C 
ENDBRANCH  20  21
ENDBRANCH  18  20
ENDBRANCH  14  18
TORSDOF 4
