REMARK  7 active torsions:
REMARK  status: ('A' for Active; 'I' for Inactive)
REMARK    1  A    between atoms: C2_2  and  O1_3 
REMARK    2  A    between atoms: C2_2  and  C14_25 
REMARK    3  A    between atoms: O1_3  and  C3_4 
REMARK       I    between atoms: C3_4  and  N1_6 
REMARK    4  A    between atoms: N1_6  and  C4_8 
REMARK    5  A    between atoms: C7_11  and  C8_12 
REMARK    6  A    between atoms: C8_12  and  N2_13 
REMARK    7  A    between atoms: C10_15  and  C11_16 
ROOT
HETATM    1  C4  UNL     1       0.879   0.782   1.051  1.00  0.00     0.179 C 
HETATM    2  C5  UNL     1       1.597   0.937  -0.276  1.00  0.00     0.035 C 
HETATM    3  C6  UNL     1       2.965   0.269  -0.252  1.00  0.00     0.014 C 
HETATM    4  C7  UNL     1       3.958   0.990   0.582  1.00  0.00     0.043 C 
HETATM    5  C12 UNL     1       3.580   2.465   0.809  1.00  0.00     0.132 C 
HETATM    6  N3  UNL     1       2.602   2.551   1.870  1.00  0.00    -0.359 N 
ATOM      7  H3  UNL     1       2.734   3.296   2.554  1.00  0.00     0.162 HD
HETATM    8  C13 UNL     1       1.476   1.706   2.059  1.00  0.00     0.240 C 
HETATM    9  O3  UNL     1       0.890   1.703   3.175  1.00  0.00    -0.271 OA
ENDROOT
BRANCH   1  10
HETATM   10  N1  UNL     1      -0.508   1.085   0.825  1.00  0.00    -0.324 N 
HETATM   11  C3  UNL     1      -1.560   0.166   0.963  1.00  0.00     0.361 C 
HETATM   12  O2  UNL     1      -1.315  -1.011   1.305  1.00  0.00    -0.238 OA
ATOM     13  H1  UNL     1      -0.745   2.037   0.544  1.00  0.00     0.165 HD
BRANCH  11  14
HETATM   14  O1  UNL     1      -2.876   0.527   0.729  1.00  0.00    -0.299 OA
BRANCH  14  15
HETATM   15  C2  UNL     1      -3.881  -0.444   0.886  1.00  0.00     0.133 C 
HETATM   16  C1  UNL     1      -4.750   0.013   2.048  1.00  0.00     0.040 C 
BRANCH  15  17
HETATM   17  C14 UNL     1      -4.691  -0.600  -0.372  1.00  0.00     0.015 C 
HETATM   18  C15 UNL     1      -5.314   0.757  -0.710  1.00  0.00     0.007 C 
HETATM   19  C16 UNL     1      -6.176   0.614  -1.945  1.00  0.00     0.000 C 
HETATM   20  C17 UNL     1      -7.091  -0.580  -1.899  1.00  0.00     0.000 C 
HETATM   21  C18 UNL     1      -7.132  -1.112  -0.502  1.00  0.00     0.000 C 
HETATM   22  C19 UNL     1      -5.734  -1.652  -0.185  1.00  0.00     0.007 C 
ENDBRANCH  15  17
ENDBRANCH  14  15
ENDBRANCH  11  14
ENDBRANCH   1  10
BRANCH   4  23
HETATM   23  C8  UNL     1       5.331   0.886   0.023  1.00  0.00     0.078 C 
BRANCH  23  24
HETATM   24  N2  UNL     1       5.937  -0.347  -0.131  1.00  0.00    -0.325 N 
HETATM   25  C9  UNL     1       5.466  -1.266  -1.095  1.00  0.00     0.155 C 
HETATM   26  C10 UNL     1       6.539  -2.303  -1.357  1.00  0.00     0.107 C 
HETATM   27  S1  UNL     1       6.893  -3.045   0.295  1.00  0.00    -0.066 SA
HETATM   28  S2  UNL     1       6.260  -1.254   1.356  1.00  0.00     0.022 SA
BRANCH  26  29
HETATM   29  C11 UNL     1       7.768  -1.716  -1.971  1.00  0.00     0.239 C 
HETATM   30  F1  UNL     1       8.749  -2.637  -2.216  1.00  0.00    -0.254 F 
ENDBRANCH  26  29
ENDBRANCH  23  24
ENDBRANCH   4  23
TORSDOF 7
