REMARK  1 active torsions:
REMARK  status: ('A' for Active; 'I' for Inactive)
REMARK    1  A    between atoms: C2_2  and  N2_5 
REMARK       I    between atoms: N2_5  and  C4_7 
REMARK       I    between atoms: C4_7  and  N3_9 
ROOT
HETATM    1  C1  UNL     1       5.568   0.549  -1.497  1.00  0.00     0.048 C 
HETATM    2  C2  UNL     1       4.892  -0.458  -0.585  1.00  0.00     0.189 C 
HETATM    3  C3  UNL     1       5.713  -0.643   0.635  1.00  0.00     0.084 C 
HETATM    4  N1  UNL     1       6.370  -0.789   1.575  1.00  0.00    -0.195 NA
ENDROOT
BRANCH   2   5
HETATM    5  N2  UNL     1       3.620   0.051  -0.158  1.00  0.00    -0.326 N 
HETATM    6  C4  UNL     1       2.434  -0.671  -0.448  1.00  0.00     0.319 C 
HETATM    7  O1  UNL     1       2.526  -1.753  -1.080  1.00  0.00    -0.247 OA
HETATM    8  N3  UNL     1       1.145  -0.208  -0.045  1.00  0.00    -0.333 N 
HETATM    9  C5  UNL     1       0.927   1.014   0.681  1.00  0.00     0.129 C 
HETATM   10  C13 UNL     1      -0.105  -0.888  -0.304  1.00  0.00     0.144 C 
HETATM   11  C6  UNL     1      -0.412   0.732   1.366  1.00  0.00     0.038 C 
HETATM   12  C7  UNL     1      -1.160   0.024   0.281  1.00  0.00     0.031 C 
HETATM   13  C8  UNL     1      -1.711   0.983  -0.752  1.00  0.00     0.184 C 
HETATM   14  C12 UNL     1      -2.341  -0.766   0.816  1.00  0.00     0.076 C 
HETATM   15  O2  UNL     1      -2.424   1.965  -0.116  1.00  0.00    -0.385 OA
HETATM   16  C9  UNL     1      -3.612   1.582   0.428  1.00  0.00     0.212 C 
HETATM   17  C10 UNL     1      -4.228   0.361  -0.187  1.00  0.00     0.088 C 
HETATM   18  N4  UNL     1      -3.400  -0.755  -0.101  1.00  0.00    -0.375 N 
HETATM   19  C11 UNL     1      -3.640  -1.870  -0.898  1.00  0.00     0.154 C 
ATOM     20  H2  UNL     1       3.569   0.932   0.354  1.00  0.00     0.165 HD
ENDBRANCH   2   5
TORSDOF 1
