REMARK  3 active torsions:
REMARK  status: ('A' for Active; 'I' for Inactive)
REMARK    1  A    between atoms: C3_3  and  C5_5 
REMARK    2  A    between atoms: C7_8  and  C8_9 
REMARK    3  A    between atoms: C8_9  and  O2_10 
ROOT
HETATM    1  C1  UNL     1      -2.852   1.797  -0.519  1.00  0.00     0.097 C 
HETATM    2  C2  UNL     1      -2.277   0.828  -0.029  1.00  0.00    -0.182 C 
HETATM    3  C3  UNL     1      -1.623  -0.326   0.574  1.00  0.00     0.059 C 
HETATM    4  C4  UNL     1      -2.433  -1.581   0.376  1.00  0.00     0.023 C 
ENDROOT
BRANCH   3   5
HETATM    5  C5  UNL     1      -0.208  -0.425   0.211  1.00  0.00     0.087 C 
HETATM    6  C6  UNL     1       0.217  -0.568  -1.210  1.00  0.00     0.268 C 
HETATM    7  O1  UNL     1       1.621  -0.597  -1.136  1.00  0.00    -0.351 OA
HETATM    8  O3  UNL     1      -0.118   0.775  -1.373  1.00  0.00    -0.352 OA
HETATM    9  C7  UNL     1       1.856   0.589  -0.396  1.00  0.00     0.177 C 
HETATM   10  C9  UNL     1       0.420   0.911  -0.073  1.00  0.00     0.165 C 
BRANCH   9  11
HETATM   11  C8  UNL     1       2.695   0.321   0.819  1.00  0.00     0.198 C 
BRANCH  11  12
HETATM   12  O2  UNL     1       3.920  -0.209   0.352  1.00  0.00    -0.398 OA
ATOM     13  H2  UNL     1       4.451  -0.379   1.121  1.00  0.00     0.209 HD
ENDBRANCH  11  12
ENDBRANCH   9  11
ENDBRANCH   3   5
TORSDOF 3
