REMARK  12 active torsions:
REMARK  status: ('A' for Active; 'I' for Inactive)
REMARK       I    between atoms: C2_2  and  N1_4 
REMARK    1  A    between atoms: N1_4  and  C3_6 
REMARK    2  A    between atoms: C4_7  and  C5_8 
REMARK    3  A    between atoms: C5_8  and  C6_9 
REMARK    4  A    between atoms: C5_8  and  C7_15 
REMARK    5  A    between atoms: N2_10  and  N3_12 
REMARK    6  A    between atoms: C7_15  and  O3_17 
REMARK    7  A    between atoms: O3_17  and  C8_18 
REMARK    8  A    between atoms: C8_18  and  O4_19 
REMARK    9  A    between atoms: O4_19  and  C9_20 
REMARK   10  A    between atoms: C9_20  and  C10_22 
REMARK   11  A    between atoms: N4_24  and  O6_26 
REMARK   12  A    between atoms: C13_34  and  N7_35 
ROOT
HETATM    1  C5  UNL     1      -0.777  -0.703  -0.759  1.00  0.00     0.177 C 
ENDROOT
BRANCH   1   2
HETATM    2  C4  UNL     1      -1.860   0.272  -0.908  1.00  0.00     0.063 A 
HETATM    3  C3  UNL     1      -2.671   0.758   0.071  1.00  0.00     0.103 A 
HETATM    4  C13 UNL     1      -3.638   1.697  -0.217  1.00  0.00     0.132 A 
HETATM    5  N6  UNL     1      -3.819   2.166  -1.467  1.00  0.00    -0.293 N 
HETATM    6  C12 UNL     1      -3.022   1.688  -2.435  1.00  0.00     0.326 A 
ATOM      7  H6  UNL     1      -4.537   2.861  -1.671  1.00  0.00     0.172 HD
HETATM    8  N5  UNL     1      -2.094   0.787  -2.154  1.00  0.00    -0.309 N 
HETATM    9  O7  UNL     1      -3.160   2.108  -3.644  1.00  0.00    -0.247 OA
ATOM     10  H5  UNL     1      -1.511   0.452  -2.921  1.00  0.00     0.170 HD
BRANCH   3  11
HETATM   11  N1  UNL     1      -2.569   0.313   1.394  1.00  0.00    -0.323 N 
HETATM   12  C2  UNL     1      -3.402  -0.667   1.996  1.00  0.00     0.218 C 
HETATM   13  C1  UNL     1      -3.228  -1.094   3.415  1.00  0.00     0.117 C 
HETATM   14  O1  UNL     1      -4.351  -1.252   1.381  1.00  0.00    -0.274 OA
ATOM     15  H1  UNL     1      -1.837   0.726   1.972  1.00  0.00     0.169 HD
ENDBRANCH   3  11
BRANCH   4  16
HETATM   16  N7  UNL     1      -4.422   2.178   0.713  1.00  0.00    -0.383 N 
ATOM     17  H72 UNL     1      -4.285   1.823   1.659  1.00  0.00     0.157 HD
ATOM     18  H71 UNL     1      -5.138   2.873   0.500  1.00  0.00     0.157 HD
ENDBRANCH   4  16
ENDBRANCH   1   2
BRANCH   1  19
HETATM   19  C6  UNL     1      -1.069  -1.906   0.027  1.00  0.00     0.100 C 
HETATM   20  N2  UNL     1      -1.698  -2.896  -0.495  1.00  0.00    -0.321 N 
ATOM     21  H2  UNL     1      -1.883  -3.713   0.086  1.00  0.00     0.185 HD
BRANCH  20  22
HETATM   22  N3  UNL     1      -2.142  -2.910  -1.818  1.00  0.00    -0.346 N 
ATOM     23  H32 UNL     1      -1.949  -2.084  -2.385  1.00  0.00     0.176 HD
ATOM     24  H31 UNL     1      -2.642  -3.697  -2.233  1.00  0.00     0.176 HD
ENDBRANCH  20  22
ENDBRANCH   1  19
BRANCH   1  25
HETATM   25  C7  UNL     1       0.502  -0.054  -0.316  1.00  0.00     0.276 C 
HETATM   26  O2  UNL     1       0.999  -0.428   0.766  1.00  0.00    -0.264 OA
BRANCH  25  27
HETATM   27  O3  UNL     1       1.160   0.926  -1.027  1.00  0.00    -0.294 OA
BRANCH  27  28
HETATM   28  C8  UNL     1       2.343   1.476  -0.544  1.00  0.00     0.358 C 
BRANCH  28  29
HETATM   29  O4  UNL     1       3.371   0.506  -0.375  1.00  0.00    -0.290 OA
BRANCH  29  30
HETATM   30  C9  UNL     1       4.627   0.824   0.091  1.00  0.00     0.309 C 
HETATM   31  O5  UNL     1       4.841   2.030   0.370  1.00  0.00    -0.258 OA
BRANCH  30  32
HETATM   32  C10 UNL     1       5.696  -0.133   0.275  1.00  0.00     0.103 C 
HETATM   33  C11 UNL     1       7.008   0.314   0.782  1.00  0.00     0.077 C 
HETATM   34  N4  UNL     1       5.489  -1.369  -0.006  1.00  0.00    -0.268 N 
ATOM     35  H4  UNL     1       6.252  -2.032   0.130  1.00  0.00     0.194 HD
BRANCH  34  36
HETATM   36  O6  UNL     1       4.299  -1.837  -0.477  1.00  0.00    -0.290 OA
ATOM     37  H6  UNL     1       4.146  -2.751  -0.685  1.00  0.00     0.244 HD
ENDBRANCH  34  36
ENDBRANCH  30  32
ENDBRANCH  29  30
ENDBRANCH  28  29
ENDBRANCH  27  28
ENDBRANCH  25  27
ENDBRANCH   1  25
TORSDOF 12
