REMARK  10 active torsions:
REMARK  status: ('A' for Active; 'I' for Inactive)
REMARK    1  A    between atoms: O1_2  and  C2_3 
REMARK       I    between atoms: C2_3  and  N1_5 
REMARK    2  A    between atoms: N1_5  and  N2_7 
REMARK    3  A    between atoms: N2_7  and  C3_9 
REMARK    4  A    between atoms: C4_12  and  N4_13 
REMARK    5  A    between atoms: N4_13  and  N5_15 
REMARK    6  A    between atoms: N6_17  and  N7_19 
REMARK    7  A    between atoms: N7_19  and  N8_21 
REMARK    8  A    between atoms: N9_26  and  C8_27 
REMARK    9  A    between atoms: C8_27  and  C10_29 
REMARK   10  A    between atoms: C11_32  and  N10_33 
ROOT
HETATM    1  C3  UNL     1       2.421  -0.343  -0.167  1.00  0.00     0.713 C 
HETATM    2  N3  UNL     1       1.216   0.196   0.129  1.00  0.00    -0.168 N 
ATOM      3  H3  UNL     1       1.188   1.211   0.223  1.00  0.00     0.186 HD
HETATM    4  C4  UNL     1       0.053  -0.448   0.314  1.00  0.00     0.206 C 
HETATM    5  C7  UNL     1      -0.178  -1.802   0.085  1.00  0.00     0.308 C 
HETATM    6  O3  UNL     1      -1.269  -2.199   0.479  1.00  0.00    -0.263 OA
HETATM    7  N9  UNL     1       0.577  -2.736  -0.485  1.00  0.00    -0.129 N 
HETATM    8  C11 UNL     1       1.894  -2.633  -0.746  1.00  0.00     0.696 C 
HETATM    9  N11 UNL     1       2.718  -1.553  -0.648  1.00  0.00    -0.021 N 
ATOM     10  H11 UNL     1       3.673  -1.684  -0.981  1.00  0.00     0.203 HD
ENDROOT
BRANCH   4  11
HETATM   11  N4  UNL     1      -0.934   0.252   0.743  1.00  0.00    -0.265 N 
ATOM     12  H4  UNL     1      -1.844  -0.179   0.905  1.00  0.00     0.190 HD
BRANCH  11  13
HETATM   13  N5  UNL     1      -0.740   1.608   0.983  1.00  0.00    -0.226 N 
HETATM   14  N6  UNL     1      -1.741   2.349   1.176  1.00  0.00    -0.218 N 
ATOM     15  H6  UNL     1      -1.619   3.346   1.353  1.00  0.00     0.211 HD
ATOM     16  H5  UNL     1       0.202   1.999   1.003  1.00  0.00     0.210 HD
BRANCH  14  17
HETATM   17  N7  UNL     1      -3.016   1.790   1.144  1.00  0.00    -0.247 N 
ATOM     18  H7  UNL     1      -3.280   1.040   1.783  1.00  0.00     0.203 HD
BRANCH  17  19
HETATM   19  N8  UNL     1      -3.918   2.292   0.208  1.00  0.00    -0.224 NA
HETATM   20  C5  UNL     1      -4.975   1.380  -0.112  1.00  0.00     0.137 C 
HETATM   21  C6  UNL     1      -4.358   3.630   0.494  1.00  0.00     0.137 C 
ENDBRANCH  17  19
ENDBRANCH  14  17
ENDBRANCH  11  13
ENDBRANCH   4  11
BRANCH   1  22
HETATM   22  N2  UNL     1       3.415   0.448   0.060  1.00  0.00    -0.127 N 
ATOM     23  H2  UNL     1       4.353   0.102  -0.142  1.00  0.00     0.205 HD
BRANCH  22  24
HETATM   24  N1  UNL     1       3.297   1.727   0.556  1.00  0.00    -0.231 N 
HETATM   25  C2  UNL     1       3.965   2.801  -0.095  1.00  0.00     0.379 C 
HETATM   26  O2  UNL     1       4.672   2.601  -1.131  1.00  0.00    -0.237 OA
ATOM     27  H1  UNL     1       2.733   1.904   1.387  1.00  0.00     0.193 HD
BRANCH  25  28
HETATM   28  O1  UNL     1       3.894   4.115   0.345  1.00  0.00    -0.308 OA
HETATM   29  C1  UNL     1       4.572   5.182  -0.323  1.00  0.00     0.215 C 
ENDBRANCH  25  28
ENDBRANCH  22  24
ENDBRANCH   1  22
BRANCH   7  30
HETATM   30  C8  UNL     1      -0.023  -3.947  -0.860  1.00  0.00     0.208 C 
HETATM   31  C9  UNL     1      -1.471  -3.934  -1.229  1.00  0.00     0.045 C 
BRANCH  30  32
HETATM   32  C10 UNL     1       0.127  -4.992   0.177  1.00  0.00     0.197 C 
HETATM   33  O4  UNL     1       0.711  -6.056  -0.066  1.00  0.00    -0.646 OA
HETATM   34  O5  UNL     1      -0.390  -4.777   1.427  1.00  0.00    -0.646 OA
ENDBRANCH  30  32
ENDBRANCH   7  30
BRANCH   8  35
HETATM   35  N10 UNL     1       2.469  -3.683  -1.141  1.00  0.00    -0.234 N 
ATOM     36 2H10 UNL     1       1.852  -4.492  -1.214  1.00  0.00     0.174 HD
ATOM     37 1H10 UNL     1       3.467  -3.605  -1.339  1.00  0.00     0.174 HD
ENDBRANCH   8  35
TORSDOF 10
