REMARK  19 active torsions:
REMARK  status: ('A' for Active; 'I' for Inactive)
REMARK    1  A    between atoms: O1_2  and  C2_3 
REMARK    2  A    between atoms: C4_5  and  C5_6 
REMARK    3  A    between atoms: C12_17  and  N2_18 
REMARK    4  A    between atoms: C13_22  and  N3_23 
REMARK    5  A    between atoms: C14_28  and  C15_29 
REMARK    6  A    between atoms: C15_29  and  S1_30 
REMARK    7  A    between atoms: S1_30  and  C16_33 
REMARK    8  A    between atoms: C16_33  and  C17_34 
REMARK    9  A    between atoms: C16_33  and  C18_39 
REMARK   10  A    between atoms: C17_34  and  O5_35 
REMARK   11  A    between atoms: C17_34  and  O6_37 
REMARK   12  A    between atoms: C18_39  and  O7_40 
REMARK   13  A    between atoms: C18_39  and  O8_42 
REMARK   14  A    between atoms: C19_44  and  C20_45 
REMARK       I    between atoms: C20_45  and  N6_47 
REMARK   15  A    between atoms: N6_47  and  N7_49 
REMARK   16  A    between atoms: C22_53  and  O10_54 
REMARK   17  A    between atoms: O10_54  and  C23_55 
REMARK   18  A    between atoms: C23_55  and  C24_57 
REMARK   19  A    between atoms: C27_60  and  O12_61 
ROOT
HETATM    1  C5  UNL     1       2.243   0.164  -0.867  1.00  0.00    -0.023 A 
HETATM    2  C6  UNL     1       1.140  -0.383  -1.484  1.00  0.00     0.013 A 
HETATM    3  C7  UNL     1      -0.077   0.305  -1.552  1.00  0.00     0.017 A 
HETATM    4  C8  UNL     1      -0.191   1.577  -0.985  1.00  0.00     0.025 A 
HETATM    5  C9  UNL     1       0.914   2.113  -0.367  1.00  0.00     0.090 A 
HETATM    6  C10 UNL     1       2.122   1.418  -0.308  1.00  0.00     0.050 A 
HETATM    7  O2  UNL     1       0.779   3.371   0.209  1.00  0.00    -0.295 OA
HETATM    8  C11 UNL     1      -0.420   4.062   0.173  1.00  0.00     0.154 C 
HETATM    9  N1  UNL     1      -0.727   4.940   1.089  1.00  0.00    -0.381 N 
ATOM     10  H11 UNL     1      -1.610   5.449   1.062  1.00  0.00     0.158 HD
ATOM     11  H12 UNL     1      -0.076   5.130   1.851  1.00  0.00     0.158 HD
HETATM   12  C12 UNL     1      -1.362   3.787  -0.930  1.00  0.00     0.309 C 
HETATM   13  C13 UNL     1      -1.437   2.305  -1.173  1.00  0.00     0.087 C 
ENDROOT
BRANCH  13  14
HETATM   14  N3  UNL     1      -2.640   1.745  -0.619  1.00  0.00    -0.235 N 
HETATM   15  N4  UNL     1      -3.868   2.026  -1.167  1.00  0.00    -0.235 N 
HETATM   16  N5  UNL     1      -4.776   1.385  -0.527  1.00  0.00    -0.287 N 
ATOM     17  H4  UNL     1      -4.032   2.647  -1.959  1.00  0.00     0.209 HD
HETATM   18  C14 UNL     1      -4.249   0.655   0.463  1.00  0.00     0.075 A 
ATOM     19  H5  UNL     1      -5.772   1.426  -0.745  1.00  0.00     0.188 HD
HETATM   20  C19 UNL     1      -2.860   0.908   0.382  1.00  0.00     0.152 A 
BRANCH  18  21
HETATM   21  C15 UNL     1      -4.958  -0.212   1.425  1.00  0.00     0.202 C 
BRANCH  21  22
HETATM   22  S1  UNL     1      -6.710  -0.168   1.156  1.00  0.00     0.163 S 
HETATM   23  O3  UNL     1      -7.144   1.282   1.302  1.00  0.00    -0.227 OA
HETATM   24  O4  UNL     1      -7.374  -0.920   2.276  1.00  0.00    -0.227 OA
BRANCH  22  25
HETATM   25  C16 UNL     1      -7.221  -0.708  -0.422  1.00  0.00     0.218 C 
BRANCH  25  26
HETATM   26  C17 UNL     1      -8.716  -0.454  -0.541  1.00  0.00     0.277 C 
BRANCH  26  27
HETATM   27  O5  UNL     1      -8.931   0.929  -0.383  1.00  0.00    -0.370 OA
ATOM     28  H5  UNL     1      -9.865   1.088  -0.457  1.00  0.00     0.212 HD
ENDBRANCH  26  27
BRANCH  26  29
HETATM   29  O6  UNL     1      -9.181  -0.766  -1.814  1.00  0.00    -0.370 OA
ATOM     30  H6  UNL     1     -10.115  -0.607  -1.888  1.00  0.00     0.212 HD
ENDBRANCH  26  29
ENDBRANCH  25  26
BRANCH  25  31
HETATM   31  C18 UNL     1      -6.895  -2.156  -0.714  1.00  0.00     0.277 C 
BRANCH  31  32
HETATM   32  O7  UNL     1      -7.337  -2.512  -1.991  1.00  0.00    -0.370 OA
ATOM     33  H7  UNL     1      -7.132  -3.421  -2.174  1.00  0.00     0.212 HD
ENDBRANCH  31  32
BRANCH  31  34
HETATM   34  O8  UNL     1      -5.516  -2.349  -0.702  1.00  0.00    -0.370 OA
ATOM     35  H8  UNL     1      -5.311  -3.258  -0.885  1.00  0.00     0.212 HD
ENDBRANCH  31  34
ENDBRANCH  25  31
ENDBRANCH  22  25
ENDBRANCH  21  22
ENDBRANCH  18  21
BRANCH  20  36
HETATM   36  C20 UNL     1      -1.955   0.365   1.358  1.00  0.00     0.290 C 
HETATM   37  O9  UNL     1      -1.209   1.081   2.084  1.00  0.00    -0.264 OA
HETATM   38  N6  UNL     1      -1.850  -1.036   1.555  1.00  0.00    -0.271 N 
ATOM     39  H6  UNL     1      -2.430  -1.650   0.984  1.00  0.00     0.189 HD
BRANCH  38  40
HETATM   40  N7  UNL     1      -0.989  -1.618   2.496  1.00  0.00    -0.342 N 
ATOM     41  H72 UNL     1      -0.417  -0.989   3.059  1.00  0.00     0.176 HD
ATOM     42  H71 UNL     1      -0.914  -2.625   2.638  1.00  0.00     0.176 HD
ENDBRANCH  38  40
ENDBRANCH  20  36
ENDBRANCH  13  14
BRANCH  12  43
HETATM   43  N2  UNL     1      -2.701   4.299  -0.672  1.00  0.00    -0.062 N 
ATOM     44  H23 UNL     1      -3.063   3.945   0.214  1.00  0.00     0.275 HD
ATOM     45  H22 UNL     1      -2.675   5.295  -0.454  1.00  0.00     0.275 HD
ATOM     46  H21 UNL     1      -3.352   4.109  -1.434  1.00  0.00     0.275 HD
ENDBRANCH  12  43
BRANCH   1  47
HETATM   47  C4  UNL     1       3.490  -0.600  -0.814  1.00  0.00    -0.020 A 
HETATM   48  C3  UNL     1       3.820  -1.482  -1.817  1.00  0.00     0.052 A 
HETATM   49  C2  UNL     1       4.988  -2.208  -1.806  1.00  0.00     0.104 A 
HETATM   50  C27 UNL     1       5.856  -2.029  -0.732  1.00  0.00     0.133 A 
HETATM   51  C22 UNL     1       5.568  -1.158   0.293  1.00  0.00     0.116 A 
HETATM   52  C21 UNL     1       4.384  -0.457   0.230  1.00  0.00     0.052 A 
BRANCH  49  53
HETATM   53  O1  UNL     1       5.265  -3.079  -2.839  1.00  0.00    -0.353 OA
HETATM   54  C1  UNL     1       4.335  -3.209  -3.892  1.00  0.00     0.210 C 
ENDBRANCH  49  53
BRANCH  50  55
HETATM   55  O12 UNL     1       7.020  -2.745  -0.712  1.00  0.00    -0.356 OA
ATOM     56  H12 UNL     1       7.612  -2.623   0.021  1.00  0.00     0.218 HD
ENDBRANCH  50  55
BRANCH  51  57
HETATM   57  O10 UNL     1       6.467  -1.016   1.337  1.00  0.00    -0.276 OA
BRANCH  57  58
HETATM   58  C23 UNL     1       7.562  -0.152   1.205  1.00  0.00     0.267 C 
HETATM   59  O11 UNL     1       7.654   0.452   0.097  1.00  0.00    -0.264 OA
BRANCH  58  60
HETATM   60  C24 UNL     1       8.553   0.054   2.271  1.00  0.00     0.078 C 
HETATM   61  C25 UNL     1       9.212  -1.197   2.751  1.00  0.00     0.020 C 
HETATM   62  C26 UNL     1       7.985   0.811   3.449  1.00  0.00     0.020 C 
ENDBRANCH  58  60
ENDBRANCH  57  58
ENDBRANCH  51  57
ENDBRANCH   1  47
TORSDOF 19
