REMARK  2 active torsions:
REMARK  status: ('A' for Active; 'I' for Inactive)
REMARK       I    between atoms: C2_2  and  N1_4 
REMARK    1  A    between atoms: C4_11  and  N4_12 
REMARK    2  A    between atoms: N4_12  and  N5_14 
ROOT
HETATM    1  C1  UNL     1      -2.767  -0.818   0.040  1.00  0.00     0.119 C 
HETATM    2  C2  UNL     1      -1.335  -1.003  -0.305  1.00  0.00     0.244 C 
HETATM    3  O1  UNL     1      -0.986  -2.029  -0.914  1.00  0.00    -0.272 OA
HETATM    4  N1  UNL     1      -0.406   0.004   0.075  1.00  0.00    -0.060 N 
HETATM    5  C3  UNL     1      -0.654   1.141   0.726  1.00  0.00     0.363 A 
HETATM    6  O2  UNL     1      -1.795   1.519   1.125  1.00  0.00    -0.244 OA
HETATM    7  N2  UNL     1       0.482   1.840   0.906  1.00  0.00    -0.236 N 
ATOM      8  H2  UNL     1       0.574   2.742   1.373  1.00  0.00     0.192 HD
HETATM    9  N3  UNL     1       1.456   1.131   0.360  1.00  0.00    -0.126 N 
ATOM     10  H3  UNL     1       2.441   1.394   0.333  1.00  0.00     0.206 HD
HETATM   11  C4  UNL     1       0.922  -0.012  -0.161  1.00  0.00     0.724 A 
ENDROOT
BRANCH  11  12
HETATM   12  N4  UNL     1       1.551  -0.955  -0.773  1.00  0.00    -0.137 N 
ATOM     13  H4  UNL     1       1.025  -1.760  -1.113  1.00  0.00     0.205 HD
BRANCH  12  14
HETATM   14  N5  UNL     1       2.920  -0.909  -0.983  1.00  0.00    -0.331 N 
ATOM     15  H52 UNL     1       3.430  -0.097  -0.636  1.00  0.00     0.177 HD
ATOM     16  H51 UNL     1       3.418  -1.656  -1.468  1.00  0.00     0.177 HD
ENDBRANCH  12  14
ENDBRANCH  11  12
TORSDOF 2
