REMARK  8 active torsions:
REMARK  status: ('A' for Active; 'I' for Inactive)
REMARK    1  A    between atoms: C1_2  and  C2_4 
REMARK    2  A    between atoms: C2_4  and  C3_5 
REMARK    3  A    between atoms: C3_5  and  N2_6 
REMARK    4  A    between atoms: N2_6  and  C4_8 
REMARK    5  A    between atoms: C6_13  and  C7_14 
REMARK    6  A    between atoms: N5_15  and  N6_17 
REMARK       I    between atoms: N6_17  and  C8_19 
REMARK    7  A    between atoms: N8_21  and  N9_23 
REMARK    8  A    between atoms: N9_23  and  O2_25 
ROOT
HETATM    1  C4  UNL     1      -1.474   1.138  -0.486  1.00  0.00     0.682 A 
HETATM    2  N3  UNL     1      -1.260  -0.174  -0.597  1.00  0.00    -0.178 N 
ATOM      3  H3  UNL     1      -2.025  -0.769  -0.915  1.00  0.00     0.185 HD
HETATM    4  C5  UNL     1      -0.075  -0.745  -0.306  1.00  0.00     0.149 A 
HETATM    5  N4  UNL     1       0.162  -2.143  -0.421  1.00  0.00    -0.081 NA
HETATM    6  C6  UNL     1       0.938   0.087   0.120  1.00  0.00     0.091 A 
HETATM    7  C9  UNL     1       0.736   1.447   0.241  1.00  0.00     0.274 A 
HETATM    8  O3  UNL     1       1.651   2.219   0.628  1.00  0.00    -0.267 OA
HETATM    9  N10 UNL     1      -0.481   1.942  -0.070  1.00  0.00    -0.155 N 
ATOM     10  H10 UNL     1      -0.650   2.945   0.012  1.00  0.00     0.187 HD
ENDROOT
BRANCH   6  11
HETATM   11  C7  UNL     1       2.234  -0.516   0.441  1.00  0.00     0.127 C 
HETATM   12  N5  UNL     1       3.171   0.262   0.836  1.00  0.00    -0.308 N 
ATOM     13  H5  UNL     1       2.974   1.260   0.909  1.00  0.00     0.186 HD
BRANCH  12  14
HETATM   14  N6  UNL     1       4.452  -0.188   1.173  1.00  0.00    -0.273 N 
HETATM   15  C8  UNL     1       5.620   0.434   0.662  1.00  0.00     0.223 C 
HETATM   16  N7  UNL     1       5.667   1.831   0.484  1.00  0.00    -0.061 NA
HETATM   17  N8  UNL     1       6.660  -0.257   0.350  1.00  0.00    -0.253 N 
ATOM     18  H8  UNL     1       7.482   0.224  -0.015  1.00  0.00     0.191 HD
ATOM     19  H6  UNL     1       4.549  -0.984   1.803  1.00  0.00     0.189 HD
BRANCH  17  20
HETATM   20  N9  UNL     1       6.696  -1.648   0.497  1.00  0.00    -0.208 N 
ATOM     21  H9  UNL     1       5.836  -2.175   0.345  1.00  0.00     0.215 HD
BRANCH  20  22
HETATM   22  O2  UNL     1       7.723  -2.271   0.803  1.00  0.00    -0.274 OA
ATOM     23  H2  UNL     1       7.747  -3.215   0.903  1.00  0.00     0.246 HD
ENDBRANCH  20  22
ENDBRANCH  17  20
ENDBRANCH  12  14
ENDBRANCH   6  11
BRANCH   1  24
HETATM   24  N2  UNL     1      -2.598   1.661  -0.765  1.00  0.00    -0.225 N 
ATOM     25  H2  UNL     1      -2.716   2.669  -0.667  1.00  0.00     0.177 HD
BRANCH  24  26
HETATM   26  C3  UNL     1      -3.702   0.868  -1.214  1.00  0.00     0.147 C 
BRANCH  26  27
HETATM   27  C2  UNL     1      -4.462   0.230  -0.068  1.00  0.00     0.119 C 
BRANCH  27  28
HETATM   28  C1  UNL     1      -5.593  -0.583  -0.578  1.00  0.00     0.232 C 
HETATM   29  N1  UNL     1      -6.443  -1.272   0.297  1.00  0.00    -0.062 NA
HETATM   30  O1  UNL     1      -5.775  -0.643  -1.818  1.00  0.00    -0.277 OA
ENDBRANCH  27  28
ENDBRANCH  26  27
ENDBRANCH  24  26
ENDBRANCH   1  24
TORSDOF 8
