REMARK  8 active torsions:
REMARK  status: ('A' for Active; 'I' for Inactive)
REMARK    1  A    between atoms: N2_5  and  C3_6 
REMARK    2  A    between atoms: C3_6  and  C4_7 
REMARK    3  A    between atoms: C4_7  and  O2_8 
REMARK    4  A    between atoms: O2_8  and  C5_9 
REMARK    5  A    between atoms: C5_9  and  C6_10 
REMARK    6  A    between atoms: C6_10  and  O3_11 
REMARK    7  A    between atoms: C8_16  and  N4_17 
REMARK    8  A    between atoms: C9_22  and  N6_23 
REMARK       I    between atoms: N6_23  and  C10_25 
ROOT
HETATM    1  C1  UNL     1      -2.105   1.836  -2.001  1.00  0.00     0.161 C 
HETATM    2  N1  UNL     1      -1.204   0.989  -1.213  1.00  0.00    -0.297 N 
HETATM    3  C2  UNL     1       0.105   0.787  -1.398  1.00  0.00     0.330 A 
HETATM    4  O1  UNL     1       0.753   1.337  -2.330  1.00  0.00    -0.246 OA
HETATM    5  N2  UNL     1       0.592  -0.057  -0.473  1.00  0.00    -0.281 N 
HETATM    6  C7  UNL     1      -0.427  -0.394   0.311  1.00  0.00     0.158 A 
HETATM    7  N3  UNL     1      -0.522  -1.198   1.382  1.00  0.00    -0.174 N 
ATOM      8  H3  UNL     1       0.308  -1.682   1.725  1.00  0.00     0.186 HD
HETATM    9  C8  UNL     1      -1.698  -1.371   2.006  1.00  0.00     0.679 A 
HETATM   10  N5  UNL     1      -2.818  -0.730   1.560  1.00  0.00    -0.174 N 
ATOM     11  H5  UNL     1      -3.701  -0.875   2.050  1.00  0.00     0.186 HD
HETATM   12  C9  UNL     1      -2.789   0.089   0.491  1.00  0.00     0.154 A 
HETATM   13  C11 UNL     1      -1.577   0.262  -0.146  1.00  0.00     0.128 A 
ENDROOT
BRANCH   5  14
HETATM   14  C3  UNL     1       1.974  -0.492  -0.380  1.00  0.00     0.162 C 
BRANCH  14  15
HETATM   15  C4  UNL     1       2.775   0.416   0.483  1.00  0.00     0.188 C 
BRANCH  15  16
HETATM   16  O2  UNL     1       4.087  -0.016   0.573  1.00  0.00    -0.387 OA
BRANCH  16  17
HETATM   17  C5  UNL     1       4.771  -0.087  -0.611  1.00  0.00     0.193 C 
BRANCH  17  18
HETATM   18  C6  UNL     1       6.191  -0.562  -0.261  1.00  0.00     0.190 C 
BRANCH  18  19
HETATM   19  O3  UNL     1       6.783   0.337   0.596  1.00  0.00    -0.399 OA
ATOM     20  H3  UNL     1       7.660   0.044   0.812  1.00  0.00     0.209 HD
ENDBRANCH  18  19
ENDBRANCH  17  18
ENDBRANCH  16  17
ENDBRANCH  15  16
ENDBRANCH  14  15
ENDBRANCH   5  14
BRANCH   9  21
HETATM   21  N4  UNL     1      -1.835  -2.134   3.040  1.00  0.00    -0.234 N 
ATOM     22  H42 UNL     1      -0.998  -2.613   3.373  1.00  0.00     0.174 HD
ATOM     23  H41 UNL     1      -2.729  -2.265   3.514  1.00  0.00     0.174 HD
ENDBRANCH   9  21
BRANCH  12  24
HETATM   24  N6  UNL     1      -3.869   0.699   0.070  1.00  0.00    -0.315 N 
HETATM   25  C10 UNL     1      -5.107   0.537   0.701  1.00  0.00     0.187 C 
HETATM   26  N7  UNL     1      -5.447   1.345   1.645  1.00  0.00    -0.373 N 
HETATM   27  N8  UNL     1      -5.977  -0.502   0.306  1.00  0.00    -0.064 NA
ATOM     28  H72 UNL     1      -4.818   2.096   1.930  1.00  0.00     0.158 HD
ATOM     29  H71 UNL     1      -6.350   1.227   2.105  1.00  0.00     0.158 HD
ATOM     30  H6  UNL     1      -3.805   1.311  -0.743  1.00  0.00     0.170 HD
ENDBRANCH  12  24
TORSDOF 8
