REMARK  6 active torsions:
REMARK  status: ('A' for Active; 'I' for Inactive)
REMARK    1  A    between atoms: C9_17  and  N5_18 
REMARK    2  A    between atoms: N5_18  and  C10_20 
REMARK    3  A    between atoms: C10_20  and  C11_21 
REMARK    4  A    between atoms: C10_20  and  C14_24 
REMARK    5  A    between atoms: C14_24  and  O3_26 
REMARK    6  A    between atoms: C14_24  and  O4_28 
ROOT
HETATM    1  C1  UNL     1       0.888  -0.477  -2.160  1.00  0.00     0.051 C 
HETATM    2  C2  UNL     1       1.928  -0.349  -1.153  1.00  0.00    -0.018 A 
HETATM    3  C3  UNL     1       3.284  -0.555  -1.465  1.00  0.00     0.119 A 
HETATM    4  C4  UNL     1       3.583  -0.896  -2.828  1.00  0.00     0.105 C 
HETATM    5  N1  UNL     1       3.848  -1.175  -3.931  1.00  0.00    -0.191 NA
HETATM    6  C5  UNL     1       4.258  -0.432  -0.505  1.00  0.00     0.270 A 
HETATM    7  O1  UNL     1       5.451  -0.621  -0.814  1.00  0.00    -0.266 OA
HETATM    8  N2  UNL     1       3.971  -0.115   0.759  1.00  0.00    -0.302 N 
HETATM    9  C6  UNL     1       5.009   0.016   1.784  1.00  0.00     0.161 C 
HETATM   10  C7  UNL     1       2.671   0.092   1.099  1.00  0.00     0.128 A 
HETATM   11  N3  UNL     1       2.438   0.410   2.394  1.00  0.00    -0.293 N 
ATOM     12  H3  UNL     1       3.202   0.488   3.065  1.00  0.00     0.172 HD
HETATM   13  C8  UNL     1       1.173   0.618   2.760  1.00  0.00     0.327 A 
HETATM   14  O2  UNL     1       0.881   0.923   3.968  1.00  0.00    -0.247 OA
HETATM   15  N4  UNL     1       0.144   0.526   1.907  1.00  0.00    -0.294 N 
ATOM     16  H4  UNL     1      -0.802   0.698   2.248  1.00  0.00     0.172 HD
HETATM   17  C9  UNL     1       0.330   0.207   0.589  1.00  0.00     0.124 A 
HETATM   18  C16 UNL     1       1.661  -0.022   0.163  1.00  0.00     0.060 A 
ENDROOT
BRANCH  17  19
HETATM   19  N5  UNL     1      -0.569   0.108  -0.240  1.00  0.00    -0.343 N 
ATOM     20  H5  UNL     1      -0.130  -0.137  -1.128  1.00  0.00     0.167 HD
BRANCH  19  21
HETATM   21  C10 UNL     1      -1.938   0.191  -0.473  1.00  0.00     0.053 C 
BRANCH  21  22
HETATM   22  C11 UNL     1      -2.865  -0.887  -0.014  1.00  0.00     0.029 C 
HETATM   23  C12 UNL     1      -2.957  -1.202   1.418  1.00  0.00     0.016 C 
HETATM   24  C13 UNL     1      -2.718  -2.158  -0.874  1.00  0.00     0.016 C 
ENDBRANCH  21  22
BRANCH  21  25
HETATM   25  C14 UNL     1      -2.532   1.581  -0.431  1.00  0.00     0.196 C 
HETATM   26  C15 UNL     1      -3.991   1.594  -0.850  1.00  0.00     0.086 C 
BRANCH  25  27
HETATM   27  O3  UNL     1      -1.905   2.400  -1.406  1.00  0.00    -0.361 OA
ATOM     28  H3  UNL     1      -2.278   3.273  -1.380  1.00  0.00     0.213 HD
ENDBRANCH  25  27
BRANCH  25  29
HETATM   29  O4  UNL     1      -2.469   2.248   0.759  1.00  0.00    -0.361 OA
ATOM     30  H4  UNL     1      -2.842   3.121   0.785  1.00  0.00     0.213 HD
ENDBRANCH  25  29
ENDBRANCH  21  25
ENDBRANCH  19  21
ENDBRANCH  17  19
TORSDOF 6
