REMARK  7 active torsions:
REMARK  status: ('A' for Active; 'I' for Inactive)
REMARK    1  A    between atoms: C2_2  and  N1_4 
REMARK    2  A    between atoms: N1_4  and  C4_6 
REMARK    3  A    between atoms: C4_6  and  N2_8 
REMARK    4  A    between atoms: N2_8  and  C5_10 
REMARK    5  A    between atoms: C8_15  and  C9_16 
REMARK    6  A    between atoms: C9_16  and  O2_17 
REMARK    7  A    between atoms: C11_23  and  O5_24 
ROOT
HETATM    1  C5  UNL     1       0.585  -1.434   0.386  1.00  0.00     0.178 C 
HETATM    2  S2  UNL     1      -0.798  -2.640   0.256  1.00  0.00    -0.108 SA
HETATM    3  C6  UNL     1      -2.172  -1.450   0.469  1.00  0.00     0.206 C 
HETATM    4  O1  UNL     1      -2.736  -1.122  -0.747  1.00  0.00    -0.373 OA
HETATM    5  C7  UNL     1      -3.973  -0.544  -0.625  1.00  0.00     0.191 C 
HETATM    6  C8  UNL     1      -4.072   0.441   0.522  1.00  0.00     0.156 C 
HETATM    7  S3  UNL     1      -2.451   1.155   0.713  1.00  0.00     0.162 S 
HETATM    8  O3  UNL     1      -2.130   1.849  -0.586  1.00  0.00    -0.227 OA
HETATM    9  O4  UNL     1      -2.389   2.105   1.866  1.00  0.00    -0.227 OA
HETATM   10  C10 UNL     1      -1.370  -0.243   0.966  1.00  0.00     0.179 C 
HETATM   11  C11 UNL     1      -0.152  -0.159   0.073  1.00  0.00     0.172 C 
ENDROOT
BRANCH   1  12
HETATM   12  N2  UNL     1       1.628  -1.776  -0.535  1.00  0.00    -0.351 N 
ATOM     13  H2  UNL     1       1.480  -2.575  -1.151  1.00  0.00     0.163 HD
BRANCH  12  14
HETATM   14  C4  UNL     1       2.845  -1.076  -0.642  1.00  0.00     0.168 C 
HETATM   15  S1  UNL     1       3.947  -1.569  -1.765  1.00  0.00    -0.041 SA
BRANCH  14  16
HETATM   16  N1  UNL     1       3.231   0.039   0.137  1.00  0.00    -0.363 N 
ATOM     17  H1  UNL     1       2.590   0.383   0.852  1.00  0.00     0.162 HD
BRANCH  16  18
HETATM   18  C2  UNL     1       4.505   0.713  -0.041  1.00  0.00     0.075 C 
HETATM   19  C1  UNL     1       4.660   1.270  -1.425  1.00  0.00     0.032 C 
HETATM   20  C3  UNL     1       5.652  -0.262   0.213  1.00  0.00     0.032 C 
ENDBRANCH  16  18
ENDBRANCH  14  16
ENDBRANCH  12  14
ENDBRANCH   1  12
BRANCH  11  21
HETATM   21  O5  UNL     1      -0.580  -0.147  -1.256  1.00  0.00    -0.391 OA
ATOM     22  H5  UNL     1      -1.045   0.658  -1.453  1.00  0.00     0.210 HD
ENDBRANCH  11  21
BRANCH   6  23
HETATM   23  C9  UNL     1      -5.118   1.495   0.257  1.00  0.00     0.186 C 
BRANCH  23  24
HETATM   24  O2  UNL     1      -6.335   0.831   0.100  1.00  0.00    -0.399 OA
ATOM     25  H2  UNL     1      -6.994   1.495  -0.067  1.00  0.00     0.209 HD
ENDBRANCH  23  24
ENDBRANCH   6  23
TORSDOF 7
