REMARK  8 active torsions:
REMARK  status: ('A' for Active; 'I' for Inactive)
REMARK    1  A    between atoms: C1_2  and  C2_3 
REMARK       I    between atoms: C1_2  and  N1_16 
REMARK    2  A    between atoms: C2_3  and  C3_4 
REMARK    3  A    between atoms: C4_6  and  C5_7 
REMARK    4  A    between atoms: N1_16  and  C13_18 
REMARK    5  A    between atoms: C14_19  and  O4_20 
REMARK    6  A    between atoms: C15_22  and  O5_23 
REMARK    7  A    between atoms: C16_25  and  C17_26 
REMARK    8  A    between atoms: C17_26  and  O6_27 
ROOT
HETATM    1  O1  UNL     1      -0.295   0.354  -0.269  1.00  0.00    -0.273 OA
HETATM    2  C1  UNL     1       0.124  -0.624  -0.918  1.00  0.00     0.221 C 
HETATM    3  N1  UNL     1       1.459  -1.035  -0.746  1.00  0.00    -0.339 N 
ATOM      4  H1  UNL     1       1.790  -1.836  -1.284  1.00  0.00     0.164 HD
ENDROOT
BRANCH   3   5
HETATM    5  C13 UNL     1       2.391  -0.382   0.154  1.00  0.00     0.267 C 
HETATM    6  C14 UNL     1       3.614   0.064  -0.637  1.00  0.00     0.189 C 
HETATM    7  C15 UNL     1       4.894  -0.178   0.095  1.00  0.00     0.182 C 
HETATM    8  C16 UNL     1       4.734   0.044   1.581  1.00  0.00     0.197 C 
HETATM    9  O7  UNL     1       4.255  -1.121   2.176  1.00  0.00    -0.264 OA
HETATM   10  S1  UNL     1       2.898  -1.612   1.344  1.00  0.00     0.290 S 
HETATM   11  O8  UNL     1       1.785  -1.786   2.356  1.00  0.00    -0.196 OA
HETATM   12  O9  UNL     1       3.116  -2.949   0.687  1.00  0.00    -0.196 OA
BRANCH   6  13
HETATM   13  O4  UNL     1       3.454   1.427  -0.900  1.00  0.00    -0.390 OA
ATOM     14  H4  UNL     1       4.217   1.705  -1.393  1.00  0.00     0.210 HD
ENDBRANCH   6  13
BRANCH   7  15
HETATM   15  O5  UNL     1       5.439  -1.432  -0.126  1.00  0.00    -0.390 OA
ATOM     16  H5  UNL     1       6.253  -1.586   0.339  1.00  0.00     0.210 HD
ENDBRANCH   7  15
BRANCH   8  17
HETATM   17  C17 UNL     1       6.075   0.348   2.235  1.00  0.00     0.200 C 
BRANCH  17  18
HETATM   18  O6  UNL     1       6.635   1.494   1.709  1.00  0.00    -0.398 OA
ATOM     19  H6  UNL     1       7.472   1.684   2.117  1.00  0.00     0.209 HD
ENDBRANCH  17  18
ENDBRANCH   8  17
ENDBRANCH   3   5
BRANCH   2  20
HETATM   20  C2  UNL     1      -0.762  -1.328  -1.842  1.00  0.00     0.142 C 
BRANCH  20  21
HETATM   21  C3  UNL     1      -2.149  -0.760  -1.905  1.00  0.00     0.200 C 
HETATM   22  O2  UNL     1      -2.821  -0.774  -0.708  1.00  0.00    -0.368 OA
HETATM   23  C4  UNL     1      -3.983  -0.051  -1.041  1.00  0.00     0.162 C 
HETATM   24  C11 UNL     1      -3.444   1.213  -1.724  1.00  0.00     0.118 C 
HETATM   25  C12 UNL     1      -2.184   0.657  -2.310  1.00  0.00     0.158 C 
HETATM   26  O3  UNL     1      -1.414   1.329  -2.971  1.00  0.00    -0.295 OA
BRANCH  23  27
HETATM   27  C5  UNL     1      -4.788   0.284   0.158  1.00  0.00    -0.029 A 
HETATM   28  C6  UNL     1      -5.311   1.552   0.253  1.00  0.00     0.010 A 
HETATM   29  C7  UNL     1      -6.066   1.886   1.370  1.00  0.00     0.001 A 
HETATM   30  C8  UNL     1      -6.304   0.970   2.392  1.00  0.00     0.000 A 
HETATM   31  C9  UNL     1      -5.775  -0.284   2.278  1.00  0.00     0.001 A 
HETATM   32  C10 UNL     1      -5.015  -0.633   1.162  1.00  0.00     0.010 A 
ENDBRANCH  23  27
ENDBRANCH  20  21
ENDBRANCH   2  20
TORSDOF 8
