REMARK  13 active torsions:
REMARK  status: ('A' for Active; 'I' for Inactive)
REMARK    1  A    between atoms: C1_2  and  C2_3 
REMARK    2  A    between atoms: C4_5  and  O2_6 
REMARK    3  A    between atoms: O2_6  and  C5_7 
REMARK    4  A    between atoms: C6_9  and  C7_10 
REMARK    5  A    between atoms: C7_10  and  O4_11 
REMARK    6  A    between atoms: C8_13  and  O5_14 
REMARK    7  A    between atoms: C9_16  and  O6_17 
REMARK    8  A    between atoms: C10_19  and  O7_20 
REMARK    9  A    between atoms: C11_22  and  C12_23 
REMARK   10  A    between atoms: C12_23  and  O8_24 
REMARK   11  A    between atoms: C13_26  and  O9_27 
REMARK   12  A    between atoms: O9_27  and  C14_28 
REMARK   13  A    between atoms: C22_36  and  O10_37 
ROOT
HETATM    1  C2  UNL     1      -0.005   1.832  -1.764  1.00  0.00     0.081 C 
HETATM    2  C3  UNL     1      -1.295   1.657  -1.062  1.00  0.00     0.046 C 
HETATM    3  C4  UNL     1      -1.237   0.805   0.181  1.00  0.00     0.134 C 
HETATM    4  C11 UNL     1       0.072   0.334   0.631  1.00  0.00     0.070 C 
HETATM    5  C13 UNL     1       1.124   0.081  -0.400  1.00  0.00     0.160 C 
HETATM    6  C22 UNL     1       0.644   0.464  -1.807  1.00  0.00     0.158 C 
ENDROOT
BRANCH   3   7
HETATM    7  O2  UNL     1      -2.174  -0.217  -0.062  1.00  0.00    -0.353 OA
BRANCH   7   8
HETATM    8  C5  UNL     1      -3.381  -0.026   0.617  1.00  0.00     0.292 C 
HETATM    9  O3  UNL     1      -4.296   0.277  -0.401  1.00  0.00    -0.348 OA
HETATM   10  C6  UNL     1      -5.614   0.180  -0.017  1.00  0.00     0.179 C 
HETATM   11  C8  UNL     1      -5.839  -1.325   0.214  1.00  0.00     0.180 C 
HETATM   12  C9  UNL     1      -5.137  -1.641   1.488  1.00  0.00     0.183 C 
HETATM   13  C10 UNL     1      -3.725  -1.160   1.483  1.00  0.00     0.204 C 
BRANCH  10  14
HETATM   14  C7  UNL     1      -6.471   0.615  -1.174  1.00  0.00     0.198 C 
BRANCH  14  15
HETATM   15  O4  UNL     1      -6.178  -0.257  -2.243  1.00  0.00    -0.398 OA
ATOM     16  H4  UNL     1      -6.719   0.018  -2.974  1.00  0.00     0.209 HD
ENDBRANCH  14  15
ENDBRANCH  10  14
BRANCH  11  17
HETATM   17  O5  UNL     1      -7.194  -1.596   0.257  1.00  0.00    -0.390 OA
ATOM     18  H5  UNL     1      -7.333  -2.525   0.400  1.00  0.00     0.210 HD
ENDBRANCH  11  17
BRANCH  12  19
HETATM   19  O6  UNL     1      -5.117  -3.024   1.669  1.00  0.00    -0.390 OA
ATOM     20  H6  UNL     1      -4.669  -3.226   2.482  1.00  0.00     0.210 HD
ENDBRANCH  12  19
BRANCH  13  21
HETATM   21  O7  UNL     1      -3.463  -0.781   2.831  1.00  0.00    -0.388 OA
ATOM     22  H7  UNL     1      -3.686  -1.515   3.392  1.00  0.00     0.210 HD
ENDBRANCH  13  21
ENDBRANCH   7   8
ENDBRANCH   3   7
BRANCH   4  23
HETATM   23  C12 UNL     1      -0.099  -0.931   1.452  1.00  0.00     0.174 C 
BRANCH  23  24
HETATM   24  O8  UNL     1       1.155  -1.422   1.895  1.00  0.00    -0.400 OA
ATOM     25  H8  UNL     1       1.048  -2.214   2.409  1.00  0.00     0.209 HD
ENDBRANCH  23  24
ENDBRANCH   4  23
BRANCH   1  26
HETATM   26  C1  UNL     1       0.876   2.857  -1.175  1.00  0.00     0.238 C 
HETATM   27  O1  UNL     1       1.779   3.309  -1.859  1.00  0.00    -0.306 OA
ENDBRANCH   1  26
BRANCH   5  28
HETATM   28  O9  UNL     1       2.194   0.901  -0.189  1.00  0.00    -0.377 OA
BRANCH  28  29
HETATM   29  C14 UNL     1       3.430   0.418  -0.076  1.00  0.00     0.122 C 
HETATM   30  C15 UNL     1       4.007   0.757   1.276  1.00  0.00     0.032 C 
HETATM   31  C16 UNL     1       5.226  -0.104   1.477  1.00  0.00     0.007 C 
HETATM   32  C17 UNL     1       5.635  -0.879   0.276  1.00  0.00    -0.010 C 
HETATM   33  C18 UNL     1       7.159  -0.825   0.133  1.00  0.00     0.005 C 
HETATM   34  C20 UNL     1       5.601  -0.099  -1.017  1.00  0.00    -0.008 C 
HETATM   35  C19 UNL     1       6.922   0.480  -0.635  1.00  0.00     0.005 C 
HETATM   36  C21 UNL     1       4.441   0.855  -1.097  1.00  0.00     0.037 C 
ENDBRANCH  28  29
ENDBRANCH   5  28
BRANCH   6  37
HETATM   37  O10 UNL     1      -0.275  -0.431  -2.315  1.00  0.00    -0.392 OA
ATOM     38  H10 UNL     1       0.132  -1.289  -2.342  1.00  0.00     0.210 HD
ENDBRANCH   6  37
TORSDOF 13
