REMARK  12 active torsions:
REMARK  status: ('A' for Active; 'I' for Inactive)
REMARK    1  A    between atoms: O1_2  and  C2_3 
REMARK    2  A    between atoms: C3_5  and  S1_6 
REMARK    3  A    between atoms: S1_6  and  C4_7 
REMARK    4  A    between atoms: C4_7  and  C5_8 
REMARK    5  A    between atoms: C5_8  and  C6_9 
REMARK    6  A    between atoms: C6_9  and  N1_10 
REMARK    7  A    between atoms: C8_15  and  C9_16 
REMARK    8  A    between atoms: C11_19  and  O4_20 
REMARK    9  A    between atoms: O4_20  and  C12_21 
REMARK       I    between atoms: C12_21  and  N4_23 
REMARK   10  A    between atoms: C15_26  and  O6_27 
REMARK   11  A    between atoms: C16_29  and  O7_30 
REMARK   12  A    between atoms: C17_32  and  O8_33 
ROOT
HETATM    1  C2  UNL     1       1.888  -2.822  -0.270  1.00  0.00     0.291 C 
HETATM    2  O2  UNL     1       1.970  -1.708  -1.106  1.00  0.00    -0.343 OA
HETATM    3  C3  UNL     1       1.040  -0.794  -0.615  1.00  0.00     0.195 C 
HETATM    4  C8  UNL     1      -0.377  -1.282  -0.648  1.00  0.00     0.088 C 
HETATM    5  C16 UNL     1      -0.572  -2.742  -0.728  1.00  0.00     0.161 C 
HETATM    6  C17 UNL     1       0.655  -3.580  -0.706  1.00  0.00     0.202 C 
ENDROOT
BRANCH   4   7
HETATM    7  C9  UNL     1      -1.075  -0.640   0.547  1.00  0.00     0.162 C 
HETATM    8  O3  UNL     1      -0.950   0.750   0.317  1.00  0.00    -0.380 OA
HETATM    9  C10 UNL     1      -1.860   1.346   1.185  1.00  0.00     0.203 C 
HETATM   10  C11 UNL     1      -3.075   0.444   1.143  1.00  0.00     0.188 C 
HETATM   11  C15 UNL     1      -2.546  -0.839   0.543  1.00  0.00     0.179 C 
BRANCH  10  12
HETATM   12  O4  UNL     1      -4.105   1.008   0.354  1.00  0.00    -0.294 OA
BRANCH  12  13
HETATM   13  C12 UNL     1      -5.361   1.334   0.836  1.00  0.00     0.362 C 
HETATM   14  O5  UNL     1      -5.562   1.095   2.071  1.00  0.00    -0.238 OA
HETATM   15  N4  UNL     1      -6.380   1.898   0.032  1.00  0.00    -0.337 N 
HETATM   16  C13 UNL     1      -6.116   2.152  -1.362  1.00  0.00     0.154 C 
HETATM   17  C14 UNL     1      -7.658   2.209   0.612  1.00  0.00     0.154 C 
ENDBRANCH  12  13
ENDBRANCH  10  12
BRANCH  11  18
HETATM   18  O6  UNL     1      -2.968  -1.885   1.362  1.00  0.00    -0.390 OA
ATOM     19  H6  UNL     1      -3.909  -2.012   1.359  1.00  0.00     0.210 HD
ENDBRANCH  11  18
ENDBRANCH   4   7
BRANCH   3  20
HETATM   20  S1  UNL     1       1.171   0.823  -1.414  1.00  0.00    -0.137 SA
BRANCH  20  21
HETATM   21  C4  UNL     1       2.754   1.576  -0.966  1.00  0.00     0.078 C 
BRANCH  21  22
HETATM   22  C5  UNL     1       3.910   0.788  -1.548  1.00  0.00     0.030 C 
BRANCH  22  23
HETATM   23  C6  UNL     1       5.233   1.438  -1.162  1.00  0.00     0.122 C 
BRANCH  23  24
HETATM   24  N1  UNL     1       5.352   1.466   0.293  1.00  0.00    -0.367 N 
HETATM   25  C7  UNL     1       5.372   2.587   0.937  1.00  0.00     0.196 C 
HETATM   26  N2  UNL     1       5.488   2.591   2.345  1.00  0.00    -0.067 NA
HETATM   27  N3  UNL     1       5.277   3.822   0.243  1.00  0.00    -0.067 NA
ATOM     28  H1  UNL     1       5.420   0.589   0.809  1.00  0.00     0.161 HD
ENDBRANCH  23  24
ENDBRANCH  22  23
ENDBRANCH  21  22
ENDBRANCH  20  21
ENDBRANCH   3  20
BRANCH   5  29
HETATM   29  O7  UNL     1      -1.285  -3.070  -1.904  1.00  0.00    -0.392 OA
ATOM     30  H7  UNL     1      -1.411  -4.010  -1.956  1.00  0.00     0.210 HD
ENDBRANCH   5  29
BRANCH   6  31
HETATM   31  O8  UNL     1       0.547  -4.706   0.115  1.00  0.00    -0.388 OA
ATOM     32  H8  UNL     1      -0.228  -5.182  -0.159  1.00  0.00     0.210 HD
ENDBRANCH   6  31
BRANCH   1  33
HETATM   33  O1  UNL     1       3.003  -3.610  -0.280  1.00  0.00    -0.363 OA
HETATM   34  C1  UNL     1       3.580  -3.804   0.956  1.00  0.00     0.204 C 
ENDBRANCH   1  33
TORSDOF 12
