REMARK  6 active torsions:
REMARK  status: ('A' for Active; 'I' for Inactive)
REMARK    1  A    between atoms: C5_5  and  C6_6 
REMARK    2  A    between atoms: C7_7  and  C9_10 
REMARK    3  A    between atoms: C10_11  and  C11_12 
REMARK    4  A    between atoms: C11_12  and  O1_15 
REMARK    5  A    between atoms: C15_18  and  O2_19 
REMARK    6  A    between atoms: O2_19  and  C16_20 
ROOT
HETATM    1  C6  UNL     1       1.170   0.064   0.628  1.00  0.00     0.043 C 
HETATM    2  C7  UNL     1       2.159  -0.748   0.375  1.00  0.00     0.098 C 
HETATM    3  C8  UNL     1       1.976  -2.158   0.321  1.00  0.00     0.108 C 
HETATM    4  N1  UNL     1       1.841  -3.329   0.257  1.00  0.00    -0.191 NA
ENDROOT
BRANCH   2   5
HETATM    5  C9  UNL     1       3.512  -0.264   0.141  1.00  0.00    -0.053 C 
HETATM    6  C10 UNL     1       4.637   0.140  -0.030  1.00  0.00    -0.063 C 
BRANCH   6   7
HETATM    7  C11 UNL     1       6.010   0.641  -0.211  1.00  0.00     0.114 C 
HETATM    8  C12 UNL     1       5.982   2.135  -0.522  1.00  0.00     0.060 C 
HETATM    9  C13 UNL     1       6.632  -0.146  -1.342  1.00  0.00     0.060 C 
BRANCH   7  10
HETATM   10  O1  UNL     1       6.669   0.397   0.998  1.00  0.00    -0.378 OA
ATOM     11  H1  UNL     1       7.555   0.720   0.881  1.00  0.00     0.211 HD
ENDBRANCH   7  10
ENDBRANCH   6   7
ENDBRANCH   2   5
BRANCH   1  12
HETATM   12  C5  UNL     1      -0.201  -0.346   0.883  1.00  0.00    -0.032 A 
HETATM   13  C4  UNL     1      -0.516  -1.363   1.788  1.00  0.00     0.012 A 
HETATM   14  C3  UNL     1      -1.820  -1.744   1.987  1.00  0.00     0.010 A 
HETATM   15  C2  UNL     1      -2.885  -1.152   1.313  1.00  0.00    -0.029 A 
HETATM   16  C1  UNL     1      -4.276  -1.638   1.566  1.00  0.00     0.051 C 
HETATM   17  C15 UNL     1      -2.609  -0.149   0.418  1.00  0.00     0.076 A 
HETATM   18  C14 UNL     1      -1.243   0.227   0.230  1.00  0.00     0.048 A 
BRANCH  17  19
HETATM   19  O2  UNL     1      -3.517   0.503  -0.289  1.00  0.00    -0.346 OA
BRANCH  19  20
HETATM   20  C16 UNL     1      -4.796   0.675  -0.544  1.00  0.00     0.120 C 
HETATM   21  C17 UNL     1      -5.142  -0.014  -1.881  1.00  0.00     0.040 C 
HETATM   22  C18 UNL     1      -5.228   2.136  -0.732  1.00  0.00     0.040 C 
ENDBRANCH  19  20
ENDBRANCH  17  19
ENDBRANCH   1  12
TORSDOF 6
