REMARK  7 active torsions:
REMARK  status: ('A' for Active; 'I' for Inactive)
REMARK    1  A    between atoms: C2_2  and  N1_4 
REMARK    2  A    between atoms: C5_8  and  C6_9 
REMARK    3  A    between atoms: C6_9  and  N3_10 
REMARK    4  A    between atoms: N3_10  and  C7_12 
REMARK    5  A    between atoms: C8_15  and  N5_16 
REMARK    6  A    between atoms: C11_21  and  N7_22 
REMARK    7  A    between atoms: C13_28  and  O1_29 
ROOT
HETATM    1  N7  UNL     1       2.965   3.381   0.066  1.00  0.00    -0.125 N 
ATOM      2  H7  UNL     1       2.179   3.984   0.309  1.00  0.00     0.197 HD
HETATM    3  C12 UNL     1       4.096   3.957  -0.482  1.00  0.00     0.196 C 
HETATM    4  N8  UNL     1       5.044   4.440  -0.998  1.00  0.00    -0.171 NA
ENDROOT
BRANCH   1   5
HETATM    5  C11 UNL     1       2.858   2.093   0.287  1.00  0.00     0.720 A 
HETATM    6  N6  UNL     1       3.899   1.280  -0.019  1.00  0.00    -0.021 N 
HETATM    7  C8  UNL     1       3.651  -0.076   0.022  1.00  0.00     0.708 A 
ATOM      8  H6  UNL     1       4.816   1.651  -0.266  1.00  0.00     0.203 HD
HETATM    9  N4  UNL     1       2.436  -0.469   0.359  1.00  0.00    -0.021 N 
HETATM   10  C7  UNL     1       1.412   0.274   0.661  1.00  0.00     0.707 A 
ATOM     11  H4  UNL     1       2.282  -1.477   0.386  1.00  0.00     0.203 HD
HETATM   12  N9  UNL     1       1.642   1.631   0.628  1.00  0.00    -0.021 N 
ATOM     13  H9  UNL     1       0.893   2.283   0.861  1.00  0.00     0.203 HD
BRANCH   7  14
HETATM   14  N5  UNL     1       4.730  -1.021  -0.188  1.00  0.00    -0.225 N 
HETATM   15  C9  UNL     1       4.622  -2.350   0.426  1.00  0.00     0.168 C 
HETATM   16  C10 UNL     1       5.855  -0.667  -0.971  1.00  0.00     0.168 C 
ENDBRANCH   7  14
BRANCH  10  17
HETATM   17  N3  UNL     1       0.288  -0.119   0.846  1.00  0.00    -0.219 N 
ATOM     18  H3  UNL     1      -0.324   0.662   1.082  1.00  0.00     0.178 HD
BRANCH  17  19
HETATM   19  C6  UNL     1      -0.443  -1.328   0.837  1.00  0.00     0.199 C 
BRANCH  19  20
HETATM   20  C5  UNL     1      -1.717  -0.859   0.070  1.00  0.00     0.080 A 
HETATM   21  N2  UNL     1      -1.891  -0.593  -1.185  1.00  0.00    -0.351 N 
HETATM   22  C4  UNL     1      -3.199  -0.252  -1.342  1.00  0.00     0.185 A 
ATOM     23  H2  UNL     1      -1.182  -0.632  -1.917  1.00  0.00     0.166 HD
HETATM   24  N1  UNL     1      -3.843  -0.314  -0.127  1.00  0.00    -0.318 N 
HETATM   25  C13 UNL     1      -2.898  -0.702   0.734  1.00  0.00     0.168 A 
BRANCH  24  26
HETATM   26  C2  UNL     1      -5.196   0.068   0.220  1.00  0.00     0.084 C 
HETATM   27  C1  UNL     1      -5.416   1.488  -0.143  1.00  0.00     0.032 C 
HETATM   28  C3  UNL     1      -6.143  -0.932  -0.360  1.00  0.00     0.032 C 
ENDBRANCH  24  26
BRANCH  25  29
HETATM   29  O1  UNL     1      -3.108  -0.912   2.109  1.00  0.00    -0.344 OA
ATOM     30  H1  UNL     1      -2.436  -1.188   2.721  1.00  0.00     0.219 HD
ENDBRANCH  25  29
ENDBRANCH  19  20
ENDBRANCH  17  19
ENDBRANCH  10  17
ENDBRANCH   1   5
TORSDOF 7
