REMARK  2 active torsions:
REMARK  status: ('A' for Active; 'I' for Inactive)
REMARK    1  A    between atoms: C3_5  and  C4_6 
REMARK    2  A    between atoms: C7_12  and  C8_13 
ROOT
HETATM    1  C4  UNL     1      -3.590   1.567   0.416  1.00  0.00     0.231 C 
HETATM    2  C5  UNL     1      -4.910   1.104   0.920  1.00  0.00     0.081 C 
HETATM    3  N2  UNL     1      -5.949   0.759   1.304  1.00  0.00    -0.196 NA
HETATM    4  C6  UNL     1      -3.409   2.934   0.839  1.00  0.00     0.081 C 
HETATM    5  N3  UNL     1      -3.286   4.026   1.162  1.00  0.00    -0.196 NA
ENDROOT
BRANCH   1   6
HETATM    6  C3  UNL     1      -2.528   0.635   0.915  1.00  0.00     0.175 C 
HETATM    7  N1  UNL     1      -2.692  -0.690   0.488  1.00  0.00    -0.380 N 
HETATM    8  C2  UNL     1      -1.964  -1.370  -0.254  1.00  0.00    -0.002 C 
ATOM      9  H1  UNL     1      -3.527  -1.162   0.835  1.00  0.00     0.160 HD
HETATM   10  C1  UNL     1      -2.397  -2.790  -0.546  1.00  0.00     0.064 C 
HETATM   11  C14 UNL     1      -0.703  -0.801  -0.826  1.00  0.00     0.156 C 
HETATM   12  C7  UNL     1       0.083  -0.269   0.279  1.00  0.00     0.109 C 
HETATM   13  C15 UNL     1      -1.141   0.155  -1.840  1.00  0.00     0.071 C 
HETATM   14  S1  UNL     1      -0.841   1.280   0.750  1.00  0.00    -0.130 SA
HETATM   15  N6  UNL     1      -1.468   0.915  -2.655  1.00  0.00    -0.196 NA
BRANCH  12  16
HETATM   16  C8  UNL     1       1.491  -0.058   0.236  1.00  0.00     0.005 A 
HETATM   17  C9  UNL     1       2.234   0.145   1.418  1.00  0.00     0.031 A 
HETATM   18  C10 UNL     1       1.678   0.150   2.815  1.00  0.00     0.070 C 
HETATM   19  N4  UNL     1       3.508   0.325   1.100  1.00  0.00    -0.303 N 
HETATM   20  N5  UNL     1       3.658   0.256  -0.211  1.00  0.00    -0.300 N 
ATOM     21  H4  UNL     1       4.261   0.492   1.768  1.00  0.00     0.186 HD
HETATM   22  C11 UNL     1       4.911   0.401  -0.949  1.00  0.00     0.177 C 
HETATM   23  C12 UNL     1       2.436   0.021  -0.766  1.00  0.00     0.033 A 
HETATM   24  C13 UNL     1       2.156  -0.106  -2.183  1.00  0.00     0.070 C 
ENDBRANCH  12  16
ENDBRANCH   1   6
TORSDOF 2
