REMARK  4 active torsions:
REMARK  status: ('A' for Active; 'I' for Inactive)
REMARK    1  A    between atoms: N1_2  and  C2_4 
REMARK    2  A    between atoms: C3_8  and  N3_9 
REMARK    3  A    between atoms: C7_13  and  O1_14 
REMARK    4  A    between atoms: O1_14  and  C8_15 
ROOT
HETATM    1  C2  UNL     1      -1.044   1.981   1.630  1.00  0.00     0.123 A 
HETATM    2  S1  UNL     1      -2.091   3.152   0.954  1.00  0.00     0.008 SA
HETATM    3  N2  UNL     1      -2.621   2.304  -0.387  1.00  0.00    -0.308 N 
ATOM      4  H2  UNL     1      -3.277   2.615  -1.104  1.00  0.00     0.176 HD
HETATM    5  C3  UNL     1      -1.990   1.122  -0.308  1.00  0.00     0.146 A 
HETATM    6  C7  UNL     1      -1.161   0.944   0.747  1.00  0.00     0.148 A 
ENDROOT
BRANCH   6   7
HETATM    7  O1  UNL     1      -0.428  -0.242   0.973  1.00  0.00    -0.339 OA
BRANCH   7   8
HETATM    8  C8  UNL     1       0.839  -0.537   0.532  1.00  0.00     0.129 C 
HETATM    9  C9  UNL     1       0.959  -1.745  -0.376  1.00  0.00     0.032 C 
HETATM   10  C10 UNL     1       2.287  -1.589  -1.106  1.00  0.00     0.002 C 
HETATM   11  C11 UNL     1       3.445  -1.544  -0.137  1.00  0.00     0.000 C 
HETATM   12  C12 UNL     1       3.242  -0.580   0.980  1.00  0.00     0.002 C 
HETATM   13  C13 UNL     1       1.866  -0.766   1.620  1.00  0.00     0.032 C 
ENDBRANCH   7   8
ENDBRANCH   6   7
BRANCH   1  14
HETATM   14  N1  UNL     1      -0.310   2.052   2.722  1.00  0.00    -0.385 N 
HETATM   15  C1  UNL     1      -0.336   3.247   3.510  1.00  0.00     0.147 C 
ATOM     16  H1  UNL     1       0.271   1.263   3.003  1.00  0.00     0.159 HD
ENDBRANCH   1  14
BRANCH   5  17
HETATM   17  N3  UNL     1      -2.272   0.155  -1.358  1.00  0.00    -0.364 N 
HETATM   18  C4  UNL     1      -3.113  -1.011  -1.490  1.00  0.00     0.126 C 
HETATM   19  C5  UNL     1      -2.436  -1.386  -2.793  1.00  0.00     0.040 C 
HETATM   20  C6  UNL     1      -1.831  -0.002  -2.724  1.00  0.00     0.126 C 
ENDBRANCH   5  17
TORSDOF 4
