REMARK  12 active torsions:
REMARK  status: ('A' for Active; 'I' for Inactive)
REMARK       I    between atoms: C1_2  and  N1_3 
REMARK    1  A    between atoms: C1_2  and  C19_31 
REMARK    2  A    between atoms: N1_3  and  C2_5 
REMARK    3  A    between atoms: N2_8  and  C5_9 
REMARK    4  A    between atoms: C5_9  and  C6_10 
REMARK    5  A    between atoms: C6_10  and  C7_11 
REMARK    6  A    between atoms: C7_11  and  N3_12 
REMARK    7  A    between atoms: N3_12  and  C8_15 
REMARK    8  A    between atoms: C8_15  and  C9_16 
REMARK    9  A    between atoms: C11_18  and  N4_19 
REMARK   10  A    between atoms: C21_35  and  N6_36 
REMARK   11  A    between atoms: C26_44  and  O5_45 
REMARK   12  A    between atoms: O5_45  and  C27_46 
ROOT
HETATM    1  C2  UNL     1      -1.393  -0.258   0.079  1.00  0.00     0.088 C 
HETATM    2  C3  UNL     1      -0.855   0.691  -0.984  1.00  0.00     0.055 C 
HETATM    3  C4  UNL     1       0.656   0.479  -1.025  1.00  0.00     0.274 C 
HETATM    4  N2  UNL     1       1.265   0.557   0.256  1.00  0.00     0.088 N 
HETATM    5  C17 UNL     1       0.420   0.923   1.327  1.00  0.00     0.274 C 
HETATM    6  C18 UNL     1      -0.847   0.088   1.430  1.00  0.00     0.055 C 
ENDROOT
BRANCH   1   7
HETATM    7  N1  UNL     1      -2.831  -0.292   0.123  1.00  0.00    -0.352 N 
HETATM    8  C1  UNL     1      -3.607   0.829   0.357  1.00  0.00     0.257 C 
HETATM    9  O1  UNL     1      -2.955   1.930   0.542  1.00  0.00    -0.267 OA
ATOM     10  H1  UNL     1      -3.300  -1.185  -0.025  1.00  0.00     0.163 HD
BRANCH   8  11
HETATM   11  C19 UNL     1      -5.062   0.895   0.415  1.00  0.00     0.099 A 
HETATM   12  C20 UNL     1      -5.672   2.138   0.658  1.00  0.00     0.127 A 
HETATM   13  N5  UNL     1      -7.001   2.276   0.721  1.00  0.00    -0.201 N 
HETATM   14  C21 UNL     1      -7.837   1.236   0.556  1.00  0.00     0.682 A 
ATOM     15  H5  UNL     1      -7.393   3.200   0.900  1.00  0.00     0.183 HD
HETATM   16  N7  UNL     1      -7.265   0.044   0.324  1.00  0.00    -0.169 N 
HETATM   17  C26 UNL     1      -5.925  -0.148   0.251  1.00  0.00     0.175 A 
ATOM     18  H7  UNL     1      -7.874  -0.764   0.195  1.00  0.00     0.186 HD
BRANCH  14  19
HETATM   19  N6  UNL     1      -9.248   1.394   0.622  1.00  0.00    -0.214 N 
HETATM   20  C22 UNL     1     -10.123   0.260   0.480  1.00  0.00     0.167 C 
HETATM   21  C23 UNL     1     -11.398   0.581  -0.264  1.00  0.00     0.188 C 
HETATM   22  O4  UNL     1     -11.902   1.820   0.061  1.00  0.00    -0.388 OA
HETATM   23  C24 UNL     1     -10.974   2.813  -0.170  1.00  0.00     0.188 C 
HETATM   24  C25 UNL     1      -9.817   2.700   0.833  1.00  0.00     0.167 C 
ENDBRANCH  14  19
BRANCH  17  25
HETATM   25  O5  UNL     1      -5.454  -1.421   0.007  1.00  0.00    -0.329 OA
BRANCH  25  26
HETATM   26  C27 UNL     1      -6.315  -2.492  -0.163  1.00  0.00     0.130 C 
HETATM   27  C28 UNL     1      -6.169  -3.186  -1.499  1.00  0.00     0.032 C 
HETATM   28  C29 UNL     1      -7.049  -4.415  -1.282  1.00  0.00     0.002 C 
HETATM   29  C30 UNL     1      -6.890  -4.748   0.171  1.00  0.00     0.002 C 
HETATM   30  C31 UNL     1      -6.089  -3.630   0.804  1.00  0.00     0.032 C 
ENDBRANCH  25  26
ENDBRANCH  17  25
ENDBRANCH   8  11
ENDBRANCH   1   7
BRANCH   4  31
HETATM   31  C5  UNL     1       2.414   1.416   0.163  1.00  0.00     0.274 C 
BRANCH  31  32
HETATM   32  C6  UNL     1       3.066   1.530   1.514  1.00  0.00     0.057 C 
BRANCH  32  33
HETATM   33  C7  UNL     1       4.328   2.410   1.459  1.00  0.00     0.234 C 
BRANCH  33  34
HETATM   34  N3  UNL     1       5.310   1.882   0.567  1.00  0.00    -0.071 N 
ATOM     35  H32 UNL     1       5.529   0.912   0.795  1.00  0.00     0.277 HD
ATOM     36  H31 UNL     1       4.922   1.748  -0.367  1.00  0.00     0.277 HD
BRANCH  34  37
HETATM   37  C8  UNL     1       6.514   2.691   0.520  1.00  0.00     0.278 C 
BRANCH  37  38
HETATM   38  C9  UNL     1       7.509   2.082  -0.439  1.00  0.00     0.010 A 
HETATM   39  C10 UNL     1       8.440   1.116  -0.161  1.00  0.00     0.047 A 
HETATM   40  C11 UNL     1       9.228   0.715  -1.174  1.00  0.00     0.052 A 
HETATM   41  C16 UNL     1       9.033   1.305  -2.392  1.00  0.00     0.080 A 
HETATM   42  S2  UNL     1       7.759   2.399  -2.092  1.00  0.00    -0.102 SA
BRANCH  40  43
HETATM   43  N4  UNL     1      10.249  -0.299  -1.015  1.00  0.00    -0.275 N 
HETATM   44  C12 UNL     1       9.976  -1.699  -1.217  1.00  0.00     0.142 C 
HETATM   45  C13 UNL     1      10.978  -2.515  -0.436  1.00  0.00     0.022 C 
HETATM   46  C14 UNL     1      12.340  -2.451  -1.063  1.00  0.00     0.018 C 
HETATM   47  C15 UNL     1      12.958  -1.089  -1.017  1.00  0.00     0.163 C 
HETATM   48  S1  UNL     1      11.833   0.190  -0.571  1.00  0.00     0.233 S 
HETATM   49  O2  UNL     1      12.247   1.453  -1.290  1.00  0.00    -0.205 OA
HETATM   50  O3  UNL     1      11.919   0.493   0.907  1.00  0.00    -0.205 OA
ENDBRANCH  40  43
ENDBRANCH  37  38
ENDBRANCH  34  37
ENDBRANCH  33  34
ENDBRANCH  32  33
ENDBRANCH  31  32
ENDBRANCH   4  31
TORSDOF 12
