REMARK  13 active torsions:
REMARK  status: ('A' for Active; 'I' for Inactive)
REMARK       I    between atoms: C1_2  and  N1_3 
REMARK       I    between atoms: C1_2  and  N3_23 
REMARK    1  A    between atoms: N1_3  and  C2_5 
REMARK    2  A    between atoms: C2_5  and  C3_6 
REMARK    3  A    between atoms: C3_6  and  C4_7 
REMARK    4  A    between atoms: C4_7  and  C5_8 
REMARK    5  A    between atoms: C5_8  and  C6_9 
REMARK    6  A    between atoms: C6_9  and  C7_10 
REMARK    7  A    between atoms: C7_10  and  N2_11 
REMARK    8  A    between atoms: C11_15  and  C12_16 
REMARK    9  A    between atoms: C12_16  and  C13_18 
REMARK   10  A    between atoms: N3_23  and  C17_25 
REMARK   11  A    between atoms: C17_25  and  C18_26 
REMARK   12  A    between atoms: C18_26  and  C19_27 
REMARK   13  A    between atoms: C19_27  and  N4_28 
ROOT
HETATM    1  C17 UNL     1      -1.215  -0.438   2.009  1.00  0.00     0.129 C 
ENDROOT
BRANCH   1   2
HETATM    2  N3  UNL     1      -2.048   0.711   2.263  1.00  0.00    -0.343 N 
HETATM    3  C1  UNL     1      -3.250   0.543   3.022  1.00  0.00     0.316 C 
HETATM    4  O1  UNL     1      -3.581  -0.586   3.473  1.00  0.00    -0.247 OA
HETATM    5  N1  UNL     1      -4.078   1.665   3.269  1.00  0.00    -0.343 N 
ATOM      6  H1  UNL     1      -3.772   2.562   2.892  1.00  0.00     0.164 HD
ATOM      7  H3  UNL     1      -1.785   1.630   1.907  1.00  0.00     0.164 HD
BRANCH   5   8
HETATM    8  C2  UNL     1      -5.308   1.649   4.003  1.00  0.00     0.124 C 
BRANCH   8   9
HETATM    9  C3  UNL     1      -6.319   0.719   3.333  1.00  0.00     0.020 C 
BRANCH   9  10
HETATM   10  C4  UNL     1      -6.601   1.160   1.927  1.00  0.00     0.002 C 
BRANCH  10  11
HETATM   11  C5  UNL     1      -7.607   0.276   1.237  1.00  0.00     0.002 C 
BRANCH  11  12
HETATM   12  C6  UNL     1      -7.171  -1.136   1.117  1.00  0.00     0.020 C 
BRANCH  12  13
HETATM   13  C7  UNL     1      -8.165  -2.033   0.456  1.00  0.00     0.129 C 
BRANCH  13  14
HETATM   14  N2  UNL     1      -8.472  -1.553  -0.870  1.00  0.00    -0.354 N 
HETATM   15  C8  UNL     1      -7.652  -1.835  -1.914  1.00  0.00     0.091 A 
HETATM   16  C9  UNL     1      -8.135  -1.238  -3.050  1.00  0.00     0.020 A 
HETATM   17  C10 UNL     1      -9.284  -0.581  -2.653  1.00  0.00     0.035 A 
HETATM   18  C11 UNL     1      -9.491  -0.781  -1.293  1.00  0.00     0.087 A 
BRANCH  18  19
HETATM   19  C12 UNL     1     -10.617  -0.264  -0.536  1.00  0.00     0.232 C 
HETATM   20  O2  UNL     1     -10.976  -0.824   0.531  1.00  0.00    -0.283 OA
BRANCH  19  21
HETATM   21  C13 UNL     1     -11.389   0.906  -0.942  1.00  0.00     0.127 A 
HETATM   22  C14 UNL     1     -12.214   1.660  -0.116  1.00  0.00     0.043 A 
HETATM   23  C15 UNL     1     -12.756   2.666  -0.870  1.00  0.00     0.027 A 
HETATM   24  C16 UNL     1     -12.242   2.492  -2.137  1.00  0.00     0.142 A 
HETATM   25  O3  UNL     1     -11.458   1.458  -2.113  1.00  0.00    -0.319 OA
ENDBRANCH  19  21
ENDBRANCH  18  19
ENDBRANCH  13  14
ENDBRANCH  12  13
ENDBRANCH  11  12
ENDBRANCH  10  11
ENDBRANCH   9  10
ENDBRANCH   8   9
ENDBRANCH   5   8
ENDBRANCH   1   2
BRANCH   1  26
HETATM   26  C18 UNL     1      -0.001  -0.019   1.190  1.00  0.00     0.064 C 
BRANCH  26  27
HETATM   27  C19 UNL     1       0.883  -1.208   0.906  1.00  0.00     0.065 C 
BRANCH  27  28
HETATM   28  N4  UNL     1       2.034  -0.920   0.156  1.00  0.00    -0.372 N 
HETATM   29  C20 UNL     1       1.917  -0.537  -1.191  1.00  0.00     0.065 C 
HETATM   30  C21 UNL     1       2.454   0.813  -1.533  1.00  0.00     0.071 C 
HETATM   31  C22 UNL     1       3.517   0.840  -2.577  1.00  0.00     0.172 C 
HETATM   32  O4  UNL     1       4.798   0.638  -2.163  1.00  0.00    -0.389 OA
HETATM   33  C23 UNL     1       5.407   1.641  -1.464  1.00  0.00     0.193 C 
HETATM   34  C24 UNL     1       5.787   2.859  -2.222  1.00  0.00     0.193 C 
HETATM   35  O5  UNL     1       6.990   2.855  -2.860  1.00  0.00    -0.387 OA
HETATM   36  C25 UNL     1       7.801   1.774  -2.702  1.00  0.00     0.193 C 
HETATM   37  C26 UNL     1       8.833   1.971  -1.587  1.00  0.00     0.193 C 
HETATM   38  O6  UNL     1       9.378   0.741  -1.337  1.00  0.00    -0.387 OA
HETATM   39  C27 UNL     1      10.476   0.757  -0.497  1.00  0.00     0.193 C 
HETATM   40  C28 UNL     1      10.313  -0.034   0.751  1.00  0.00     0.193 C 
HETATM   41  O7  UNL     1      10.601  -1.376   0.621  1.00  0.00    -0.387 OA
HETATM   42  C29 UNL     1       9.899  -2.019  -0.367  1.00  0.00     0.193 C 
HETATM   43  C30 UNL     1       8.416  -2.118  -0.068  1.00  0.00     0.193 C 
HETATM   44  O8  UNL     1       8.132  -3.138   0.829  1.00  0.00    -0.387 OA
HETATM   45  C31 UNL     1       7.153  -2.735   1.759  1.00  0.00     0.193 C 
HETATM   46  C32 UNL     1       5.919  -2.196   1.089  1.00  0.00     0.193 C 
HETATM   47  O9  UNL     1       4.794  -2.966   1.315  1.00  0.00    -0.387 OA
HETATM   48  C33 UNL     1       3.856  -2.565   0.342  1.00  0.00     0.187 C 
HETATM   49  C34 UNL     1       3.302  -1.181   0.700  1.00  0.00     0.153 C 
ENDBRANCH  27  28
ENDBRANCH  26  27
ENDBRANCH   1  26
TORSDOF 13
