REMARK  4 active torsions:
REMARK  status: ('A' for Active; 'I' for Inactive)
REMARK    1  A    between atoms: O1_1  and  C1_3 
REMARK    2  A    between atoms: N1_8  and  C4_9 
REMARK    3  A    between atoms: C4_9  and  N2_10 
REMARK    4  A    between atoms: C8_14  and  C9_15 
ROOT
HETATM    1  N2  UNL     1      -0.332   0.622   0.718  1.00  0.00     0.115 N 
HETATM    2  C5  UNL     1       0.408   1.872   0.972  1.00  0.00     0.275 C 
HETATM    3  C6  UNL     1       0.637   2.479  -0.370  1.00  0.00     0.033 C 
HETATM    4  C7  UNL     1       0.403   1.350  -1.341  1.00  0.00     0.042 C 
HETATM    5  C8  UNL     1       0.224   0.110  -0.509  1.00  0.00     0.261 C 
ENDROOT
BRANCH   1   6
HETATM    6  C4  UNL     1      -1.702   0.958   0.756  1.00  0.00     0.406 C 
BRANCH   6   7
HETATM    7  N1  UNL     1      -2.632  -0.190   0.610  1.00  0.00    -0.285 N 
HETATM    8  C1  UNL     1      -3.189  -0.547  -0.514  1.00  0.00     0.151 A 
HETATM    9  C2  UNL     1      -3.999  -1.658  -0.511  1.00  0.00     0.108 A 
HETATM   10  S1  UNL     1      -3.925  -2.144   1.120  1.00  0.00    -0.068 SA
HETATM   11  C3  UNL     1      -2.888  -0.933   1.699  1.00  0.00     0.148 A 
HETATM   12  S2  UNL     1      -2.344  -0.738   3.243  1.00  0.00    -0.052 SA
BRANCH   8  13
HETATM   13  O1  UNL     1      -3.006   0.157  -1.743  1.00  0.00    -0.346 OA
ATOM     14  H1  UNL     1      -2.446   0.925  -1.745  1.00  0.00     0.219 HD
ENDBRANCH   8  13
ENDBRANCH   6   7
ENDBRANCH   1   6
BRANCH   5  15
HETATM   15  C9  UNL     1       1.508  -0.607  -0.244  1.00  0.00     0.017 A 
HETATM   16  C10 UNL     1       2.698  -0.022  -0.558  1.00  0.00     0.058 A 
HETATM   17  C11 UNL     1       3.867  -0.740  -0.277  1.00  0.00     0.155 A 
HETATM   18  F1  UNL     1       5.068  -0.186  -0.578  1.00  0.00    -0.203 F 
HETATM   19  C12 UNL     1       3.840  -1.992   0.295  1.00  0.00     0.157 A 
HETATM   20  F2  UNL     1       4.993  -2.683   0.565  1.00  0.00    -0.203 F 
HETATM   21  C13 UNL     1       2.617  -2.546   0.596  1.00  0.00     0.088 A 
HETATM   22  C14 UNL     1       1.433  -1.868   0.333  1.00  0.00     0.128 A 
HETATM   23  F3  UNL     1       0.261  -2.454   0.643  1.00  0.00    -0.205 F 
ENDBRANCH   5  15
TORSDOF 4
