REMARK  9 active torsions:
REMARK  status: ('A' for Active; 'I' for Inactive)
REMARK       I    between atoms: C2_2  and  N1_4 
REMARK    1  A    between atoms: N1_4  and  C3_6 
REMARK    2  A    between atoms: C3_6  and  C4_7 
REMARK    3  A    between atoms: C5_11  and  N3_12 
REMARK    4  A    between atoms: N3_12  and  S1_14 
REMARK    5  A    between atoms: S1_14  and  C6_17 
REMARK    6  A    between atoms: C7_18  and  O4_19 
REMARK    7  A    between atoms: O4_19  and  C8_20 
REMARK    8  A    between atoms: C10_23  and  N4_24 
REMARK       I    between atoms: N4_24  and  C11_26 
REMARK    9  A    between atoms: C13_32  and  O7_33 
ROOT
HETATM    1  C4  UNL     1      -1.199  -0.698   0.605  1.00  0.00     0.262 C 
HETATM    2  N2  UNL     1      -0.189  -0.158  -0.338  1.00  0.00    -0.040 N 
ATOM      3  H21 UNL     1      -0.586   0.091  -1.244  1.00  0.00     0.280 HD
ATOM      4  H22 UNL     1       0.464  -0.868  -0.668  1.00  0.00     0.280 HD
HETATM    5  C5  UNL     1       0.456   0.929   0.297  1.00  0.00     0.344 C 
HETATM    6  C10 UNL     1      -0.485   1.938   0.891  1.00  0.00     0.340 C 
HETATM    7  N5  UNL     1      -1.629   1.449   1.533  1.00  0.00    -0.022 N 
ATOM      8  H51 UNL     1      -2.306   2.191   1.707  1.00  0.00     0.282 HD
ATOM      9  H52 UNL     1      -1.432   1.186   2.499  1.00  0.00     0.282 HD
HETATM   10  C13 UNL     1      -2.236   0.324   0.774  1.00  0.00     0.353 C 
ENDROOT
BRANCH   5  11
HETATM   11  N3  UNL     1       1.369   0.475   1.293  1.00  0.00    -0.283 N 
ATOM     12  H3  UNL     1       1.095  -0.061   2.117  1.00  0.00     0.174 HD
BRANCH  11  13
HETATM   13  S1  UNL     1       3.005   0.944   0.936  1.00  0.00     0.252 S 
HETATM   14  O2  UNL     1       3.944   0.446   1.983  1.00  0.00    -0.201 OA
HETATM   15  O3  UNL     1       3.136   2.426   0.847  1.00  0.00    -0.201 OA
BRANCH  13  16
HETATM   16  C6  UNL     1       3.426   0.188  -0.585  1.00  0.00     0.155 C 
HETATM   17  C7  UNL     1       3.130  -1.098  -0.780  1.00  0.00     0.159 C 
BRANCH  17  18
HETATM   18  O4  UNL     1       3.471  -1.662  -1.977  1.00  0.00    -0.291 OA
BRANCH  18  19
HETATM   19  C8  UNL     1       4.707  -2.277  -2.180  1.00  0.00     0.259 C 
HETATM   20  C9  UNL     1       5.025  -2.878  -3.515  1.00  0.00     0.126 C 
HETATM   21  O5  UNL     1       5.502  -2.296  -1.223  1.00  0.00    -0.265 OA
ENDBRANCH  18  19
ENDBRANCH  17  18
ENDBRANCH  13  16
ENDBRANCH  11  13
ENDBRANCH   5  11
BRANCH   6  22
HETATM   22  N4  UNL     1      -0.850   2.992  -0.041  1.00  0.00    -0.330 N 
HETATM   23  C11 UNL     1      -0.491   4.339   0.170  1.00  0.00     0.215 C 
HETATM   24  C12 UNL     1      -0.891   5.362  -0.810  1.00  0.00     0.117 C 
HETATM   25  O6  UNL     1       0.164   4.673   1.184  1.00  0.00    -0.274 OA
ATOM     26  H4  UNL     1      -1.384   2.749  -0.876  1.00  0.00     0.164 HD
ENDBRANCH   6  22
BRANCH   1  27
HETATM   27  C3  UNL     1      -1.563  -2.059   0.239  1.00  0.00     0.160 C 
BRANCH  27  28
HETATM   28  N1  UNL     1      -2.536  -2.728   1.015  1.00  0.00    -0.359 N 
HETATM   29  C2  UNL     1      -3.906  -2.590   1.116  1.00  0.00     0.213 C 
HETATM   30  C1  UNL     1      -4.656  -3.463   2.105  1.00  0.00     0.117 C 
HETATM   31  O1  UNL     1      -4.607  -1.808   0.469  1.00  0.00    -0.274 OA
ATOM     32  H1  UNL     1      -2.151  -3.455   1.618  1.00  0.00     0.162 HD
ENDBRANCH  27  28
ENDBRANCH   1  27
BRANCH  10  33
HETATM   33  O7  UNL     1      -2.743   0.784  -0.422  1.00  0.00    -0.368 OA
ATOM     34  H7  UNL     1      -3.415   1.446  -0.312  1.00  0.00     0.212 HD
ENDBRANCH  10  33
TORSDOF 9
