REMARK  6 active torsions:
REMARK  status: ('A' for Active; 'I' for Inactive)
REMARK    1  A    between atoms: C3_3  and  C4_4 
REMARK    2  A    between atoms: C4_4  and  C5_5 
REMARK    3  A    between atoms: C5_5  and  C6_6 
REMARK    4  A    between atoms: C6_6  and  C7_7 
REMARK    5  A    between atoms: C7_7  and  O1_8 
REMARK    6  A    between atoms: O1_8  and  C8_9 
ROOT
HETATM    1  C1  UNL     1       5.802   0.671  -0.841  1.00  0.00     0.012 C 
HETATM    2  C2  UNL     1       4.855   0.015  -0.442  1.00  0.00    -0.117 C 
HETATM    3  C3  UNL     1       3.708  -0.765   0.017  1.00  0.00     0.093 C 
ENDROOT
BRANCH   3   4
HETATM    4  C4  UNL     1       2.541  -0.476  -0.898  1.00  0.00     0.012 C 
BRANCH   4   5
HETATM    5  C5  UNL     1       2.143   0.977  -0.924  1.00  0.00     0.003 C 
BRANCH   5   6
HETATM    6  C6  UNL     1       1.755   1.406   0.464  1.00  0.00     0.027 C 
BRANCH   6   7
HETATM    7  C7  UNL     1       0.606   0.581   0.944  1.00  0.00     0.175 C 
BRANCH   7   8
HETATM    8  O1  UNL     1      -0.484   0.782   0.031  1.00  0.00    -0.356 OA
BRANCH   8   9
HETATM    9  C8  UNL     1      -1.704   0.146   0.206  1.00  0.00     0.042 C 
HETATM   10  C9  UNL     1      -2.491   0.557   1.183  1.00  0.00     0.005 C 
HETATM   11  C10 UNL     1      -3.809  -0.101   1.402  1.00  0.00     0.029 C 
HETATM   12  C11 UNL     1      -4.379  -0.370   0.007  1.00  0.00     0.004 C 
HETATM   13  C12 UNL     1      -3.491  -1.274  -0.789  1.00  0.00     0.007 C 
HETATM   14  C13 UNL     1      -2.045  -0.951  -0.714  1.00  0.00     0.064 C 
ENDBRANCH   8   9
ENDBRANCH   7   8
ENDBRANCH   6   7
ENDBRANCH   5   6
ENDBRANCH   4   5
ENDBRANCH   3   4
TORSDOF 6
