REMARK  11 active torsions:
REMARK  status: ('A' for Active; 'I' for Inactive)
REMARK    1  A    between atoms: O1_2  and  C2_3 
REMARK    2  A    between atoms: C3_6  and  C4_7 
REMARK    3  A    between atoms: C4_7  and  N2_8 
REMARK    4  A    between atoms: N2_8  and  C6_10 
REMARK    5  A    between atoms: C8_14  and  N4_15 
REMARK    6  A    between atoms: C9_20  and  N6_21 
REMARK       I    between atoms: N6_21  and  C10_23 
REMARK    7  A    between atoms: C13_34  and  C14_35 
REMARK    8  A    between atoms: C14_35  and  N10_36 
REMARK    9  A    between atoms: C14_35  and  N11_40 
REMARK   10  A    between atoms: C14_35  and  C15_44 
REMARK   11  A    between atoms: C15_44  and  O3_45 
ROOT
HETATM    1  C2  UNL     1       3.218  -0.633  -0.961  1.00  0.00     0.172 A 
HETATM    2  N1  UNL     1       2.014  -0.095  -1.162  1.00  0.00    -0.322 N 
ATOM      3  H1  UNL     1       1.227  -0.723  -1.324  1.00  0.00     0.169 HD
HETATM    4  C3  UNL     1       1.782   1.213  -1.163  1.00  0.00     0.116 A 
HETATM    5  N8  UNL     1       2.849   2.023  -0.945  1.00  0.00    -0.287 N 
ATOM      6  H8  UNL     1       2.723   3.035  -0.936  1.00  0.00     0.188 HD
HETATM    7  N9  UNL     1       4.033   1.517  -0.747  1.00  0.00    -0.295 N 
ATOM      8  H9  UNL     1       4.808   2.160  -0.587  1.00  0.00     0.187 HD
HETATM    9  C13 UNL     1       4.296   0.198  -0.741  1.00  0.00     0.143 A 
ENDROOT
BRANCH   4  10
HETATM   10  C4  UNL     1       0.453   1.835  -1.384  1.00  0.00     0.202 C 
BRANCH  10  11
HETATM   11  N2  UNL     1      -0.246   1.999  -0.128  1.00  0.00    -0.359 N 
HETATM   12  C5  UNL     1       0.351   2.810   0.897  1.00  0.00     0.152 C 
BRANCH  11  13
HETATM   13  C6  UNL     1      -1.499   1.383   0.114  1.00  0.00     0.149 A 
HETATM   14  N3  UNL     1      -2.217   1.463   1.213  1.00  0.00    -0.331 N 
HETATM   15  C7  UNL     1      -3.355   0.842   1.298  1.00  0.00     0.113 A 
ATOM     16  H3  UNL     1      -1.879   2.015   2.002  1.00  0.00     0.168 HD
HETATM   17  C8  UNL     1      -4.236   0.827   2.395  1.00  0.00     0.144 A 
HETATM   18  C12 UNL     1      -3.770   0.114   0.217  1.00  0.00     0.124 A 
HETATM   19  N5  UNL     1      -5.372   0.129   2.307  1.00  0.00    -0.174 N 
HETATM   20  C9  UNL     1      -5.776  -0.584   1.246  1.00  0.00     0.687 A 
ATOM     21  H5  UNL     1      -5.987   0.140   3.120  1.00  0.00     0.186 HD
HETATM   22  N7  UNL     1      -4.946  -0.582   0.185  1.00  0.00    -0.183 N 
ATOM     23  H7  UNL     1      -5.198  -1.106  -0.653  1.00  0.00     0.185 HD
HETATM   24  S1  UNL     1      -2.459   0.377  -0.879  1.00  0.00    -0.033 SA
BRANCH  17  25
HETATM   25  N4  UNL     1      -3.947   1.482   3.472  1.00  0.00    -0.383 N 
ATOM     26  H42 UNL     1      -3.080   2.015   3.539  1.00  0.00     0.157 HD
ATOM     27  H41 UNL     1      -4.586   1.471   4.267  1.00  0.00     0.157 HD
ENDBRANCH  17  25
BRANCH  20  28
HETATM   28  N6  UNL     1      -6.879  -1.239   1.211  1.00  0.00    -0.160 N 
HETATM   29  C10 UNL     1      -7.319  -1.993   0.106  1.00  0.00     0.231 C 
HETATM   30  C11 UNL     1      -7.818  -1.298  -1.100  1.00  0.00     0.118 C 
HETATM   31  O2  UNL     1      -7.300  -3.243   0.113  1.00  0.00    -0.273 OA
ATOM     32  H6  UNL     1      -7.476  -1.212   2.038  1.00  0.00     0.187 HD
ENDBRANCH  20  28
ENDBRANCH  11  13
ENDBRANCH  10  11
ENDBRANCH   4  10
BRANCH   1  33
HETATM   33  O1  UNL     1       3.405  -1.989  -0.970  1.00  0.00    -0.339 OA
HETATM   34  C1  UNL     1       2.365  -2.902  -1.187  1.00  0.00     0.211 C 
ENDBRANCH   1  33
BRANCH   9  35
HETATM   35  C14 UNL     1       5.662  -0.264  -0.505  1.00  0.00     0.349 C 
BRANCH  35  36
HETATM   36  N10 UNL     1       6.523   0.912  -0.318  1.00  0.00    -0.037 N 
ATOM     37 3H10 UNL     1       6.460   1.571  -1.094  1.00  0.00     0.277 HD
ATOM     38 2H10 UNL     1       6.186   1.532   0.419  1.00  0.00     0.277 HD
ATOM     39 1H10 UNL     1       7.477   0.589  -0.153  1.00  0.00     0.277 HD
ENDBRANCH  35  36
BRANCH  35  40
HETATM   40  N11 UNL     1       6.219  -1.017  -1.595  1.00  0.00    -0.037 N 
ATOM     41 3H11 UNL     1       5.612  -1.800  -1.837  1.00  0.00     0.277 HD
ATOM     42 2H11 UNL     1       6.166  -0.484  -2.463  1.00  0.00     0.277 HD
ATOM     43 1H11 UNL     1       7.173  -1.340  -1.430  1.00  0.00     0.277 HD
ENDBRANCH  35  40
BRANCH  35  44
HETATM   44  C15 UNL     1       5.791  -1.105   0.757  1.00  0.00     0.240 C 
BRANCH  44  45
HETATM   45  O3  UNL     1       5.384  -0.395   1.886  1.00  0.00    -0.396 OA
ATOM     46  H3  UNL     1       5.465  -0.920   2.674  1.00  0.00     0.209 HD
ENDBRANCH  44  45
ENDBRANCH  35  44
ENDBRANCH   9  35
TORSDOF 11
