REMARK  4 active torsions:
REMARK  status: ('A' for Active; 'I' for Inactive)
REMARK    1  A    between atoms: C4_4  and  N1_5 
REMARK    2  A    between atoms: C5_10  and  S1_11 
REMARK    3  A    between atoms: S1_11  and  C6_12 
REMARK    4  A    between atoms: C6_12  and  C7_13 
ROOT
HETATM    1  S1  UNL     1       1.576  -2.522  -1.698  1.00  0.00    -0.086 SA
ENDROOT
BRANCH   1   2
HETATM    2  C5  UNL     1       2.574  -1.282  -0.888  1.00  0.00     0.146 A 
HETATM    3  N2  UNL     1       3.656  -1.620  -0.165  1.00  0.00    -0.323 N 
HETATM    4  C4  UNL     1       4.428  -0.703   0.457  1.00  0.00     0.102 A 
ATOM      5  H2  UNL     1       3.903  -2.606  -0.083  1.00  0.00     0.169 HD
HETATM    6  C3  UNL     1       4.059   0.617   0.322  1.00  0.00     0.072 A 
HETATM    7  C2  UNL     1       2.945   0.972  -0.422  1.00  0.00     0.011 A 
HETATM    8  C1  UNL     1       2.579   2.414  -0.543  1.00  0.00     0.068 C 
HETATM    9  N5  UNL     1       2.210   0.006  -1.023  1.00  0.00    -0.341 N 
ATOM     10  H5  UNL     1       1.387   0.253  -1.573  1.00  0.00     0.167 HD
BRANCH   4  11
HETATM   11  N1  UNL     1       5.469  -1.055   1.150  1.00  0.00    -0.385 N 
ATOM     12  H12 UNL     1       6.052  -0.362   1.620  1.00  0.00     0.157 HD
ATOM     13  H11 UNL     1       5.742  -2.033   1.250  1.00  0.00     0.157 HD
ENDBRANCH   4  11
ENDBRANCH   1   2
BRANCH   1  14
HETATM   14  C6  UNL     1       0.245  -3.091  -0.602  1.00  0.00     0.158 C 
BRANCH  14  15
HETATM   15  C7  UNL     1      -0.727  -1.968  -0.350  1.00  0.00     0.091 A 
HETATM   16  N3  UNL     1      -1.825  -1.693  -1.074  1.00  0.00    -0.347 N 
HETATM   17  C8  UNL     1      -2.455  -0.618  -0.567  1.00  0.00     0.036 A 
ATOM     18  H3  UNL     1      -2.135  -2.222  -1.889  1.00  0.00     0.167 HD
HETATM   19  C9  UNL     1      -1.706  -0.219   0.517  1.00  0.00     0.067 A 
HETATM   20  C13 UNL     1      -3.704   0.099  -0.986  1.00  0.00     0.059 C 
HETATM   21  N4  UNL     1      -0.674  -1.049   0.622  1.00  0.00    -0.345 N 
HETATM   22  C10 UNL     1      -2.141   0.983   1.327  1.00  0.00     0.221 C 
ATOM     23  H4  UNL     1       0.051  -0.994   1.337  1.00  0.00     0.167 HD
HETATM   24  F1  UNL     1      -1.535   0.903   2.551  1.00  0.00    -0.243 F 
HETATM   25  C11 UNL     1      -3.647   0.862   1.422  1.00  0.00     0.044 C 
HETATM   26  C12 UNL     1      -4.203   1.043   0.048  1.00  0.00     0.009 C 
ENDBRANCH  14  15
ENDBRANCH   1  14
TORSDOF 4
