REMARK  4 active torsions:
REMARK  status: ('A' for Active; 'I' for Inactive)
REMARK    1  A    between atoms: O1_2  and  C2_3 
REMARK    2  A    between atoms: N3_13  and  C6_14 
REMARK    3  A    between atoms: C7_17  and  N5_18 
REMARK    4  A    between atoms: N9_30  and  N10_31 
ROOT
HETATM    1  C2  UNL     1      -4.222  -0.595  -0.211  1.00  0.00     0.249 A 
HETATM    2  N1  UNL     1      -5.116   0.357  -0.533  1.00  0.00    -0.287 N 
ATOM      3  H1  UNL     1      -6.085   0.095  -0.715  1.00  0.00     0.172 HD
HETATM    4  C3  UNL     1      -4.750   1.653  -0.619  1.00  0.00     0.268 A 
HETATM    5  O2  UNL     1      -5.555   2.568  -0.916  1.00  0.00    -0.267 OA
HETATM    6  C4  UNL     1      -3.438   1.989  -0.371  1.00  0.00     0.149 A 
HETATM    7  C5  UNL     1      -2.777   3.200  -0.380  1.00  0.00     0.280 A 
HETATM    8  O3  UNL     1      -3.212   4.352  -0.625  1.00  0.00    -0.266 OA
HETATM    9  N2  UNL     1      -1.498   2.937  -0.062  1.00  0.00    -0.242 N 
ATOM     10  H2  UNL     1      -0.756   3.633   0.013  1.00  0.00     0.191 HD
HETATM   11  N3  UNL     1      -1.348   1.630   0.140  1.00  0.00    -0.062 N 
HETATM   12  C12 UNL     1      -2.517   0.990  -0.037  1.00  0.00     0.191 A 
HETATM   13  N9  UNL     1      -2.937  -0.291   0.035  1.00  0.00    -0.205 N 
ENDROOT
BRANCH  11  14
HETATM   14  C6  UNL     1      -0.128   0.994   0.494  1.00  0.00     0.735 A 
HETATM   15  N4  UNL     1       0.955   0.740  -0.279  1.00  0.00    -0.018 N 
HETATM   16  C7  UNL     1       1.909   0.123   0.416  1.00  0.00     0.710 A 
ATOM     17  H4  UNL     1       1.030   0.989  -1.265  1.00  0.00     0.203 HD
HETATM   18  N7  UNL     1       1.404  -0.013   1.665  1.00  0.00    -0.117 N 
HETATM   19  N8  UNL     1       0.188   0.507   1.710  1.00  0.00    -0.115 N 
ATOM     20  H7  UNL     1       1.887  -0.449   2.451  1.00  0.00     0.206 HD
ATOM     21  H8  UNL     1      -0.414   0.535   2.533  1.00  0.00     0.206 HD
BRANCH  16  22
HETATM   22  N5  UNL     1       3.181  -0.298  -0.058  1.00  0.00    -0.213 N 
HETATM   23  C8  UNL     1       4.072  -0.954   0.868  1.00  0.00     0.160 C 
HETATM   24  C9  UNL     1       5.288  -1.532   0.261  1.00  0.00     0.134 C 
HETATM   25  N6  UNL     1       5.634  -1.083  -1.033  1.00  0.00    -0.418 N 
HETATM   26  C10 UNL     1       5.048   0.136  -1.462  1.00  0.00     0.134 C 
ATOM     27  H6  UNL     1       6.273  -1.609  -1.629  1.00  0.00     0.153 HD
HETATM   28  C11 UNL     1       3.527  -0.053  -1.445  1.00  0.00     0.160 C 
ENDBRANCH  16  22
ENDBRANCH  11  14
BRANCH  13  29
HETATM   29  N10 UNL     1      -2.026  -1.276   0.365  1.00  0.00    -0.334 N 
ATOM     30 2H10 UNL     1      -2.343  -2.244   0.419  1.00  0.00     0.177 HD
ATOM     31 1H10 UNL     1      -1.050  -1.045   0.552  1.00  0.00     0.177 HD
ENDBRANCH  13  29
BRANCH   1  32
HETATM   32  O1  UNL     1      -4.657  -1.927  -0.136  1.00  0.00    -0.326 OA
HETATM   33  C1  UNL     1      -6.007  -2.258  -0.393  1.00  0.00     0.213 C 
ENDBRANCH   1  32
TORSDOF 4
