REMARK  8 active torsions:
REMARK  status: ('A' for Active; 'I' for Inactive)
REMARK    1  A    between atoms: C2_2  and  O1_3 
REMARK    2  A    between atoms: C2_2  and  N2_7 
REMARK    3  A    between atoms: N2_7  and  N3_8 
REMARK    4  A    between atoms: N3_8  and  C4_10 
REMARK    5  A    between atoms: C4_10  and  N4_12 
REMARK    6  A    between atoms: N4_12  and  N5_14 
REMARK    7  A    between atoms: C5_16  and  C6_17 
REMARK    8  A    between atoms: C9_20  and  N6_21 
ROOT
HETATM    1  C1  UNL     1      -5.438  -0.646  -1.338  1.00  0.00     0.085 C 
HETATM    2  C2  UNL     1      -4.007  -0.469  -0.815  1.00  0.00     0.234 C 
HETATM    3  C3  UNL     1      -3.594  -1.713  -0.214  1.00  0.00     0.117 C 
HETATM    4  N1  UNL     1      -3.265  -2.706   0.253  1.00  0.00    -0.192 NA
ENDROOT
BRANCH   2   5
HETATM    5  O1  UNL     1      -3.223  -0.187  -1.932  1.00  0.00    -0.361 OA
ATOM      6  H1  UNL     1      -2.337  -0.077  -1.608  1.00  0.00     0.213 HD
ENDBRANCH   2   5
BRANCH   2   7
HETATM    7  N2  UNL     1      -4.044   0.628   0.115  1.00  0.00    -0.085 NA
BRANCH   7   8
HETATM    8  N3  UNL     1      -2.824   0.924   0.685  1.00  0.00    -0.275 N 
ATOM      9  H3  UNL     1      -1.966   0.809   0.145  1.00  0.00     0.185 HD
BRANCH   8  10
HETATM   10  C4  UNL     1      -2.765   1.389   2.023  1.00  0.00     0.202 C 
HETATM   11  S1  UNL     1      -4.153   1.563   2.859  1.00  0.00    -0.038 SA
BRANCH  10  12
HETATM   12  N4  UNL     1      -1.533   1.710   2.662  1.00  0.00    -0.276 N 
ATOM     13  H4  UNL     1      -1.508   2.044   3.625  1.00  0.00     0.189 HD
BRANCH  12  14
HETATM   14  N5  UNL     1      -0.363   1.550   1.920  1.00  0.00    -0.307 N 
HETATM   15  C5  UNL     1       0.102   0.362   1.741  1.00  0.00     0.138 C 
ATOM     16  H5  UNL     1       0.116   2.360   1.526  1.00  0.00     0.186 HD
BRANCH  15  17
HETATM   17  C6  UNL     1       1.328   0.189   0.965  1.00  0.00     0.065 A 
HETATM   18  C7  UNL     1       1.973   1.283   0.434  1.00  0.00     0.036 A 
HETATM   19  C8  UNL     1       3.125   1.127  -0.296  1.00  0.00     0.054 A 
HETATM   20  C9  UNL     1       3.608  -0.148  -0.478  1.00  0.00     0.148 A 
HETATM   21  N10 UNL     1       2.936  -1.164   0.062  1.00  0.00    -0.283 N 
HETATM   22  N11 UNL     1       1.836  -1.054   0.763  1.00  0.00    -0.298 N 
ATOM     23  H10 UNL     1       3.309  -2.103  -0.082  1.00  0.00     0.188 HD
ATOM     24  H11 UNL     1       1.374  -1.878   1.147  1.00  0.00     0.187 HD
BRANCH  20  25
HETATM   25  N6  UNL     1       4.807  -0.397  -1.229  1.00  0.00    -0.171 N 
HETATM   26  N7  UNL     1       5.500   0.474  -1.937  1.00  0.00    -0.216 N 
HETATM   27  N8  UNL     1       6.542  -0.125  -2.487  1.00  0.00    -0.224 N 
ATOM     28  H7  UNL     1       5.267   1.461  -2.044  1.00  0.00     0.210 HD
HETATM   29  N9  UNL     1       6.514  -1.392  -2.127  1.00  0.00    -0.234 N 
ATOM     30  H8  UNL     1       7.243   0.315  -3.084  1.00  0.00     0.210 HD
HETATM   31  C10 UNL     1       5.436  -1.559  -1.346  1.00  0.00     0.364 A 
ATOM     32  H9  UNL     1       7.186  -2.112  -2.392  1.00  0.00     0.193 HD
HETATM   33  O2  UNL     1       5.047  -2.630  -0.793  1.00  0.00    -0.243 OA
ENDBRANCH  20  25
ENDBRANCH  15  17
ENDBRANCH  12  14
ENDBRANCH  10  12
ENDBRANCH   8  10
ENDBRANCH   7   8
ENDBRANCH   2   7
TORSDOF 8
