REMARK  5 active torsions:
REMARK  status: ('A' for Active; 'I' for Inactive)
REMARK    1  A    between atoms: N2_5  and  O2_6 
REMARK    2  A    between atoms: C6_12  and  N3_13 
REMARK    3  A    between atoms: C8_15  and  C9_16 
REMARK       I    between atoms: C9_16  and  N4_18 
REMARK    4  A    between atoms: N4_18  and  N5_20 
REMARK    5  A    between atoms: N5_20  and  C10_22 
ROOT
HETATM    1  N3  UNL     1      -0.502  -0.065  -1.285  1.00  0.00    -0.234 N 
HETATM    2  C7  UNL     1       0.630   0.352  -0.702  1.00  0.00     0.156 A 
HETATM    3  C8  UNL     1       1.687   0.234  -1.568  1.00  0.00     0.136 A 
HETATM    4  N6  UNL     1       1.157  -0.268  -2.690  1.00  0.00    -0.279 N 
ATOM      5  H6  UNL     1       1.675  -0.481  -3.542  1.00  0.00     0.189 HD
HETATM    6  N7  UNL     1      -0.140  -0.444  -2.522  1.00  0.00    -0.234 N 
ATOM      7  H7  UNL     1      -0.775  -0.814  -3.229  1.00  0.00     0.209 HD
ENDROOT
BRANCH   1   8
HETATM    8  C6  UNL     1      -1.837  -0.097  -0.762  1.00  0.00     0.130 A 
HETATM    9  C5  UNL     1      -2.693   0.993  -0.897  1.00  0.00     0.071 A 
HETATM   10  C4  UNL     1      -3.861   0.587  -0.287  1.00  0.00     0.082 A 
HETATM   11  C3  UNL     1      -5.050   1.264  -0.123  1.00  0.00     0.289 A 
HETATM   12  C13 UNL     1      -3.725  -0.704   0.203  1.00  0.00     0.128 A 
HETATM   13  N2  UNL     1      -6.056   0.636   0.517  1.00  0.00    -0.133 N 
HETATM   14  O3  UNL     1      -5.188   2.438  -0.563  1.00  0.00    -0.265 OA
HETATM   15  C2  UNL     1      -5.903  -0.634   0.991  1.00  0.00     0.357 A 
HETATM   16  N1  UNL     1      -4.749  -1.319   0.844  1.00  0.00    -0.287 N 
HETATM   17  O1  UNL     1      -6.887  -1.140   1.572  1.00  0.00    -0.244 OA
HETATM   18  C1  UNL     1      -4.594  -2.666   1.345  1.00  0.00     0.163 C 
HETATM   19  N8  UNL     1      -2.461  -1.084  -0.113  1.00  0.00    -0.326 N 
ATOM     20  H8  UNL     1      -2.048  -1.989   0.112  1.00  0.00     0.169 HD
BRANCH  13  21
HETATM   21  O2  UNL     1      -7.229   1.337   0.665  1.00  0.00    -0.276 OA
ATOM     22  H2  UNL     1      -7.336   2.221   0.335  1.00  0.00     0.245 HD
ENDBRANCH  13  21
ENDBRANCH   1   8
BRANCH   3  23
HETATM   23  C9  UNL     1       3.068   0.604  -1.296  1.00  0.00     0.289 C 
HETATM   24  O4  UNL     1       3.955   0.433  -2.191  1.00  0.00    -0.264 OA
HETATM   25  N4  UNL     1       3.433   1.157  -0.046  1.00  0.00    -0.267 N 
ATOM     26  H4  UNL     1       2.726   1.293   0.677  1.00  0.00     0.190 HD
BRANCH  25  27
HETATM   27  N5  UNL     1       4.740   1.511   0.195  1.00  0.00    -0.302 N 
ATOM     28  H5  UNL     1       5.013   2.481   0.352  1.00  0.00     0.183 HD
BRANCH  27  29
HETATM   29  C10 UNL     1       5.683   0.464   0.214  1.00  0.00     0.271 C 
HETATM   30  O5  UNL     1       5.439  -0.487   1.214  1.00  0.00    -0.360 OA
HETATM   31  C11 UNL     1       6.831  -0.653   1.271  1.00  0.00     0.212 C 
HETATM   32  C12 UNL     1       7.023   0.807   0.870  1.00  0.00     0.243 C 
HETATM   33  F1  UNL     1       6.836   1.711   1.871  1.00  0.00    -0.242 F 
ENDBRANCH  27  29
ENDBRANCH  25  27
ENDBRANCH   3  23
TORSDOF 5
