REMARK  7 active torsions:
REMARK  status: ('A' for Active; 'I' for Inactive)
REMARK    1  A    between atoms: O1_2  and  C2_3 
REMARK    2  A    between atoms: C2_3  and  C3_5 
REMARK    3  A    between atoms: C4_6  and  C5_7 
REMARK    4  A    between atoms: C5_7  and  O3_8 
REMARK    5  A    between atoms: O3_8  and  C6_9 
REMARK    6  A    between atoms: C6_9  and  C7_11 
REMARK    7  A    between atoms: C8_12  and  O5_13 
ROOT
HETATM    1  C5  UNL     1       0.077   0.557  -1.877  1.00  0.00     0.216 C 
ENDROOT
BRANCH   1   2
HETATM    2  C4  UNL     1       1.105  -0.147  -1.031  1.00  0.00    -0.020 C 
HETATM    3  C3  UNL     1       2.039   0.324  -0.253  1.00  0.00     0.119 C 
HETATM    4  N3  UNL     1       2.814  -0.736   0.380  1.00  0.00    -0.290 N 
HETATM    5  C12 UNL     1       1.991  -1.921   0.240  1.00  0.00     0.167 C 
HETATM    6  C14 UNL     1       4.034  -1.007   1.059  1.00  0.00     0.306 C 
HETATM    7  C11 UNL     1       1.181  -1.665  -0.977  1.00  0.00     0.076 C 
HETATM    8  S2  UNL     1       3.305  -3.173  -0.090  1.00  0.00    -0.056 SA
HETATM    9  C13 UNL     1       4.640  -2.248   0.637  1.00  0.00     0.278 C 
HETATM   10  O7  UNL     1       5.814  -2.595   0.750  1.00  0.00    -0.275 OA
HETATM   11  O8  UNL     1       4.528  -0.249   1.928  1.00  0.00    -0.263 OA
BRANCH   3  12
HETATM   12  C2  UNL     1       2.355   1.746   0.020  1.00  0.00     0.310 C 
HETATM   13  O2  UNL     1       1.691   2.641  -0.520  1.00  0.00    -0.258 OA
BRANCH  12  14
HETATM   14  O1  UNL     1       3.386   2.125   0.873  1.00  0.00    -0.321 OA
HETATM   15  C1  UNL     1       3.690   3.482   1.136  1.00  0.00     0.213 C 
ENDBRANCH  12  14
ENDBRANCH   3  12
ENDBRANCH   1   2
BRANCH   1  16
HETATM   16  O3  UNL     1      -1.195   0.164  -1.449  1.00  0.00    -0.313 OA
BRANCH  16  17
HETATM   17  C6  UNL     1      -1.694   0.359  -0.191  1.00  0.00     0.303 C 
HETATM   18  O4  UNL     1      -1.044   0.919   0.710  1.00  0.00    -0.259 OA
BRANCH  17  19
HETATM   19  C7  UNL     1      -3.054  -0.124   0.071  1.00  0.00     0.158 A 
HETATM   20  C8  UNL     1      -3.599   0.049   1.322  1.00  0.00     0.164 A 
HETATM   21  N1  UNL     1      -4.856  -0.399   1.563  1.00  0.00    -0.313 N 
HETATM   22  C9  UNL     1      -5.595  -1.007   0.625  1.00  0.00     0.180 A 
ATOM     23  H1  UNL     1      -5.254  -0.268   2.493  1.00  0.00     0.170 HD
HETATM   24  S1  UNL     1      -7.103  -1.551   0.888  1.00  0.00    -0.040 SA
HETATM   25  N2  UNL     1      -5.055  -1.171  -0.592  1.00  0.00    -0.299 N 
HETATM   26  C10 UNL     1      -3.820  -0.750  -0.885  1.00  0.00     0.268 A 
ATOM     27  H2  UNL     1      -5.604  -1.632  -1.317  1.00  0.00     0.171 HD
HETATM   28  O6  UNL     1      -3.342  -0.923  -2.049  1.00  0.00    -0.267 OA
BRANCH  20  29
HETATM   29  O5  UNL     1      -2.896   0.676   2.367  1.00  0.00    -0.345 OA
ATOM     30  H5  UNL     1      -3.272   0.795   3.231  1.00  0.00     0.219 HD
ENDBRANCH  20  29
ENDBRANCH  17  19
ENDBRANCH  16  17
ENDBRANCH   1  16
TORSDOF 7
