REMARK  16 active torsions:
REMARK  status: ('A' for Active; 'I' for Inactive)
REMARK    1  A    between atoms: C2_2  and  N1_3 
REMARK    2  A    between atoms: C2_2  and  C4_9 
REMARK    3  A    between atoms: N7_24  and  C9_25 
REMARK    4  A    between atoms: C9_25  and  C10_26 
REMARK    5  A    between atoms: C11_27  and  C12_28 
REMARK    6  A    between atoms: C12_28  and  N8_29 
REMARK    7  A    between atoms: N8_29  and  C13_32 
REMARK    8  A    between atoms: C13_32  and  O2_33 
REMARK    9  A    between atoms: C13_32  and  N9_35 
REMARK   10  A    between atoms: N9_35  and  C14_37 
REMARK   11  A    between atoms: C14_37  and  C15_38 
REMARK   12  A    between atoms: C15_38  and  N10_39 
REMARK   13  A    between atoms: C16_41  and  C17_42 
REMARK   14  A    between atoms: C18_43  and  O3_44 
REMARK   15  A    between atoms: C19_46  and  N11_47 
REMARK   16  A    between atoms: C22_54  and  N13_55 
ROOT
HETATM    1  C1  UNL     1      -4.102  -1.772   2.471  1.00  0.00     0.072 C 
HETATM    2  C2  UNL     1      -5.323  -1.640   1.710  1.00  0.00     0.264 C 
HETATM    3  C3  UNL     1      -6.429  -1.374   2.712  1.00  0.00     0.106 C 
HETATM    4  N2  UNL     1      -7.283  -1.191   3.470  1.00  0.00    -0.194 NA
ENDROOT
BRANCH   2   5
HETATM    5  N1  UNL     1      -5.676  -3.018   1.258  1.00  0.00    -0.051 N 
ATOM      6  H13 UNL     1      -4.926  -3.483   0.747  1.00  0.00     0.277 HD
ATOM      7  H12 UNL     1      -5.742  -3.692   2.021  1.00  0.00     0.277 HD
ATOM      8  H11 UNL     1      -6.538  -2.925   0.721  1.00  0.00     0.277 HD
ENDBRANCH   2   5
BRANCH   2   9
HETATM    9  C4  UNL     1      -5.466  -0.733   0.575  1.00  0.00     0.137 A 
HETATM   10  N3  UNL     1      -6.013  -1.144  -0.625  1.00  0.00    -0.335 N 
HETATM   11  C5  UNL     1      -6.155  -0.116  -1.425  1.00  0.00     0.148 A 
ATOM     12  H3  UNL     1      -6.268  -2.105  -0.854  1.00  0.00     0.167 HD
HETATM   13  C6  UNL     1      -6.627   0.061  -2.734  1.00  0.00     0.290 A 
HETATM   14  C8  UNL     1      -5.709   1.027  -0.793  1.00  0.00     0.157 A 
HETATM   15  O1  UNL     1      -7.040  -0.952  -3.343  1.00  0.00    -0.265 OA
HETATM   16  N4  UNL     1      -6.628   1.281  -3.292  1.00  0.00    -0.154 N 
HETATM   17  C7  UNL     1      -6.199   2.379  -2.661  1.00  0.00     0.680 A 
ATOM     18  H4  UNL     1      -6.974   1.376  -4.247  1.00  0.00     0.187 HD
HETATM   19  N5  UNL     1      -6.182   3.531  -3.175  1.00  0.00    -0.234 N 
HETATM   20  N6  UNL     1      -5.733   2.222  -1.378  1.00  0.00    -0.174 N 
ATOM     21  H52 UNL     1      -6.528   3.648  -4.127  1.00  0.00     0.174 HD
ATOM     22  H51 UNL     1      -5.855   4.369  -2.694  1.00  0.00     0.174 HD
ATOM     23  H6  UNL     1      -5.399   3.037  -0.864  1.00  0.00     0.186 HD
HETATM   24  N7  UNL     1      -5.292   0.579   0.431  1.00  0.00    -0.314 N 
BRANCH  24  25
HETATM   25  C9  UNL     1      -4.533   1.444   1.311  1.00  0.00     0.159 C 
BRANCH  25  26
HETATM   26  C10 UNL     1      -3.343   2.080   0.703  1.00  0.00    -0.009 C 
HETATM   27  C11 UNL     1      -2.319   1.406  -0.040  1.00  0.00    -0.002 C 
BRANCH  27  28
HETATM   28  C12 UNL     1      -1.416   0.362   0.462  1.00  0.00     0.265 C 
BRANCH  28  29
HETATM   29  N8  UNL     1      -0.562   0.019  -0.735  1.00  0.00    -0.028 N 
ATOM     30  H82 UNL     1      -1.130  -0.333  -1.505  1.00  0.00     0.282 HD
ATOM     31  H81 UNL     1      -0.192   0.860  -1.178  1.00  0.00     0.282 HD
BRANCH  29  32
HETATM   32  C13 UNL     1       0.480  -0.890  -0.407  1.00  0.00     0.422 C 
BRANCH  32  33
HETATM   33  O2  UNL     1       1.184  -1.296  -1.516  1.00  0.00    -0.355 OA
ATOM     34  H2  UNL     1       1.881  -1.904  -1.297  1.00  0.00     0.213 HD
ENDBRANCH  32  33
BRANCH  32  35
HETATM   35  N9  UNL     1       1.380  -0.376   0.603  1.00  0.00    -0.373 N 
ATOM     36  H9  UNL     1       1.618  -0.902   1.444  1.00  0.00     0.157 HD
BRANCH  35  37
HETATM   37  C14 UNL     1       1.909   0.921   0.334  1.00  0.00     0.137 C 
BRANCH  37  38
HETATM   38  C15 UNL     1       2.834   0.996  -0.858  1.00  0.00     0.138 C 
BRANCH  38  39
HETATM   39  N10 UNL     1       3.944   0.097  -0.653  1.00  0.00    -0.395 N 
HETATM   40  C16 UNL     1       5.137   0.539  -0.456  1.00  0.00     0.118 C 
ATOM     41  H10 UNL     1       3.780  -0.910  -0.664  1.00  0.00     0.159 HD
BRANCH  40  42
HETATM   42  C17 UNL     1       6.193  -0.426  -0.256  1.00  0.00     0.110 A 
HETATM   43  C18 UNL     1       5.887  -1.786  -0.280  1.00  0.00     0.140 A 
HETATM   44  C19 UNL     1       6.922  -2.656  -0.057  1.00  0.00     0.136 A 
HETATM   45  N12 UNL     1       8.164  -2.206   0.173  1.00  0.00    -0.325 N 
HETATM   46  C20 UNL     1       8.412  -0.873   0.185  1.00  0.00     0.133 A 
ATOM     47  H12 UNL     1       8.923  -2.867   0.339  1.00  0.00     0.169 HD
HETATM   48  C21 UNL     1       9.557  -0.130   0.385  1.00  0.00     0.099 A 
HETATM   49  N15 UNL     1       7.424   0.007  -0.028  1.00  0.00    -0.234 N 
HETATM   50  C22 UNL     1       9.237   1.213   0.293  1.00  0.00     0.117 A 
HETATM   51  N14 UNL     1       7.915   1.239   0.039  1.00  0.00    -0.277 N 
ATOM     52  H14 UNL     1       7.365   2.089  -0.085  1.00  0.00     0.189 HD
BRANCH  43  53
HETATM   53  O3  UNL     1       4.601  -2.226  -0.512  1.00  0.00    -0.355 OA
ATOM     54  H3  UNL     1       4.392  -3.153  -0.528  1.00  0.00     0.218 HD
ENDBRANCH  43  53
BRANCH  44  55
HETATM   55  N11 UNL     1       6.652  -3.914  -0.057  1.00  0.00    -0.383 N 
ATOM     56 2H11 UNL     1       5.707  -4.256  -0.232  1.00  0.00     0.157 HD
ATOM     57 1H11 UNL     1       7.422  -4.562   0.109  1.00  0.00     0.157 HD
ENDBRANCH  44  55
BRANCH  50  58
HETATM   58  N13 UNL     1      10.066   2.169   0.442  1.00  0.00    -0.384 N 
ATOM     59 2H13 UNL     1      11.067   2.149   0.634  1.00  0.00     0.157 HD
ATOM     60 1H13 UNL     1       9.830   3.159   0.374  1.00  0.00     0.157 HD
ENDBRANCH  50  58
ENDBRANCH  40  42
ENDBRANCH  38  39
ENDBRANCH  37  38
ENDBRANCH  35  37
ENDBRANCH  32  35
ENDBRANCH  29  32
ENDBRANCH  28  29
ENDBRANCH  27  28
ENDBRANCH  25  26
ENDBRANCH  24  25
ENDBRANCH   2   9
TORSDOF 16
