REMARK  5 active torsions:
REMARK  status: ('A' for Active; 'I' for Inactive)
REMARK    1  A    between atoms: O1_2  and  C2_3 
REMARK    2  A    between atoms: C2_3  and  C3_5 
REMARK    3  A    between atoms: C3_5  and  C4_6 
REMARK    4  A    between atoms: C4_6  and  C5_8 
REMARK    5  A    between atoms: C11_14  and  O4_15 
ROOT
HETATM    1  C5  UNL     1       0.953   0.138   0.174  1.00  0.00     0.163 C 
HETATM    2  C6  UNL     1       0.877   1.619  -0.172  1.00  0.00     0.053 C 
HETATM    3  C7  UNL     1      -0.391   2.325   0.018  1.00  0.00     0.049 C 
HETATM    4  C8  UNL     1      -1.541   1.387  -0.208  1.00  0.00     0.106 C 
HETATM    5  C9  UNL     1      -1.250   0.956  -1.623  1.00  0.00     0.013 C 
HETATM    6  C10 UNL     1      -0.378   0.082  -1.963  1.00  0.00     0.018 C 
HETATM    7  C11 UNL     1       0.554  -0.715  -1.085  1.00  0.00     0.139 C 
HETATM    8  C13 UNL     1      -0.172  -1.935  -0.749  1.00  0.00    -0.046 C 
HETATM    9  C14 UNL     1       0.498  -3.178  -1.293  1.00  0.00     0.046 C 
HETATM   10  C15 UNL     1      -1.619  -2.107  -0.652  1.00  0.00    -0.020 C 
HETATM   11  C16 UNL     1      -2.738  -1.211  -0.886  1.00  0.00     0.037 C 
HETATM   12  C17 UNL     1      -3.110  -0.161   0.182  1.00  0.00     0.055 C 
HETATM   13  C18 UNL     1      -1.839   0.374   0.736  1.00  0.00     0.170 C 
HETATM   14  O5  UNL     1      -1.618   0.876   1.979  1.00  0.00    -0.347 OA
HETATM   15  C19 UNL     1      -0.275   0.405   2.263  1.00  0.00     0.159 C 
HETATM   16  C20 UNL     1      -0.698  -0.780   3.201  1.00  0.00     0.078 C 
HETATM   17  C21 UNL     1       0.461   1.268   3.203  1.00  0.00     0.078 C 
HETATM   18  O6  UNL     1       0.318  -0.219   1.277  1.00  0.00    -0.333 OA
HETATM   19  C22 UNL     1      -3.745   1.062  -0.320  1.00  0.00     0.061 C 
HETATM   20  C23 UNL     1      -4.566   0.997  -1.545  1.00  0.00     0.046 C 
HETATM   21  C24 UNL     1      -4.711   1.541   0.789  1.00  0.00     0.046 C 
HETATM   22  O7  UNL     1      -2.770   2.088  -0.329  1.00  0.00    -0.363 OA
ENDROOT
BRANCH   1  23
HETATM   23  C4  UNL     1       2.375  -0.098   0.507  1.00  0.00     0.174 C 
HETATM   24  O3  UNL     1       2.626  -0.604   1.637  1.00  0.00    -0.294 OA
BRANCH  23  25
HETATM   25  C3  UNL     1       3.577   0.173  -0.272  1.00  0.00     0.192 C 
BRANCH  25  26
HETATM   26  C2  UNL     1       4.822   0.258   0.593  1.00  0.00     0.265 C 
HETATM   27  O2  UNL     1       4.806   0.128   1.833  1.00  0.00    -0.265 OA
BRANCH  26  28
HETATM   28  O1  UNL     1       6.054   0.492   0.001  1.00  0.00    -0.326 OA
HETATM   29  C1  UNL     1       7.255   0.585   0.736  1.00  0.00     0.213 C 
ENDBRANCH  26  28
ENDBRANCH  25  26
ENDBRANCH  23  25
ENDBRANCH   1  23
BRANCH   7  30
HETATM   30  O4  UNL     1       1.669  -0.835  -1.821  1.00  0.00    -0.373 OA
HETATM   31  C12 UNL     1       1.798  -1.278  -3.054  1.00  0.00     0.203 C 
ENDBRANCH   7  30
TORSDOF 5
