REMARK  5 active torsions:
REMARK  status: ('A' for Active; 'I' for Inactive)
REMARK    1  A    between atoms: C3_4  and  C4_5 
REMARK    2  A    between atoms: C4_5  and  N1_6 
REMARK    3  A    between atoms: N2_9  and  C7_10 
REMARK    4  A    between atoms: N5_19  and  C12_20 
REMARK    5  A    between atoms: C12_20  and  C13_21 
ROOT
HETATM    1  C7  UNL     1       1.718  -1.866  -0.165  1.00  0.00     0.116 A 
HETATM    2  N3  UNL     1       2.594  -2.854   0.197  1.00  0.00    -0.338 N 
ATOM      3  H3  UNL     1       3.532  -2.573   0.481  1.00  0.00     0.168 HD
HETATM    4  C8  UNL     1       2.311  -4.154   0.205  1.00  0.00     0.183 A 
HETATM    5  N4  UNL     1       1.088  -4.564  -0.160  1.00  0.00    -0.332 N 
ATOM      6  H4  UNL     1       0.847  -5.555  -0.161  1.00  0.00     0.168 HD
HETATM    7  C9  UNL     1       0.193  -3.641  -0.523  1.00  0.00     0.155 A 
HETATM    8  C10 UNL     1       0.456  -2.260  -0.547  1.00  0.00     0.065 A 
HETATM    9  C11 UNL     1      -0.358  -1.141  -0.961  1.00  0.00     0.319 C 
HETATM   10  N5  UNL     1      -1.808  -1.256  -0.738  1.00  0.00     0.095 N 
HETATM   11  C21 UNL     1      -2.119  -2.297   0.152  1.00  0.00     0.299 C 
HETATM   12  C22 UNL     1      -2.357  -3.636  -0.594  1.00  0.00     0.207 C 
HETATM   13  O2  UNL     1      -1.068  -4.144  -0.891  1.00  0.00    -0.333 OA
ENDROOT
BRANCH   1  14
HETATM   14  N2  UNL     1       2.183  -0.531  -0.063  1.00  0.00    -0.363 N 
HETATM   15  C6  UNL     1       1.973   0.330   1.067  1.00  0.00     0.154 C 
HETATM   16  C5  UNL     1       2.853   1.573   0.812  1.00  0.00     0.292 C 
HETATM   17  N1  UNL     1       4.194   1.068   0.584  1.00  0.00     0.097 N 
HETATM   18  C24 UNL     1       4.321   0.363  -0.651  1.00  0.00     0.292 C 
HETATM   19  C23 UNL     1       2.926   0.015  -1.179  1.00  0.00     0.154 C 
BRANCH  17  20
HETATM   20  C4  UNL     1       5.167   2.122   0.770  1.00  0.00     0.337 C 
BRANCH  20  21
HETATM   21  C3  UNL     1       6.518   1.521   0.569  1.00  0.00     0.080 A 
HETATM   22  O1  UNL     1       7.181   0.916   1.546  1.00  0.00    -0.325 OA
HETATM   23  C2  UNL     1       8.332   0.476   1.127  1.00  0.00     0.142 A 
HETATM   24  C1  UNL     1       8.464   0.797  -0.209  1.00  0.00     0.027 A 
HETATM   25  C25 UNL     1       7.309   1.461  -0.557  1.00  0.00     0.036 A 
ENDBRANCH  20  21
ENDBRANCH  17  20
ENDBRANCH   1  14
BRANCH  10  26
HETATM   26  C12 UNL     1      -2.304   0.025  -0.342  1.00  0.00     0.277 C 
BRANCH  26  27
HETATM   27  C13 UNL     1      -3.746   0.292  -0.436  1.00  0.00     0.018 C 
HETATM   28  C14 UNL     1      -4.718  -0.496   0.355  1.00  0.00     0.011 C 
HETATM   29  C15 UNL     1      -6.048   0.295   0.372  1.00  0.00    -0.014 C 
HETATM   30  C16 UNL     1      -6.211   0.930  -0.980  1.00  0.00     0.005 C 
HETATM   31  C20 UNL     1      -5.895   1.448   1.377  1.00  0.00     0.005 C 
HETATM   32  C17 UNL     1      -5.255   2.116  -1.055  1.00  0.00     0.005 C 
HETATM   33  C18 UNL     1      -4.038   1.786  -0.177  1.00  0.00    -0.009 C 
HETATM   34  C19 UNL     1      -4.432   1.887   1.282  1.00  0.00     0.005 C 
ENDBRANCH  26  27
ENDBRANCH  10  26
TORSDOF 5
