REMARK  10 active torsions:
REMARK  status: ('A' for Active; 'I' for Inactive)
REMARK    1  A    between atoms: C2_2  and  C3_3 
REMARK    2  A    between atoms: C3_3  and  N1_4 
REMARK    3  A    between atoms: C4_7  and  C5_8 
REMARK    4  A    between atoms: C11_15  and  C12_16 
REMARK    5  A    between atoms: C13_18  and  C14_19 
REMARK    6  A    between atoms: C19_30  and  C20_31 
REMARK    7  A    between atoms: C20_31  and  C21_32 
REMARK    8  A    between atoms: C21_32  and  C22_33 
REMARK    9  A    between atoms: C22_33  and  O3_34 
REMARK   10  A    between atoms: C23_36  and  C24_37 
ROOT
HETATM    1  C14 UNL     1       0.631  -0.324   0.765  1.00  0.00     0.148 C 
HETATM    2  C15 UNL     1       1.260  -1.601   1.264  1.00  0.00     0.170 C 
HETATM    3  N3  UNL     1       1.773  -1.510   2.630  1.00  0.00    -0.353 N 
ATOM      4  H3  UNL     1       2.199  -2.345   3.031  1.00  0.00     0.163 HD
HETATM    5  C16 UNL     1       1.723  -0.369   3.422  1.00  0.00     0.213 C 
HETATM    6  N4  UNL     1       2.153  -0.359   4.635  1.00  0.00    -0.365 N 
ATOM      7  H41 UNL     1       2.116   0.478   5.216  1.00  0.00     0.159 HD
ATOM      8  H42 UNL     1       2.543  -1.213   5.033  1.00  0.00     0.159 HD
HETATM    9  O2  UNL     1       1.200   0.775   2.889  1.00  0.00    -0.314 OA
HETATM   10  C17 UNL     1       1.202   0.863   1.453  1.00  0.00     0.175 C 
HETATM   11  C18 UNL     1       2.673   1.075   1.150  1.00  0.00     0.043 C 
HETATM   12  C19 UNL     1       3.025   0.963  -0.274  1.00  0.00     0.017 C 
HETATM   13  C23 UNL     1       2.321  -0.185  -0.900  1.00  0.00     0.127 C 
HETATM   14  O4  UNL     1       1.045  -0.328  -0.594  1.00  0.00    -0.364 OA
ENDROOT
BRANCH   1  15
HETATM   15  C13 UNL     1      -0.842  -0.305   0.663  1.00  0.00     0.078 A 
HETATM   16  N1  UNL     1      -1.771  -1.084   1.184  1.00  0.00    -0.292 N 
HETATM   17  N2  UNL     1      -2.963  -0.620   0.860  1.00  0.00    -0.295 N 
HETATM   18  C4  UNL     1      -2.898   0.509   0.089  1.00  0.00     0.093 A 
ATOM     19  H2  UNL     1      -3.838  -1.055   1.152  1.00  0.00     0.187 HD
HETATM   20  C11 UNL     1      -1.562   0.721  -0.043  1.00  0.00     0.029 A 
BRANCH  16  21
HETATM   21  C3  UNL     1      -1.703  -2.288   1.924  1.00  0.00     0.148 C 
BRANCH  21  22
HETATM   22  C2  UNL     1      -1.918  -3.562   1.084  1.00  0.00     0.017 C 
HETATM   23  C1  UNL     1      -3.273  -3.564   0.427  1.00  0.00     0.007 C 
ENDBRANCH  21  22
ENDBRANCH  16  21
BRANCH  18  24
HETATM   24  C5  UNL     1      -4.131   1.093  -0.432  1.00  0.00     0.110 A 
HETATM   25  O1  UNL     1      -5.212   1.184   0.416  1.00  0.00    -0.313 OA
HETATM   26  C6  UNL     1      -6.214   1.711  -0.196  1.00  0.00     0.050 A 
HETATM   27  C7  UNL     1      -7.592   2.012   0.308  1.00  0.00     0.076 C 
HETATM   28  C8  UNL     1      -5.845   1.993  -1.485  1.00  0.00     0.042 A 
HETATM   29  C9  UNL     1      -4.502   1.584  -1.615  1.00  0.00    -0.023 A 
HETATM   30  C10 UNL     1      -3.808   1.673  -2.939  1.00  0.00     0.051 C 
ENDBRANCH  18  24
BRANCH  20  31
HETATM   31  C12 UNL     1      -1.010   1.857  -0.797  1.00  0.00     0.265 C 
HETATM   32  F1  UNL     1      -1.348   3.085  -0.182  1.00  0.00    -0.250 F 
ENDBRANCH  20  31
ENDBRANCH   1  15
BRANCH  13  33
HETATM   33  C24 UNL     1       2.304   0.172  -2.423  1.00  0.00     0.028 C 
HETATM   34  C25 UNL     1       1.600  -0.939  -3.148  1.00  0.00     0.007 C 
ENDBRANCH  13  33
BRANCH  12  35
HETATM   35  C20 UNL     1       4.506   0.971  -0.484  1.00  0.00     0.009 C 
BRANCH  35  36
HETATM   36  C21 UNL     1       5.257  -0.129   0.182  1.00  0.00     0.027 C 
BRANCH  36  37
HETATM   37  C22 UNL     1       6.738   0.079  -0.175  1.00  0.00     0.164 C 
BRANCH  37  38
HETATM   38  O3  UNL     1       7.098   1.317   0.305  1.00  0.00    -0.401 OA
ATOM     39  H3  UNL     1       8.013   1.446   0.084  1.00  0.00     0.209 HD
ENDBRANCH  37  38
ENDBRANCH  36  37
ENDBRANCH  35  36
ENDBRANCH  12  35
TORSDOF 10
