REMARK  7 active torsions:
REMARK  status: ('A' for Active; 'I' for Inactive)
REMARK    1  A    between atoms: N1_2  and  C3_4 
REMARK    2  A    between atoms: C3_4  and  C4_5 
REMARK    3  A    between atoms: N2_6  and  N3_8 
REMARK    4  A    between atoms: C5_10  and  N4_11 
REMARK    5  A    between atoms: C5_10  and  C23_34 
REMARK    6  A    between atoms: N4_11  and  C6_13 
REMARK    7  A    between atoms: C9_19  and  C11_21 
ROOT
HETATM    1  C6  UNL     1       0.495  -0.259   0.790  1.00  0.00     0.151 A 
HETATM    2  N5  UNL     1      -0.314  -1.029   0.065  1.00  0.00    -0.335 N 
ATOM      3  H5  UNL     1       0.068  -1.736  -0.564  1.00  0.00     0.168 HD
HETATM    4  C7  UNL     1      -1.612  -0.863   0.173  1.00  0.00     0.064 A 
HETATM    5  C8  UNL     1      -2.054   0.099   1.031  1.00  0.00     0.053 A 
HETATM    6  S1  UNL     1      -0.578   0.732   1.654  1.00  0.00    -0.053 SA
HETATM    7  C9  UNL     1      -3.488   0.446   1.296  1.00  0.00     0.127 A 
HETATM    8  C10 UNL     1      -3.751   0.151   2.762  1.00  0.00     0.058 C 
HETATM    9  O1  UNL     1      -4.326  -0.357   0.554  1.00  0.00    -0.329 OA
HETATM   10  C17 UNL     1      -3.964  -1.337  -0.324  1.00  0.00     0.083 A 
HETATM   11  C18 UNL     1      -4.953  -2.041  -0.989  1.00  0.00     0.038 A 
HETATM   12  C19 UNL     1      -4.659  -3.031  -1.878  1.00  0.00     0.003 A 
HETATM   13  C20 UNL     1      -3.316  -3.334  -2.114  1.00  0.00     0.001 A 
HETATM   14  C21 UNL     1      -2.341  -2.636  -1.454  1.00  0.00     0.016 A 
HETATM   15  C22 UNL     1      -2.661  -1.637  -0.558  1.00  0.00     0.025 A 
ENDROOT
BRANCH   1  16
HETATM   16  N4  UNL     1       1.815  -0.285   0.809  1.00  0.00    -0.321 N 
ATOM     17  H4  UNL     1       2.315   0.366   1.415  1.00  0.00     0.169 HD
BRANCH  16  18
HETATM   18  C5  UNL     1       2.549  -1.181   0.020  1.00  0.00     0.132 C 
HETATM   19  N3  UNL     1       3.204  -0.718  -0.996  1.00  0.00    -0.285 N 
ATOM     20  H3  UNL     1       3.742  -1.361  -1.577  1.00  0.00     0.188 HD
BRANCH  19  21
HETATM   21  N2  UNL     1       3.192   0.643  -1.316  1.00  0.00    -0.312 N 
HETATM   22  C4  UNL     1       3.663   1.535  -0.479  1.00  0.00     0.110 C 
ATOM     23  H2  UNL     1       2.812   0.946  -2.213  1.00  0.00     0.185 HD
BRANCH  22  24
HETATM   24  C3  UNL     1       3.666   2.969  -0.781  1.00  0.00     0.317 C 
BRANCH  24  25
HETATM   25  N1  UNL     1       5.017   3.484  -1.006  1.00  0.00     0.084 N 
HETATM   26  C1  UNL     1       5.482   2.896  -2.237  1.00  0.00     0.309 C 
HETATM   27  C2  UNL     1       5.903   3.111   0.079  1.00  0.00     0.309 C 
ENDBRANCH  24  25
ENDBRANCH  22  24
ENDBRANCH  19  21
BRANCH  18  28
HETATM   28  C23 UNL     1       2.627  -2.614   0.268  1.00  0.00     0.009 A 
HETATM   29  C24 UNL     1       3.176  -3.494  -0.639  1.00  0.00     0.015 A 
HETATM   30  C25 UNL     1       3.254  -4.861  -0.409  1.00  0.00     0.001 A 
HETATM   31  C26 UNL     1       2.749  -5.320   0.790  1.00  0.00     0.000 A 
HETATM   32  C27 UNL     1       2.194  -4.465   1.715  1.00  0.00     0.001 A 
HETATM   33  C28 UNL     1       2.139  -3.130   1.447  1.00  0.00     0.015 A 
ENDBRANCH  18  28
ENDBRANCH  16  18
ENDBRANCH   1  16
BRANCH   7  34
HETATM   34  C11 UNL     1      -3.776   1.847   1.001  1.00  0.00    -0.018 A 
HETATM   35  C12 UNL     1      -3.713   2.381  -0.268  1.00  0.00     0.010 A 
HETATM   36  C13 UNL     1      -3.995   3.724  -0.506  1.00  0.00     0.001 A 
HETATM   37  C14 UNL     1      -4.347   4.542   0.548  1.00  0.00     0.000 A 
HETATM   38  C15 UNL     1      -4.413   4.027   1.804  1.00  0.00     0.001 A 
HETATM   39  C16 UNL     1      -4.130   2.689   2.030  1.00  0.00     0.010 A 
ENDBRANCH   7  34
TORSDOF 7
