REMARK  2 active torsions:
REMARK  status: ('A' for Active; 'I' for Inactive)
REMARK    1  A    between atoms: C2_2  and  N1_3 
REMARK    2  A    between atoms: C2_2  and  C3_7 
ROOT
HETATM    1  C3  UNL     1       0.499  -0.139   0.440  1.00  0.00     0.215 C 
HETATM    2  C4  UNL     1       0.117  -1.493  -0.168  1.00  0.00     0.035 C 
HETATM    3  C5  UNL     1      -1.346  -1.506  -0.462  1.00  0.00     0.002 C 
HETATM    4  C6  UNL     1      -2.166  -0.683   0.495  1.00  0.00     0.002 C 
HETATM    5  C7  UNL     1      -2.373   0.718  -0.015  1.00  0.00     0.027 C 
HETATM    6  C8  UNL     1      -1.146   1.550  -0.044  1.00  0.00     0.233 C 
HETATM    7  N2  UNL     1       0.044   0.869  -0.459  1.00  0.00    -0.069 N 
ATOM      8  H21 UNL     1      -0.079   0.480  -1.394  1.00  0.00     0.277 HD
ATOM      9  H22 UNL     1       0.789   1.540  -0.644  1.00  0.00     0.277 HD
ENDROOT
BRANCH   1  10
HETATM   10  C2  UNL     1       2.027  -0.029   0.522  1.00  0.00     0.209 C 
HETATM   11  C1  UNL     1       2.655  -0.139  -0.849  1.00  0.00     0.042 C 
BRANCH  10  12
HETATM   12  N1  UNL     1       2.303   1.307   1.019  1.00  0.00    -0.073 N 
ATOM     13  H13 UNL     1       3.297   1.536   1.017  1.00  0.00     0.274 HD
ATOM     14  H12 UNL     1       1.997   2.041   0.380  1.00  0.00     0.274 HD
ATOM     15  H11 UNL     1       1.879   1.381   1.944  1.00  0.00     0.274 HD
ENDBRANCH  10  12
ENDBRANCH   1  10
TORSDOF 2
