REMARK  1 active torsions:
REMARK  status: ('A' for Active; 'I' for Inactive)
REMARK    1  A    between atoms: C2_2  and  C3_3 
ROOT
HETATM    1  C3  UNL     1       0.734   0.046   0.531  1.00  0.00     0.082 A 
HETATM    2  N1  UNL     1      -0.038  -1.035   0.349  1.00  0.00    -0.347 N 
ATOM      3  H1  UNL     1       0.262  -1.999   0.492  1.00  0.00     0.167 HD
HETATM    4  C4  UNL     1      -1.278  -0.655  -0.054  1.00  0.00     0.048 A 
HETATM    5  C5  UNL     1      -2.379  -1.585  -0.345  1.00  0.00     0.072 C 
HETATM    6  C6  UNL     1      -1.237   0.694  -0.112  1.00  0.00     0.140 A 
HETATM    7  N2  UNL     1      -2.312   1.557  -0.490  1.00  0.00    -0.081 NA
HETATM    8  N3  UNL     1      -0.015   1.122   0.242  1.00  0.00    -0.333 N 
ATOM      9  H3  UNL     1       0.291   2.094   0.284  1.00  0.00     0.168 HD
ENDROOT
BRANCH   1  10
HETATM   10  C2  UNL     1       2.149   0.008   0.970  1.00  0.00     0.072 C 
HETATM   11  C1  UNL     1       3.013  -0.078  -0.290  1.00  0.00     0.013 C 
ENDBRANCH   1  10
TORSDOF 1
