REMARK  5 active torsions:
REMARK  status: ('A' for Active; 'I' for Inactive)
REMARK    1  A    between atoms: N1_1  and  S1_4 
REMARK    2  A    between atoms: S1_4  and  N2_5 
REMARK    3  A    between atoms: S1_4  and  C1_9 
REMARK    4  A    between atoms: N5_14  and  S2_15 
REMARK    5  A    between atoms: S2_15  and  C2_18 
ROOT
HETATM    1  C1  UNL     1      -2.459  -0.333  -0.269  1.00  0.00     0.214 A 
HETATM    2  N3  UNL     1      -2.375  -1.276  -1.236  1.00  0.00    -0.270 N 
ATOM      3  H3  UNL     1      -3.097  -1.963  -1.454  1.00  0.00     0.189 HD
HETATM    4  N4  UNL     1      -1.196  -1.166  -1.862  1.00  0.00    -0.222 N 
ATOM      5  H4  UNL     1      -0.884  -1.759  -2.631  1.00  0.00     0.210 HD
HETATM    6  N5  UNL     1      -0.502  -0.182  -1.339  1.00  0.00    -0.121 N 
HETATM    7  C8  UNL     1      -1.246   0.352  -0.359  1.00  0.00     0.317 A 
HETATM    8  O4  UNL     1      -0.919   1.310   0.367  1.00  0.00    -0.262 OA
ENDROOT
BRANCH   6   9
HETATM    9  S2  UNL     1       1.092   0.329  -1.834  1.00  0.00     0.286 S 
HETATM   10  O2  UNL     1       1.544  -0.487  -3.010  1.00  0.00    -0.198 OA
HETATM   11  O3  UNL     1       1.021   1.764  -2.306  1.00  0.00    -0.198 OA
BRANCH   9  12
HETATM   12  C2  UNL     1       2.232   0.152  -0.521  1.00  0.00     0.081 A 
HETATM   13  C3  UNL     1       2.954  -1.004  -0.314  1.00  0.00     0.025 A 
HETATM   14  C4  UNL     1       3.854  -1.153   0.716  1.00  0.00     0.002 A 
HETATM   15  C5  UNL     1       4.074  -0.124   1.605  1.00  0.00     0.000 A 
HETATM   16  C6  UNL     1       3.363   1.043   1.419  1.00  0.00     0.002 A 
HETATM   17  C7  UNL     1       2.468   1.181   0.388  1.00  0.00     0.025 A 
ENDBRANCH   9  12
ENDBRANCH   6   9
BRANCH   1  18
HETATM   18  S1  UNL     1      -3.768  -0.019   0.848  1.00  0.00     0.153 S 
HETATM   19  O1  UNL     1      -3.296   0.451   2.172  1.00  0.00    -0.222 OA
BRANCH  18  20
HETATM   20  N1  UNL     1      -4.549  -1.364   1.078  1.00  0.00    -0.340 N 
ATOM     21  H12 UNL     1      -5.536  -1.521   0.874  1.00  0.00     0.167 HD
ATOM     22  H11 UNL     1      -3.885  -2.035   1.464  1.00  0.00     0.167 HD
ENDBRANCH  18  20
BRANCH  18  23
HETATM   23  N2  UNL     1      -4.891   1.115   0.196  1.00  0.00    -0.340 N 
ATOM     24  H22 UNL     1      -5.875   0.932   0.001  1.00  0.00     0.167 HD
ATOM     25  H21 UNL     1      -4.384   1.988   0.047  1.00  0.00     0.167 HD
ENDBRANCH  18  23
ENDBRANCH   1  18
TORSDOF 5
