REMARK  14 active torsions:
REMARK  status: ('A' for Active; 'I' for Inactive)
REMARK       I    between atoms: C2_2  and  N1_4 
REMARK    1  A    between atoms: N1_4  and  C3_6 
REMARK    2  A    between atoms: C3_6  and  C5_9 
REMARK    3  A    between atoms: C5_9  and  O2_10 
REMARK    4  A    between atoms: C5_9  and  C6_12 
REMARK    5  A    between atoms: C6_12  and  O3_13 
REMARK    6  A    between atoms: C6_12  and  C7_15 
REMARK    7  A    between atoms: C7_15  and  O4_16 
REMARK    8  A    between atoms: C7_15  and  C8_18 
REMARK    9  A    between atoms: C8_18  and  O5_19 
REMARK   10  A    between atoms: O5_19  and  N3_20 
REMARK   11  A    between atoms: C11_24  and  O6_25 
REMARK   12  A    between atoms: C18_37  and  N8_38 
REMARK   13  A    between atoms: C19_42  and  N9_43 
REMARK   14  A    between atoms: N9_43  and  O7_44 
ROOT
HETATM    1  C3  UNL     1       4.908  -1.958   0.046  1.00  0.00     0.223 C 
HETATM    2  C4  UNL     1       5.222  -3.258   0.655  1.00  0.00     0.087 C 
HETATM    3  N2  UNL     1       5.456  -4.297   1.132  1.00  0.00    -0.195 NA
ENDROOT
BRANCH   1   4
HETATM    4  N1  UNL     1       6.044  -1.117   0.261  1.00  0.00    -0.342 N 
HETATM    5  C2  UNL     1       6.154  -0.032   1.138  1.00  0.00     0.214 C 
HETATM    6  C1  UNL     1       7.408   0.766   1.257  1.00  0.00     0.117 C 
HETATM    7  O1  UNL     1       5.197   0.322   1.868  1.00  0.00    -0.274 OA
ATOM      8  H1  UNL     1       6.874  -1.334  -0.291  1.00  0.00     0.163 HD
ENDBRANCH   1   4
BRANCH   1   9
HETATM    9  C5  UNL     1       4.539  -2.121  -1.414  1.00  0.00     0.186 C 
BRANCH   9  10
HETATM   10  O2  UNL     1       3.445  -2.958  -1.492  1.00  0.00    -0.390 OA
ATOM     11  H2  UNL     1       3.214  -3.060  -2.408  1.00  0.00     0.210 HD
ENDBRANCH   9  10
BRANCH   9  12
HETATM   12  C6  UNL     1       4.239  -0.812  -2.075  1.00  0.00     0.180 C 
BRANCH  12  13
HETATM   13  O3  UNL     1       5.407   0.009  -2.039  1.00  0.00    -0.390 OA
ATOM     14  H3  UNL     1       5.217   0.840  -2.459  1.00  0.00     0.210 HD
ENDBRANCH  12  13
BRANCH  12  15
HETATM   15  C7  UNL     1       3.144  -0.066  -1.364  1.00  0.00     0.175 C 
BRANCH  15  16
HETATM   16  O4  UNL     1       3.013   1.188  -2.087  1.00  0.00    -0.391 OA
ATOM     17  H4  UNL     1       2.321   1.659  -1.638  1.00  0.00     0.210 HD
ENDBRANCH  15  16
BRANCH  15  18
HETATM   18  C8  UNL     1       1.830  -0.782  -1.474  1.00  0.00     0.228 C 
BRANCH  18  19
HETATM   19  O5  UNL     1       0.865   0.135  -0.978  1.00  0.00    -0.298 OA
BRANCH  19  20
HETATM   20  N3  UNL     1      -0.357  -0.382  -1.028  1.00  0.00    -0.155 NA
HETATM   21  C9  UNL     1      -0.962  -0.496   0.277  1.00  0.00     0.249 C 
HETATM   22  N4  UNL     1      -2.055   0.406   0.514  1.00  0.00    -0.339 N 
HETATM   23  C10 UNL     1      -3.263   0.318   1.307  1.00  0.00     0.096 A 
HETATM   24  C17 UNL     1      -2.135   1.713  -0.084  1.00  0.00     0.219 C 
HETATM   25  C11 UNL     1      -3.608  -0.481   2.373  1.00  0.00     0.102 A 
HETATM   26  C16 UNL     1      -4.195   1.220   0.836  1.00  0.00     0.086 A 
HETATM   27  C12 UNL     1      -4.880  -0.378   2.962  1.00  0.00    -0.000 A 
HETATM   28  C13 UNL     1      -5.209  -1.264   4.110  1.00  0.00     0.053 C 
HETATM   29  C14 UNL     1      -5.801   0.518   2.489  1.00  0.00     0.081 A 
HETATM   30  N5  UNL     1      -7.107   0.634   3.081  1.00  0.00    -0.100 NA
HETATM   31  C15 UNL     1      -5.448   1.312   1.426  1.00  0.00     0.100 A 
HETATM   32  N6  UNL     1      -6.379   2.247   0.915  1.00  0.00    -0.098 NA
HETATM   33  N7  UNL     1      -3.571   1.918  -0.242  1.00  0.00    -0.363 N 
ATOM     34  H7  UNL     1      -4.036   2.453  -0.976  1.00  0.00     0.162 HD
HETATM   35  C18 UNL     1      -1.538   1.703  -1.442  1.00  0.00     0.263 C 
HETATM   36  C19 UNL     1      -1.234   0.299  -1.931  1.00  0.00     0.242 C 
BRANCH  25  37
HETATM   37  O6  UNL     1      -2.698  -1.382   2.862  1.00  0.00    -0.358 OA
ATOM     38  H6  UNL     1      -2.936  -1.934   3.598  1.00  0.00     0.217 HD
ENDBRANCH  25  37
BRANCH  35  39
HETATM   39  N8  UNL     1      -2.409   2.347  -2.377  1.00  0.00    -0.068 N 
ATOM     40  H83 UNL     1      -3.343   1.937  -2.370  1.00  0.00     0.275 HD
ATOM     41  H82 UNL     1      -2.655   3.291  -2.078  1.00  0.00     0.275 HD
ATOM     42  H81 UNL     1      -1.999   2.340  -3.311  1.00  0.00     0.275 HD
ENDBRANCH  35  39
BRANCH  36  43
HETATM   43  N9  UNL     1      -0.644   0.329  -3.245  1.00  0.00    -0.079 NA
BRANCH  43  44
HETATM   44  O7  UNL     1      -1.383   0.947  -4.173  1.00  0.00    -0.294 OA
ATOM     45  H7  UNL     1      -0.994   0.967  -5.039  1.00  0.00     0.238 HD
ENDBRANCH  43  44
ENDBRANCH  36  43
ENDBRANCH  19  20
ENDBRANCH  18  19
ENDBRANCH  15  18
ENDBRANCH  12  15
ENDBRANCH   9  12
ENDBRANCH   1   9
TORSDOF 14
