REMARK  2 active torsions:
REMARK  status: ('A' for Active; 'I' for Inactive)
REMARK    1  A    between atoms: O1_2  and  C2_3 
REMARK    2  A    between atoms: C2_3  and  C3_5 
ROOT
HETATM    1  C3  UNL     1       0.492   0.867  -0.758  1.00  0.00     0.220 C 
HETATM    2  N1  UNL     1      -0.370  -0.050  -1.420  1.00  0.00    -0.406 N 
ATOM      3  H1  UNL     1      -0.863   0.200  -2.277  1.00  0.00     0.154 HD
HETATM    4  C4  UNL     1      -0.507  -1.324  -0.829  1.00  0.00     0.118 C 
HETATM    5  C5  UNL     1      -1.936  -1.767  -0.882  1.00  0.00     0.046 C 
HETATM    6  C6  UNL     1      -2.896  -0.820  -0.321  1.00  0.00    -0.025 C 
HETATM    7  C7  UNL     1      -2.775  -0.052   0.732  1.00  0.00    -0.004 C 
HETATM    8  C8  UNL     1      -1.687   0.107   1.650  1.00  0.00    -0.001 C 
HETATM    9  C9  UNL     1      -0.571   0.807   1.512  1.00  0.00     0.018 C 
HETATM   10  C10 UNL     1      -0.168   1.610   0.364  1.00  0.00     0.160 C 
HETATM   11 CL1  UNL     1      -1.553   2.489  -0.355  1.00  0.00    -0.094 Cl
HETATM   12 CL2  UNL     1       0.976   2.880   0.896  1.00  0.00    -0.094 Cl
ENDROOT
BRANCH   1  13
HETATM   13  C2  UNL     1       1.815   0.296  -0.371  1.00  0.00     0.284 C 
HETATM   14  O2  UNL     1       2.127  -0.897  -0.619  1.00  0.00    -0.263 OA
BRANCH  13  15
HETATM   15  O1  UNL     1       2.776   1.049   0.285  1.00  0.00    -0.325 OA
HETATM   16  C1  UNL     1       4.015   0.461   0.630  1.00  0.00     0.213 C 
ENDBRANCH  13  15
ENDBRANCH   1  13
TORSDOF 2
