REMARK  1 active torsions:
REMARK  status: ('A' for Active; 'I' for Inactive)
REMARK    1  A    between atoms: O1_1  and  N1_3 
ROOT
HETATM    1  N1  UNL     1      -1.277  -0.478   0.026  1.00  0.00    -0.200 NA
HETATM    2  C1  UNL     1      -0.098  -1.142   0.600  1.00  0.00     0.120 C 
HETATM    3  C2  UNL     1       1.070  -0.387   0.018  1.00  0.00     0.018 C 
HETATM    4  C3  UNL     1       0.453   0.875  -0.596  1.00  0.00     0.018 C 
HETATM    5  C4  UNL     1      -0.877   0.914   0.164  1.00  0.00     0.120 C 
ENDROOT
BRANCH   1   6
HETATM    6  O1  UNL     1      -1.462  -0.838  -1.259  1.00  0.00    -0.313 OA
ATOM      7  H1  UNL     1      -2.224  -0.409  -1.630  1.00  0.00     0.237 HD
ENDBRANCH   1   6
TORSDOF 1
