REMARK  2 active torsions:
REMARK  status: ('A' for Active; 'I' for Inactive)
REMARK    1  A    between atoms: N3_4  and  C2_5 
REMARK    2  A    between atoms: C5_14  and  N8_15 
ROOT
HETATM    1  C1  UNL     1       3.108   1.692   0.415  1.00  0.00     0.195 C 
HETATM    2  N1  UNL     1       2.003   0.820   0.105  1.00  0.00    -0.110 N 
HETATM    3  N2  UNL     1       0.745   1.200  -0.091  1.00  0.00     0.017 NA
HETATM    4  N3  UNL     1       0.022   0.104  -0.355  1.00  0.00    -0.151 N 
HETATM    5  N7  UNL     1       0.845  -0.923  -0.316  1.00  0.00    -0.109 N 
HETATM    6  C4  UNL     1       0.459  -2.311  -0.550  1.00  0.00     0.199 C 
HETATM    7  C5  UNL     1       2.094  -0.511  -0.031  1.00  0.00     0.708 A 
ENDROOT
BRANCH   4   8
HETATM    8  C2  UNL     1      -1.412   0.053  -0.634  1.00  0.00     0.433 C 
HETATM    9  N4  UNL     1      -2.128  -0.703   0.347  1.00  0.00    -0.022 N 
HETATM   10  C3  UNL     1      -3.277   0.100   0.706  1.00  0.00     0.366 C 
ATOM     11  H42 UNL     1      -2.369  -1.645   0.039  1.00  0.00     0.282 HD
ATOM     12  H41 UNL     1      -1.557  -0.978   1.146  1.00  0.00     0.282 HD
HETATM   13  N5  UNL     1      -3.078   1.407   0.153  1.00  0.00    -0.117 NA
HETATM   14  N6  UNL     1      -1.945   1.394  -0.626  1.00  0.00    -0.090 NA
ENDBRANCH   4   8
BRANCH   7  15
HETATM   15  N8  UNL     1       3.131  -1.285   0.077  1.00  0.00    -0.232 N 
ATOM     16  H82 UNL     1       4.078  -0.973   0.293  1.00  0.00     0.174 HD
ATOM     17  H81 UNL     1       3.200  -2.297  -0.026  1.00  0.00     0.174 HD
ENDBRANCH   7  15
TORSDOF 2
