REMARK  6 active torsions:
REMARK  status: ('A' for Active; 'I' for Inactive)
REMARK    1  A    between atoms: C2_2  and  C3_3 
REMARK    2  A    between atoms: C3_3  and  N1_4 
REMARK    3  A    between atoms: C3_3  and  C10_16 
REMARK    4  A    between atoms: N1_4  and  S1_6 
REMARK    5  A    between atoms: S1_6  and  C4_9 
REMARK       I    between atoms: C10_16  and  N2_18 
REMARK    6  A    between atoms: N2_18  and  C11_20 
ROOT
HETATM    1  C3  UNL     1      -0.115  -0.898   0.105  1.00  0.00     0.185 C 
ENDROOT
BRANCH   1   2
HETATM    2  C2  UNL     1      -1.218  -1.840   0.537  1.00  0.00     0.031 C 
HETATM    3  C1  UNL     1      -0.680  -3.207   0.891  1.00  0.00     0.007 C 
ENDBRANCH   1   2
BRANCH   1   4
HETATM    4  N1  UNL     1       0.583  -1.381  -1.049  1.00  0.00    -0.302 N 
ATOM      5  H1  UNL     1       0.119  -1.548  -1.942  1.00  0.00     0.173 HD
BRANCH   4   6
HETATM    6  S1  UNL     1       2.248  -1.655  -0.813  1.00  0.00     0.259 S 
HETATM    7  O1  UNL     1       2.814  -2.180  -2.115  1.00  0.00    -0.201 OA
HETATM    8  O2  UNL     1       2.509  -2.704   0.225  1.00  0.00    -0.201 OA
BRANCH   6   9
HETATM    9  C4  UNL     1       3.134  -0.215  -0.381  1.00  0.00     0.079 A 
HETATM   10  C5  UNL     1       3.705   0.635  -1.303  1.00  0.00     0.026 A 
HETATM   11  C6  UNL     1       4.407   1.773  -0.980  1.00  0.00     0.020 A 
HETATM   12  C7  UNL     1       4.558   2.098   0.343  1.00  0.00     0.011 A 
HETATM   13 BR1  UNL     1       5.526   3.670   0.839  1.00  0.00    -0.051 Br
HETATM   14  C8  UNL     1       4.004   1.276   1.294  1.00  0.00     0.020 A 
HETATM   15  C9  UNL     1       3.309   0.147   0.940  1.00  0.00     0.026 A 
ENDBRANCH   6   9
ENDBRANCH   4   6
ENDBRANCH   1   4
BRANCH   1  16
HETATM   16  C10 UNL     1      -0.739   0.415  -0.161  1.00  0.00     0.246 C 
HETATM   17  O3  UNL     1      -0.603   0.931  -1.289  1.00  0.00    -0.271 OA
HETATM   18  N2  UNL     1      -1.480   1.101   0.820  1.00  0.00    -0.310 N 
ATOM     19  H2  UNL     1      -0.986   1.480   1.628  1.00  0.00     0.170 HD
BRANCH  18  20
HETATM   20  C11 UNL     1      -2.738   1.269   0.743  1.00  0.00     0.122 A 
HETATM   21  C12 UNL     1      -3.440   0.784  -0.313  1.00  0.00     0.053 A 
HETATM   22  C13 UNL     1      -4.797   0.977  -0.377  1.00  0.00     0.042 A 
HETATM   23  C14 UNL     1      -5.443   1.671   0.642  1.00  0.00     0.094 A 
HETATM   24 BR2  UNL     1      -7.337   1.957   0.581  1.00  0.00    -0.030 Br
HETATM   25  N3  UNL     1      -4.696   2.127   1.659  1.00  0.00    -0.292 N 
HETATM   26  N4  UNL     1      -3.370   1.935   1.718  1.00  0.00    -0.285 N 
ATOM     27  H3  UNL     1      -5.153   2.638   2.414  1.00  0.00     0.187 HD
ATOM     28  H4  UNL     1      -2.840   2.298   2.510  1.00  0.00     0.188 HD
ENDBRANCH  18  20
ENDBRANCH   1  16
TORSDOF 6
