REMARK  6 active torsions:
REMARK  status: ('A' for Active; 'I' for Inactive)
REMARK    1  A    between atoms: C1_2  and  C2_3 
REMARK       I    between atoms: C1_2  and  N2_16 
REMARK    2  A    between atoms: C2_3  and  N1_4 
REMARK    3  A    between atoms: N1_4  and  S1_6 
REMARK    4  A    between atoms: S1_6  and  C3_9 
REMARK    5  A    between atoms: N2_16  and  C9_18 
REMARK    6  A    between atoms: N3_23  and  O4_24 
ROOT
HETATM    1  O1  UNL     1      -1.422  -2.124   0.333  1.00  0.00    -0.271 OA
HETATM    2  C1  UNL     1      -1.054  -0.941   0.516  1.00  0.00     0.240 C 
HETATM    3  N2  UNL     1      -1.942   0.119   0.274  1.00  0.00    -0.324 N 
ATOM      4  H2  UNL     1      -1.567   1.052   0.446  1.00  0.00     0.169 HD
ENDROOT
BRANCH   2   5
HETATM    5  C2  UNL     1       0.335  -0.672   0.992  1.00  0.00     0.235 C 
BRANCH   5   6
HETATM    6  N1  UNL     1       0.610   0.741   1.146  1.00  0.00    -0.307 N 
ATOM      7  H1  UNL     1      -0.062   1.483   0.952  1.00  0.00     0.172 HD
BRANCH   6   8
HETATM    8  S1  UNL     1       2.225   1.008   1.701  1.00  0.00     0.259 S 
HETATM    9  O2  UNL     1       2.405   2.515   1.784  1.00  0.00    -0.201 OA
HETATM   10  O3  UNL     1       2.465   0.356   3.017  1.00  0.00    -0.201 OA
BRANCH   8  11
HETATM   11  C3  UNL     1       3.410   0.404   0.568  1.00  0.00     0.079 A 
HETATM   12  C4  UNL     1       3.831  -0.903   0.714  1.00  0.00     0.026 A 
HETATM   13  C5  UNL     1       4.769  -1.451  -0.148  1.00  0.00     0.020 A 
HETATM   14  C6  UNL     1       5.266  -0.662  -1.147  1.00  0.00     0.011 A 
HETATM   15 BR1  UNL     1       6.565  -1.429  -2.336  1.00  0.00    -0.051 Br
HETATM   16  C7  UNL     1       4.861   0.648  -1.313  1.00  0.00     0.020 A 
HETATM   17  C8  UNL     1       3.925   1.181  -0.447  1.00  0.00     0.026 A 
ENDBRANCH   8  11
ENDBRANCH   6   8
ENDBRANCH   5   6
ENDBRANCH   2   5
BRANCH   3  18
HETATM   18  C9  UNL     1      -3.269   0.079  -0.170  1.00  0.00     0.052 A 
HETATM   19  C10 UNL     1      -3.920   1.309  -0.333  1.00  0.00     0.034 A 
HETATM   20  C11 UNL     1      -5.219   1.348  -0.764  1.00  0.00     0.042 A 
HETATM   21  C12 UNL     1      -5.934   0.225  -1.053  1.00  0.00     0.108 A 
HETATM   22 BR2  UNL     1      -7.742   0.337  -1.651  1.00  0.00    -0.029 Br
HETATM   23  N3  UNL     1      -5.313  -0.952  -0.898  1.00  0.00    -0.227 N 
HETATM   24  C13 UNL     1      -4.016  -1.024  -0.469  1.00  0.00     0.153 A 
BRANCH  23  25
HETATM   25  O4  UNL     1      -5.990  -2.122  -1.175  1.00  0.00    -0.282 OA
ATOM     26  H4  UNL     1      -5.550  -2.957  -1.065  1.00  0.00     0.245 HD
ENDBRANCH  23  25
ENDBRANCH   3  18
TORSDOF 6
