REMARK  5 active torsions:
REMARK  status: ('A' for Active; 'I' for Inactive)
REMARK    1  A    between atoms: N1_8  and  C8_9 
REMARK    2  A    between atoms: C8_9  and  C9_10 
REMARK    3  A    between atoms: C8_9  and  C21_26 
REMARK       I    between atoms: C9_10  and  N2_12 
REMARK    4  A    between atoms: N2_12  and  C10_14 
REMARK    5  A    between atoms: C10_14  and  C11_15 
ROOT
HETATM    1  C1  UNL     1      -4.337   2.292  -1.062  1.00  0.00     0.023 C 
HETATM    2  C2  UNL     1      -4.579   1.100  -0.194  1.00  0.00     0.014 C 
HETATM    3  C3  UNL     1      -5.673   1.456   0.828  1.00  0.00     0.023 C 
HETATM    4  C4  UNL     1      -4.970  -0.133  -0.853  1.00  0.00     0.047 C 
HETATM    5  C5  UNL     1      -4.089  -1.257  -0.309  1.00  0.00     0.029 C 
HETATM    6  C6  UNL     1      -4.950  -1.945   0.760  1.00  0.00     0.038 C 
HETATM    7  C7  UNL     1      -3.865  -2.137  -1.483  1.00  0.00     0.038 C 
HETATM    8  N1  UNL     1      -2.973  -0.619   0.303  1.00  0.00    -0.342 N 
HETATM    9  C22 UNL     1      -3.395   0.715   0.637  1.00  0.00     0.098 C 
HETATM   10  N3  UNL     1      -2.982   1.593   1.462  1.00  0.00    -0.282 N 
ATOM     11  H3  UNL     1      -3.546   2.442   1.418  1.00  0.00     0.179 HD
HETATM   12  C23 UNL     1      -2.009   1.700   2.369  1.00  0.00     0.183 C 
HETATM   13  N4  UNL     1      -1.174   1.817   3.157  1.00  0.00    -0.172 NA
ENDROOT
BRANCH   8  14
HETATM   14  C8  UNL     1      -1.643  -0.985   0.640  1.00  0.00     0.235 C 
BRANCH  14  15
HETATM   15  C9  UNL     1      -0.659  -0.150  -0.107  1.00  0.00     0.246 C 
HETATM   16  O1  UNL     1      -1.109   0.637  -0.979  1.00  0.00    -0.271 OA
HETATM   17  N2  UNL     1       0.740  -0.195   0.110  1.00  0.00    -0.358 N 
ATOM     18  H2  UNL     1       1.119  -0.828   0.815  1.00  0.00     0.162 HD
BRANCH  17  19
HETATM   19  C10 UNL     1       1.637   0.642  -0.652  1.00  0.00     0.132 C 
BRANCH  19  20
HETATM   20  C11 UNL     1       3.068   0.451  -0.280  1.00  0.00    -0.022 C 
HETATM   21  C12 UNL     1       3.250   0.789   1.186  1.00  0.00     0.016 C 
HETATM   22  C13 UNL     1       4.712   0.740   1.501  1.00  0.00    -0.012 C 
HETATM   23  C14 UNL     1       5.536   1.650   0.634  1.00  0.00     0.009 C 
HETATM   24  C18 UNL     1       5.201  -0.688   1.287  1.00  0.00     0.030 C 
HETATM   25  C15 UNL     1       5.362   1.257  -0.809  1.00  0.00    -0.012 C 
HETATM   26  C16 UNL     1       5.838  -0.173  -1.015  1.00  0.00     0.030 C 
HETATM   27  C20 UNL     1       3.911   1.352  -1.164  1.00  0.00     0.016 C 
HETATM   28  C17 UNL     1       4.980  -1.067  -0.147  1.00  0.00     0.038 C 
HETATM   29 CL1  UNL     1       5.506  -2.734  -0.397  1.00  0.00    -0.119 Cl
HETATM   30  C19 UNL     1       3.524  -0.961  -0.510  1.00  0.00     0.036 C 
ENDBRANCH  19  20
ENDBRANCH  17  19
ENDBRANCH  14  15
BRANCH  14  31
HETATM   31  C21 UNL     1      -1.175  -2.369   0.462  1.00  0.00     0.113 C 
HETATM   32 CL2  UNL     1      -2.050  -3.624   1.348  1.00  0.00    -0.073 Cl
HETATM   33 CL3  UNL     1      -0.583  -2.839  -1.116  1.00  0.00    -0.073 Cl
ENDBRANCH  14  31
ENDBRANCH   8  14
TORSDOF 5
