REMARK  8 active torsions:
REMARK  status: ('A' for Active; 'I' for Inactive)
REMARK    1  A    between atoms: C2_2  and  O1_3 
REMARK    2  A    between atoms: O1_3  and  C3_4 
REMARK       I    between atoms: C3_4  and  N1_6 
REMARK       I    between atoms: N2_9  and  C6_10 
REMARK    3  A    between atoms: C6_10  and  C7_12 
REMARK    4  A    between atoms: C7_12  and  C8_13 
REMARK    5  A    between atoms: C7_12  and  C16_22 
REMARK    6  A    between atoms: C8_13  and  C9_14 
REMARK    7  A    between atoms: C9_14  and  S1_15 
REMARK    8  A    between atoms: S1_15  and  C10_16 
ROOT
HETATM    1  C7  UNL     1      -0.031  -2.361  -0.527  1.00  0.00     0.086 C 
ENDROOT
BRANCH   1   2
HETATM    2  C6  UNL     1       0.642  -1.972   0.736  1.00  0.00     0.224 C 
HETATM    3  N2  UNL     1       1.875  -1.328   0.874  1.00  0.00    -0.349 N 
HETATM    4  C5  UNL     1       2.716  -0.864  -0.199  1.00  0.00     0.145 C 
HETATM    5  C20 UNL     1       2.408  -1.083   2.199  1.00  0.00     0.145 C 
HETATM    6  C4  UNL     1       2.757   0.651  -0.126  1.00  0.00     0.148 C 
HETATM    7  N1  UNL     1       3.224   1.005   1.194  1.00  0.00    -0.325 N 
HETATM    8  C3  UNL     1       4.213   2.040   1.326  1.00  0.00     0.362 C 
HETATM    9  C21 UNL     1       2.751   0.377   2.399  1.00  0.00     0.148 C 
HETATM   10  O2  UNL     1       4.652   2.378   2.460  1.00  0.00    -0.238 OA
HETATM   11  O3  UNL     1       0.037  -2.255   1.839  1.00  0.00    -0.273 OA
BRANCH   8  12
HETATM   12  O1  UNL     1       4.738   2.721   0.244  1.00  0.00    -0.304 OA
BRANCH  12  13
HETATM   13  C2  UNL     1       5.708   3.742   0.371  1.00  0.00     0.176 C 
HETATM   14  C1  UNL     1       6.018   4.214  -1.047  1.00  0.00     0.034 C 
ENDBRANCH  12  13
ENDBRANCH   8  12
ENDBRANCH   1   2
BRANCH   1  15
HETATM   15  C8  UNL     1      -1.536  -2.150  -0.416  1.00  0.00     0.025 C 
BRANCH  15  16
HETATM   16  C9  UNL     1      -1.816  -0.676  -0.136  1.00  0.00     0.075 C 
BRANCH  16  17
HETATM   17  S1  UNL     1      -3.582  -0.367   0.036  1.00  0.00    -0.164 SA
BRANCH  17  18
HETATM   18  C10 UNL     1      -3.812   1.408   0.342  1.00  0.00     0.047 C 
HETATM   19  C11 UNL     1      -3.443   2.260  -0.838  1.00  0.00     0.015 C 
HETATM   20  C12 UNL     1      -4.303   3.498  -0.824  1.00  0.00     0.001 C 
HETATM   21  C13 UNL     1      -5.723   3.085  -1.092  1.00  0.00     0.000 C 
HETATM   22  C14 UNL     1      -6.191   1.998  -0.153  1.00  0.00     0.001 C 
HETATM   23  C15 UNL     1      -5.166   1.707   0.921  1.00  0.00     0.015 C 
ENDBRANCH  17  18
ENDBRANCH  16  17
ENDBRANCH  15  16
ENDBRANCH   1  15
BRANCH   1  24
HETATM   24  C16 UNL     1       0.135  -3.802  -0.914  1.00  0.00    -0.039 C 
HETATM   25  C17 UNL     1      -0.405  -4.780   0.094  1.00  0.00     0.015 C 
HETATM   26  C18 UNL     1      -0.747  -3.980  -2.166  1.00  0.00     0.015 C 
HETATM   27  C19 UNL     1       1.522  -4.179  -1.374  1.00  0.00     0.015 C 
ENDBRANCH   1  24
TORSDOF 8
