REMARK  8 active torsions:
REMARK  status: ('A' for Active; 'I' for Inactive)
REMARK    1  A    between atoms: C2_2  and  C3_3 
REMARK    2  A    between atoms: C4_4  and  S1_5 
REMARK    3  A    between atoms: S1_5  and  C5_8 
REMARK    4  A    between atoms: C8_12  and  C9_13 
REMARK    5  A    between atoms: C9_13  and  O4_15 
REMARK    6  A    between atoms: O4_15  and  C10_16 
REMARK    7  A    between atoms: C10_16  and  C11_17 
REMARK       I    between atoms: C11_17  and  N1_19 
REMARK    8  A    between atoms: N1_19  and  C12_21 
ROOT
HETATM    1  O4  UNL     1       2.393  -0.693  -0.244  1.00  0.00    -0.308 OA
ENDROOT
BRANCH   1   2
HETATM    2  C9  UNL     1       2.689  -0.628  -1.557  1.00  0.00     0.302 C 
HETATM    3  O3  UNL     1       2.152   0.264  -2.283  1.00  0.00    -0.259 OA
BRANCH   2   4
HETATM    4  C8  UNL     1       3.634  -1.584  -2.172  1.00  0.00     0.102 A 
HETATM    5  C5  UNL     1       4.364  -2.612  -1.669  1.00  0.00     0.095 A 
HETATM    6  C6  UNL     1       5.127  -3.316  -2.538  1.00  0.00     0.033 A 
HETATM    7  C7  UNL     1       5.109  -2.942  -3.850  1.00  0.00     0.052 A 
HETATM    8  S2  UNL     1       4.043  -1.630  -3.862  1.00  0.00    -0.094 SA
BRANCH   5   9
HETATM    9  S1  UNL     1       4.331  -2.985   0.071  1.00  0.00     0.247 S 
HETATM   10  O1  UNL     1       5.225  -4.146   0.319  1.00  0.00    -0.209 OA
HETATM   11  O2  UNL     1       2.927  -3.345   0.505  1.00  0.00    -0.209 OA
BRANCH   9  12
HETATM   12  C4  UNL     1       4.976  -1.669   0.998  1.00  0.00     0.037 C 
HETATM   13  C3  UNL     1       5.450  -0.758   1.656  1.00  0.00    -0.062 C 
BRANCH  13  14
HETATM   14  C2  UNL     1       6.000   0.310   2.443  1.00  0.00     0.055 C 
HETATM   15  C1  UNL     1       5.296   0.945   3.366  1.00  0.00     0.021 C 
ENDBRANCH  13  14
ENDBRANCH   9  12
ENDBRANCH   5   9
ENDBRANCH   2   4
ENDBRANCH   1   2
BRANCH   1  16
HETATM   16  C10 UNL     1       1.522   0.134   0.462  1.00  0.00     0.281 C 
BRANCH  16  17
HETATM   17  C11 UNL     1       0.118   0.101   0.003  1.00  0.00     0.242 C 
HETATM   18  O5  UNL     1      -0.199  -0.654  -0.941  1.00  0.00    -0.271 OA
HETATM   19  N1  UNL     1      -0.853   0.902   0.611  1.00  0.00    -0.350 N 
ATOM     20  H1  UNL     1      -0.535   1.498   1.375  1.00  0.00     0.163 HD
BRANCH  19  21
HETATM   21  C12 UNL     1      -2.241   0.978   0.281  1.00  0.00     0.034 C 
HETATM   22  C13 UNL     1      -2.874  -0.376   0.482  1.00  0.00     0.035 C 
HETATM   23  C14 UNL     1      -4.386  -0.284   0.328  1.00  0.00    -0.012 C 
HETATM   24  C15 UNL     1      -4.908   0.697   1.322  1.00  0.00     0.009 C 
HETATM   25  C19 UNL     1      -4.638   0.138  -1.107  1.00  0.00     0.009 C 
HETATM   26  C16 UNL     1      -4.360   2.073   1.004  1.00  0.00    -0.012 C 
HETATM   27  C17 UNL     1      -4.628   2.475  -0.435  1.00  0.00     0.009 C 
HETATM   28  C21 UNL     1      -2.882   2.021   1.192  1.00  0.00     0.035 C 
HETATM   29  C18 UNL     1      -3.986   1.469  -1.353  1.00  0.00    -0.012 C 
HETATM   30  C20 UNL     1      -2.484   1.374  -1.157  1.00  0.00     0.035 C 
ENDBRANCH  19  21
ENDBRANCH  16  17
ENDBRANCH   1  16
TORSDOF 8
