REMARK  12 active torsions:
REMARK  status: ('A' for Active; 'I' for Inactive)
REMARK    1  A    between atoms: C2_2  and  C3_3 
REMARK    2  A    between atoms: C4_4  and  O1_5 
REMARK    3  A    between atoms: C8_11  and  C9_12 
REMARK    4  A    between atoms: C9_12  and  N2_13 
REMARK    5  A    between atoms: N2_13  and  C10_15 
REMARK    6  A    between atoms: C13_22  and  C14_23 
REMARK       I    between atoms: C14_23  and  N5_25 
REMARK    7  A    between atoms: N5_25  and  C15_27 
REMARK    8  A    between atoms: C15_27  and  C16_28 
REMARK    9  A    between atoms: C16_28  and  C17_29 
REMARK   10  A    between atoms: C17_29  and  N6_30 
REMARK   11  A    between atoms: N7_33  and  C20_34 
REMARK   12  A    between atoms: C25_39  and  C26_40 
ROOT
HETATM    1  C10 UNL     1      -0.226   1.242  -1.720  1.00  0.00     0.119 A 
HETATM    2  N3  UNL     1      -0.980   2.359  -1.716  1.00  0.00    -0.338 N 
ATOM      3  H3  UNL     1      -1.430   2.682  -0.860  1.00  0.00     0.168 HD
HETATM    4  C11 UNL     1      -1.125   3.042  -2.878  1.00  0.00     0.181 A 
HETATM    5  N4  UNL     1      -0.518   2.583  -3.985  1.00  0.00    -0.361 N 
ATOM      6  H4  UNL     1      -0.642   3.111  -4.849  1.00  0.00     0.166 HD
HETATM    7  C12 UNL     1       0.229   1.494  -4.030  1.00  0.00     0.109 A 
HETATM    8  C13 UNL     1       0.409   0.756  -2.847  1.00  0.00     0.091 A 
ENDROOT
BRANCH   1   9
HETATM    9  N2  UNL     1      -0.140   0.526  -0.657  1.00  0.00    -0.370 N 
ATOM     10  H2  UNL     1       0.437  -0.315  -0.670  1.00  0.00     0.161 HD
BRANCH   9  11
HETATM   11  C9  UNL     1      -0.836   0.879   0.553  1.00  0.00     0.178 C 
BRANCH  11  12
HETATM   12  C8  UNL     1      -2.287   0.480   0.371  1.00  0.00     0.028 A 
HETATM   13  N1  UNL     1      -3.244   0.941   1.185  1.00  0.00    -0.357 N 
HETATM   14  C7  UNL     1      -4.550   0.577   1.011  1.00  0.00     0.047 A 
ATOM     15  H1  UNL     1      -2.995   1.573   1.946  1.00  0.00     0.166 HD
HETATM   16  C6  UNL     1      -5.482   1.084   1.890  1.00  0.00     0.067 A 
HETATM   17  C27 UNL     1      -4.930  -0.290  -0.020  1.00  0.00     0.014 A 
HETATM   18  C4  UNL     1      -6.779   0.716   1.723  1.00  0.00     0.077 A 
HETATM   19  C3  UNL     1      -7.181  -0.132   0.721  1.00  0.00    -0.018 A 
HETATM   20  C28 UNL     1      -6.253  -0.668  -0.188  1.00  0.00    -0.039 A 
HETATM   21  C29 UNL     1      -6.760  -1.628  -1.176  1.00  0.00     0.050 C 
HETATM   22  C25 UNL     1      -3.954  -0.748  -0.840  1.00  0.00     0.055 A 
HETATM   23  C24 UNL     1      -2.598  -0.365  -0.651  1.00  0.00     0.046 A 
BRANCH  18  24
HETATM   24  O1  UNL     1      -7.767   1.214   2.601  1.00  0.00    -0.355 OA
HETATM   25  C5  UNL     1      -7.425   2.091   3.661  1.00  0.00     0.210 C 
ENDBRANCH  18  24
BRANCH  19  26
HETATM   26  C2  UNL     1      -8.653  -0.476   0.578  1.00  0.00     0.037 C 
HETATM   27  C1  UNL     1      -9.104  -1.490   1.569  1.00  0.00     0.010 C 
ENDBRANCH  19  26
BRANCH  22  28
HETATM   28  C26 UNL     1      -4.202  -1.539  -2.019  1.00  0.00     0.210 C 
HETATM   29  O3  UNL     1      -3.829  -2.728  -2.040  1.00  0.00    -0.644 OA
HETATM   30  O4  UNL     1      -4.819  -1.019  -3.119  1.00  0.00    -0.644 OA
ENDBRANCH  22  28
ENDBRANCH  11  12
ENDBRANCH   9  11
ENDBRANCH   1   9
BRANCH   8  31
HETATM   31  C14 UNL     1       1.266  -0.421  -2.866  1.00  0.00     0.256 C 
HETATM   32  O2  UNL     1       1.172  -1.186  -3.879  1.00  0.00    -0.267 OA
HETATM   33  N5  UNL     1       2.159  -0.690  -1.810  1.00  0.00    -0.356 N 
ATOM     34  H5  UNL     1       2.245  -0.061  -1.011  1.00  0.00     0.162 HD
BRANCH  33  35
HETATM   35  C15 UNL     1       2.948  -1.899  -1.910  1.00  0.00     0.128 C 
BRANCH  35  36
HETATM   36  C16 UNL     1       3.959  -2.072  -0.829  1.00  0.00     0.064 C 
BRANCH  36  37
HETATM   37  C17 UNL     1       4.968  -0.925  -0.947  1.00  0.00     0.065 C 
BRANCH  37  38
HETATM   38  N6  UNL     1       6.020  -0.950  -0.058  1.00  0.00    -0.370 N 
HETATM   39  C18 UNL     1       5.890  -0.701   1.300  1.00  0.00     0.093 C 
HETATM   40  C19 UNL     1       6.506   0.641   1.680  1.00  0.00     0.317 C 
HETATM   41  N7  UNL     1       7.759   0.903   1.047  1.00  0.00     0.094 N 
HETATM   42  C22 UNL     1       7.826   0.546  -0.349  1.00  0.00     0.293 C 
HETATM   43  C23 UNL     1       7.351  -0.899  -0.534  1.00  0.00     0.157 C 
BRANCH  41  44
HETATM   44  C20 UNL     1       8.909   0.436   1.791  1.00  0.00     0.268 C 
HETATM   45  C21 UNL     1      10.210   0.707   1.048  1.00  0.00     0.037 C 
ENDBRANCH  41  44
ENDBRANCH  37  38
ENDBRANCH  36  37
ENDBRANCH  35  36
ENDBRANCH  33  35
ENDBRANCH   8  31
TORSDOF 12
