REMARK  17 active torsions:
REMARK  status: ('A' for Active; 'I' for Inactive)
REMARK    1  A    between atoms: C2_2  and  C3_3 
REMARK    2  A    between atoms: C3_3  and  C4_4 
REMARK    3  A    between atoms: C4_4  and  C5_5 
REMARK    4  A    between atoms: C5_5  and  C6_6 
REMARK    5  A    between atoms: C6_6  and  C7_7 
REMARK    6  A    between atoms: C7_7  and  C8_8 
REMARK    7  A    between atoms: C8_8  and  C9_9 
REMARK    8  A    between atoms: C8_8  and  N1_12 
REMARK    9  A    between atoms: C9_9  and  O1_10 
REMARK   10  A    between atoms: N1_12  and  C10_14 
REMARK   11  A    between atoms: C12_20  and  N4_21 
REMARK   12  A    between atoms: N5_24  and  C15_25 
REMARK   13  A    between atoms: C15_25  and  O2_26 
REMARK   14  A    between atoms: C15_25  and  N6_28 
REMARK   15  A    between atoms: C22_38  and  N8_39 
REMARK   16  A    between atoms: N8_39  and  C23_40 
REMARK   17  A    between atoms: C23_40  and  C24_41 
ROOT
HETATM    1  C10 UNL     1       2.320  -0.215   0.275  1.00  0.00     0.679 A 
HETATM    2  N2  UNL     1       1.091   0.381   0.295  1.00  0.00    -0.175 N 
ATOM      3  H2  UNL     1       1.024   1.357   0.006  1.00  0.00     0.186 HD
HETATM    4  C11 UNL     1      -0.030  -0.244   0.672  1.00  0.00     0.153 A 
HETATM    5  N3  UNL     1      -1.227   0.372   0.681  1.00  0.00    -0.175 N 
ATOM      6  H3  UNL     1      -1.268   1.349   0.389  1.00  0.00     0.186 HD
HETATM    7  C12 UNL     1      -2.372  -0.228   1.053  1.00  0.00     0.684 A 
HETATM    8  N7  UNL     1      -2.288  -1.518   1.434  1.00  0.00    -0.163 N 
ATOM      9  H7  UNL     1      -3.142  -1.997   1.721  1.00  0.00     0.187 HD
HETATM   10  C22 UNL     1      -1.123  -2.208   1.453  1.00  0.00     0.207 A 
HETATM   11  C26 UNL     1       0.049  -1.545   1.058  1.00  0.00     0.084 A 
HETATM   12  C27 UNL     1       1.263  -2.185   1.053  1.00  0.00     0.126 A 
HETATM   13  N9  UNL     1       2.378  -1.491   0.656  1.00  0.00    -0.201 N 
ATOM     14  H9  UNL     1       3.280  -1.967   0.652  1.00  0.00     0.183 HD
ENDROOT
BRANCH   7  15
HETATM   15  N4  UNL     1      -3.616   0.461   1.052  1.00  0.00    -0.214 N 
HETATM   16  C13 UNL     1      -3.632   1.855   0.627  1.00  0.00     0.161 C 
HETATM   17  C14 UNL     1      -4.993   2.451   0.937  1.00  0.00     0.147 C 
HETATM   18  N5  UNL     1      -6.077   1.624   0.409  1.00  0.00    -0.344 N 
HETATM   19  C20 UNL     1      -5.924   0.206   0.443  1.00  0.00     0.147 C 
HETATM   20  C21 UNL     1      -4.839  -0.164   1.461  1.00  0.00     0.161 C 
BRANCH  18  21
HETATM   21  C15 UNL     1      -7.194   2.349  -0.088  1.00  0.00     0.217 C 
BRANCH  21  22
HETATM   22  O2  UNL     1      -7.145   3.647   0.031  1.00  0.00    -0.333 OA
ATOM     23  H2  UNL     1      -7.892   4.132  -0.301  1.00  0.00     0.220 HD
ENDBRANCH  21  22
BRANCH  21  24
HETATM   24  N6  UNL     1      -8.353   1.876  -0.695  1.00  0.00    -0.344 N 
HETATM   25  C16 UNL     1      -9.379   2.867  -1.099  1.00  0.00     0.152 C 
HETATM   26  C17 UNL     1     -10.744   2.271  -1.044  1.00  0.00     0.187 C 
HETATM   27  O3  UNL     1     -10.865   0.957  -1.396  1.00  0.00    -0.388 OA
HETATM   28  C18 UNL     1      -9.722   0.520  -2.043  1.00  0.00     0.187 C 
HETATM   29  C19 UNL     1      -8.599   0.488  -0.967  1.00  0.00     0.152 C 
ENDBRANCH  21  24
ENDBRANCH  18  21
ENDBRANCH   7  15
BRANCH  10  30
HETATM   30  N8  UNL     1      -1.088  -3.350   1.790  1.00  0.00    -0.402 NA
BRANCH  30  31
HETATM   31  C23 UNL     1      -1.020  -4.629   2.163  1.00  0.00     0.157 C 
BRANCH  31  32
HETATM   32  C24 UNL     1      -1.719  -5.654   1.267  1.00  0.00     0.055 C 
HETATM   33  C25 UNL     1      -1.494  -7.010   1.905  1.00  0.00     0.011 C 
ENDBRANCH  31  32
ENDBRANCH  30  31
ENDBRANCH  10  30
BRANCH   1  34
HETATM   34  N1  UNL     1       3.350   0.442  -0.102  1.00  0.00    -0.219 N 
ATOM     35  H1  UNL     1       3.219   1.414  -0.382  1.00  0.00     0.178 HD
BRANCH  34  36
HETATM   36  C8  UNL     1       4.714  -0.113  -0.158  1.00  0.00     0.122 C 
BRANCH  36  37
HETATM   37  C7  UNL     1       5.597   1.070   0.004  1.00  0.00     0.028 C 
BRANCH  37  38
HETATM   38  C6  UNL     1       7.062   0.915  -0.044  1.00  0.00     0.002 C 
BRANCH  38  39
HETATM   39  C5  UNL     1       7.741   0.478  -1.258  1.00  0.00     0.000 C 
BRANCH  39  40
HETATM   40  C4  UNL     1       9.216   0.429  -1.211  1.00  0.00     0.000 C 
BRANCH  40  41
HETATM   41  C3  UNL     1       9.998   1.650  -1.205  1.00  0.00    -0.000 C 
BRANCH  41  42
HETATM   42  C2  UNL     1       9.831   2.647  -0.150  1.00  0.00    -0.005 C 
HETATM   43  C1  UNL     1      10.910   3.746  -0.384  1.00  0.00     0.005 C 
ENDBRANCH  41  42
ENDBRANCH  40  41
ENDBRANCH  39  40
ENDBRANCH  38  39
ENDBRANCH  37  38
ENDBRANCH  36  37
BRANCH  36  44
HETATM   44  C9  UNL     1       4.839  -0.804  -1.455  1.00  0.00     0.189 C 
BRANCH  44  45
HETATM   45  O1  UNL     1       4.735   0.106  -2.497  1.00  0.00    -0.399 OA
ATOM     46  H1  UNL     1       4.816  -0.339  -3.332  1.00  0.00     0.209 HD
ENDBRANCH  44  45
ENDBRANCH  36  44
ENDBRANCH  34  36
ENDBRANCH   1  34
TORSDOF 17
