REMARK  13 active torsions:
REMARK  status: ('A' for Active; 'I' for Inactive)
REMARK    1  A    between atoms: C2_2  and  C4_4 
REMARK    2  A    between atoms: C4_4  and  C5_5 
REMARK    3  A    between atoms: C5_5  and  N1_6 
REMARK    4  A    between atoms: C5_5  and  C14_18 
REMARK       I    between atoms: N1_6  and  C6_8 
REMARK    5  A    between atoms: C6_8  and  O2_10 
REMARK    6  A    between atoms: O2_10  and  C7_11 
REMARK    7  A    between atoms: C7_11  and  C8_12 
REMARK       I    between atoms: C14_18  and  N2_20 
REMARK    8  A    between atoms: N2_20  and  C15_22 
REMARK    9  A    between atoms: C15_22  and  C17_25 
REMARK   10  A    between atoms: C17_25  and  C18_26 
REMARK   11  A    between atoms: C17_25  and  C26_39 
REMARK   12  A    between atoms: C23_32  and  O4_33 
REMARK   13  A    between atoms: O4_33  and  C24_34 
ROOT
HETATM    1  C15 UNL     1      -1.787  -1.271  -1.149  1.00  0.00     0.222 C 
HETATM    2  C16 UNL     1      -2.037  -2.090  -2.315  1.00  0.00     0.089 C 
HETATM    3  N3  UNL     1      -2.202  -2.762  -3.271  1.00  0.00    -0.195 NA
ENDROOT
BRANCH   1   4
HETATM    4  N2  UNL     1      -0.630  -1.871  -0.496  1.00  0.00    -0.339 N 
HETATM    5  C14 UNL     1       0.528  -1.152  -0.163  1.00  0.00     0.241 C 
HETATM    6  O3  UNL     1       0.489   0.098  -0.481  1.00  0.00    -0.271 OA
ATOM      7  H2  UNL     1      -0.664  -2.865  -0.269  1.00  0.00     0.164 HD
BRANCH   5   8
HETATM    8  C5  UNL     1       1.750  -1.649   0.485  1.00  0.00     0.179 C 
BRANCH   8   9
HETATM    9  C4  UNL     1       1.625  -2.170   1.869  1.00  0.00     0.038 C 
BRANCH   9  10
HETATM   10  C2  UNL     1       0.749  -3.330   2.120  1.00  0.00    -0.020 C 
HETATM   11  C1  UNL     1       0.854  -3.611   3.643  1.00  0.00     0.009 C 
HETATM   12  C3  UNL     1       1.225  -4.615   1.476  1.00  0.00     0.009 C 
ENDBRANCH   9  10
ENDBRANCH   8   9
BRANCH   8  13
HETATM   13  N1  UNL     1       2.695  -0.499   0.477  1.00  0.00    -0.324 N 
HETATM   14  C6  UNL     1       3.813  -0.472  -0.400  1.00  0.00     0.361 C 
HETATM   15  O1  UNL     1       4.049  -1.434  -1.209  1.00  0.00    -0.238 OA
ATOM     16  H1  UNL     1       2.537   0.283   1.112  1.00  0.00     0.165 HD
BRANCH  14  17
HETATM   17  O2  UNL     1       4.708   0.580  -0.443  1.00  0.00    -0.304 OA
BRANCH  17  18
HETATM   18  C7  UNL     1       5.814   0.602  -1.327  1.00  0.00     0.185 C 
BRANCH  18  19
HETATM   19  C8  UNL     1       6.530   1.920  -1.067  1.00  0.00     0.010 C 
HETATM   20  C9  UNL     1       5.572   3.047  -1.336  1.00  0.00     0.007 C 
HETATM   21  C10 UNL     1       6.260   4.076  -2.187  1.00  0.00     0.000 C 
HETATM   22  C11 UNL     1       7.631   4.456  -1.703  1.00  0.00     0.000 C 
HETATM   23  C12 UNL     1       8.542   3.267  -1.551  1.00  0.00     0.000 C 
HETATM   24  C13 UNL     1       7.770   2.025  -1.944  1.00  0.00     0.007 C 
ENDBRANCH  18  19
ENDBRANCH  17  18
ENDBRANCH  14  17
ENDBRANCH   8  13
ENDBRANCH   5   8
ENDBRANCH   1   4
BRANCH   1  25
HETATM   25  C17 UNL     1      -2.971  -1.119  -0.259  1.00  0.00    -0.029 C 
BRANCH  25  26
HETATM   26  C18 UNL     1      -2.712  -0.271   0.924  1.00  0.00    -0.028 A 
HETATM   27  C19 UNL     1      -2.362  -0.854   2.156  1.00  0.00     0.013 A 
HETATM   28  C20 UNL     1      -2.090  -0.120   3.282  1.00  0.00     0.026 A 
HETATM   29  C21 UNL     1      -2.154   1.280   3.238  1.00  0.00     0.078 A 
HETATM   30  C22 UNL     1      -1.834   2.050   4.405  1.00  0.00     0.102 C 
HETATM   31  C23 UNL     1      -2.493   1.882   2.058  1.00  0.00     0.099 A 
HETATM   32  N4  UNL     1      -1.547   2.664   5.368  1.00  0.00    -0.191 NA
HETATM   33  C25 UNL     1      -2.759   1.099   0.945  1.00  0.00     0.050 A 
BRANCH  31  34
HETATM   34  O4  UNL     1      -2.570   3.250   1.977  1.00  0.00    -0.254 OA
BRANCH  34  35
HETATM   35  C24 UNL     1      -3.796   3.896   2.225  1.00  0.00     0.530 C 
HETATM   36  F1  UNL     1      -4.776   3.456   1.321  1.00  0.00    -0.144 F 
HETATM   37  F2  UNL     1      -4.313   3.695   3.477  1.00  0.00    -0.144 F 
HETATM   38  F3  UNL     1      -3.702   5.266   2.036  1.00  0.00    -0.144 F 
ENDBRANCH  34  35
ENDBRANCH  31  34
ENDBRANCH  25  26
BRANCH  25  39
HETATM   39  C26 UNL     1      -4.288  -0.970  -0.911  1.00  0.00     0.018 C 
HETATM   40  C27 UNL     1      -4.472   0.141  -1.888  1.00  0.00     0.009 C 
HETATM   41  C28 UNL     1      -5.732   0.906  -1.586  1.00  0.00     0.001 C 
HETATM   42  C29 UNL     1      -6.898   0.095  -1.147  1.00  0.00     0.000 C 
HETATM   43  C30 UNL     1      -7.112  -1.201  -1.848  1.00  0.00     0.000 C 
HETATM   44  C31 UNL     1      -6.374  -2.312  -1.121  1.00  0.00     0.001 C 
HETATM   45  C32 UNL     1      -4.872  -2.226  -1.487  1.00  0.00     0.009 C 
ENDBRANCH  25  39
ENDBRANCH   1  25
TORSDOF 13
