REMARK  12 active torsions:
REMARK  status: ('A' for Active; 'I' for Inactive)
REMARK    1  A    between atoms: C1_2  and  C2_4 
REMARK    2  A    between atoms: C2_4  and  C3_5 
REMARK    3  A    between atoms: C3_5  and  N1_6 
REMARK    4  A    between atoms: N2_9  and  C6_10 
REMARK    5  A    between atoms: C6_10  and  C7_11 
REMARK    6  A    between atoms: C7_11  and  C8_12 
REMARK       I    between atoms: C8_12  and  N3_14 
REMARK    7  A    between atoms: N3_14  and  C9_16 
REMARK    8  A    between atoms: C13_20  and  C14_21 
REMARK    9  A    between atoms: C14_21  and  N4_22 
REMARK   10  A    between atoms: N7_34  and  C22_35 
REMARK   11  A    between atoms: C22_35  and  C23_36 
REMARK   12  A    between atoms: C23_36  and  N8_37 
ROOT
HETATM    1  C9  UNL     1      -0.037   1.142   0.002  1.00  0.00     0.104 A 
HETATM    2  C10 UNL     1      -0.496  -0.143   0.137  1.00  0.00     0.050 A 
HETATM    3  C11 UNL     1      -1.858  -0.433   0.245  1.00  0.00     0.014 A 
HETATM    4  C12 UNL     1      -2.319  -1.724   0.380  1.00  0.00     0.043 A 
HETATM    5  C13 UNL     1      -3.673  -1.936   0.481  1.00  0.00     0.055 A 
HETATM    6  N5  UNL     1      -4.486  -0.868   0.441  1.00  0.00    -0.301 N 
ATOM      7  H5  UNL     1      -5.492  -1.022   0.514  1.00  0.00     0.186 HD
HETATM    8  N6  UNL     1      -4.049   0.371   0.312  1.00  0.00    -0.284 N 
ATOM      9  H6  UNL     1      -4.718   1.141   0.290  1.00  0.00     0.188 HD
HETATM   10  C21 UNL     1      -2.725   0.634   0.209  1.00  0.00     0.135 A 
HETATM   11  N7  UNL     1      -2.335   1.895   0.080  1.00  0.00    -0.295 N 
HETATM   12  C30 UNL     1      -1.027   2.145  -0.021  1.00  0.00     0.276 A 
HETATM   13  O4  UNL     1      -0.582   3.333  -0.148  1.00  0.00    -0.265 OA
ENDROOT
BRANCH   1  14
HETATM   14  N3  UNL     1       1.310   1.467  -0.125  1.00  0.00    -0.323 N 
HETATM   15  C8  UNL     1       2.427   0.635  -0.007  1.00  0.00     0.224 C 
HETATM   16  O3  UNL     1       2.315  -0.579   0.252  1.00  0.00    -0.273 OA
ATOM     17  H3  UNL     1       1.509   2.446  -0.332  1.00  0.00     0.169 HD
BRANCH  15  18
HETATM   18  C7  UNL     1       3.829   1.171  -0.187  1.00  0.00     0.133 C 
BRANCH  18  19
HETATM   19  C6  UNL     1       4.836   0.103   0.120  1.00  0.00     0.281 C 
BRANCH  19  20
HETATM   20  N2  UNL     1       6.203   0.486  -0.029  1.00  0.00     0.092 N 
HETATM   21  C5  UNL     1       7.048  -0.604   0.469  1.00  0.00     0.302 C 
HETATM   22  C4  UNL     1       8.420  -0.579  -0.149  1.00  0.00     0.302 C 
HETATM   23  N1  UNL     1       8.348  -0.776  -1.588  1.00  0.00     0.092 N 
HETATM   24  C32 UNL     1       7.013  -0.588  -2.070  1.00  0.00     0.302 C 
HETATM   25  C31 UNL     1       6.473   0.702  -1.448  1.00  0.00     0.302 C 
BRANCH  23  26
HETATM   26  C3  UNL     1       8.948  -2.020  -1.954  1.00  0.00     0.283 C 
BRANCH  26  27
HETATM   27  C2  UNL     1       8.169  -3.229  -1.471  1.00  0.00     0.143 C 
BRANCH  27  28
HETATM   28  C1  UNL     1       8.884  -4.450  -1.903  1.00  0.00     0.174 C 
HETATM   29  O1  UNL     1       9.959  -4.392  -2.545  1.00  0.00    -0.648 OA
HETATM   30  O2  UNL     1       8.303  -5.677  -1.561  1.00  0.00    -0.648 OA
ENDBRANCH  27  28
ENDBRANCH  26  27
ENDBRANCH  23  26
ENDBRANCH  19  20
ENDBRANCH  18  19
ENDBRANCH  15  18
ENDBRANCH   1  14
BRANCH  11  31
HETATM   31  C22 UNL     1      -3.261   3.018   0.052  1.00  0.00     0.164 C 
BRANCH  31  32
HETATM   32  C23 UNL     1      -3.708   3.348  -1.337  1.00  0.00     0.292 C 
BRANCH  32  33
HETATM   33  N8  UNL     1      -4.630   4.467  -1.312  1.00  0.00     0.090 N 
HETATM   34  C24 UNL     1      -5.892   4.111  -0.689  1.00  0.00     0.272 C 
HETATM   35  C25 UNL     1      -6.879   5.189  -1.104  1.00  0.00     0.030 C 
HETATM   36  C26 UNL     1      -6.971   6.210  -0.019  1.00  0.00     0.002 C 
HETATM   37  C27 UNL     1      -5.923   7.267  -0.108  1.00  0.00     0.002 C 
HETATM   38  C28 UNL     1      -4.695   6.890  -0.873  1.00  0.00     0.030 C 
HETATM   39  C29 UNL     1      -4.099   5.568  -0.513  1.00  0.00     0.272 C 
ENDBRANCH  32  33
ENDBRANCH  31  32
ENDBRANCH  11  31
BRANCH   5  40
HETATM   40  C14 UNL     1      -4.193  -3.313   0.631  1.00  0.00     0.331 C 
BRANCH  40  41
HETATM   41  N4  UNL     1      -3.131  -4.182   1.022  1.00  0.00     0.103 N 
HETATM   42  C15 UNL     1      -3.603  -5.577   1.151  1.00  0.00     0.224 C 
HETATM   43  C16 UNL     1      -2.360  -6.256   1.626  1.00  0.00     0.038 C 
HETATM   44  C20 UNL     1      -4.556  -5.441   2.305  1.00  0.00     0.038 C 
HETATM   45  C17 UNL     1      -1.709  -5.170   2.491  1.00  0.00     0.038 C 
HETATM   46  C18 UNL     1      -2.679  -4.011   2.389  1.00  0.00     0.224 C 
HETATM   47  C19 UNL     1      -3.907  -4.386   3.176  1.00  0.00     0.038 C 
ENDBRANCH  40  41
ENDBRANCH   5  40
TORSDOF 12
