REMARK  15 active torsions:
REMARK  status: ('A' for Active; 'I' for Inactive)
REMARK    1  A    between atoms: N1_2  and  C3_4 
REMARK    2  A    between atoms: C3_4  and  C4_5 
REMARK    3  A    between atoms: C4_5  and  C5_6 
REMARK    4  A    between atoms: C5_6  and  N2_7 
REMARK       I    between atoms: N2_7  and  C6_9 
REMARK    5  A    between atoms: C6_9  and  C7_11 
REMARK    6  A    between atoms: C11_17  and  N4_18 
REMARK    7  A    between atoms: N4_18  and  C12_20 
REMARK    8  A    between atoms: C12_20  and  C13_21 
REMARK    9  A    between atoms: C13_21  and  C14_22 
REMARK   10  A    between atoms: C14_22  and  N5_23 
REMARK   11  A    between atoms: C19_29  and  N6_30 
REMARK   12  A    between atoms: C20_32  and  C21_33 
REMARK   13  A    between atoms: C22_34  and  C23_35 
REMARK   14  A    between atoms: C23_35  and  O4_37 
REMARK   15  A    between atoms: O4_37  and  C24_38 
ROOT
HETATM    1  C7  UNL     1       3.862   1.935  -1.822  1.00  0.00     0.034 A 
HETATM    2  C8  UNL     1       3.304   3.093  -2.349  1.00  0.00     0.019 A 
HETATM    3  C9  UNL     1       1.954   3.327  -2.237  1.00  0.00     0.033 A 
HETATM    4  C10 UNL     1       1.092   2.450  -1.613  1.00  0.00     0.060 A 
HETATM    5  N3  UNL     1      -0.233   2.698  -1.529  1.00  0.00    -0.338 N 
ATOM      6  H3  UNL     1      -0.621   3.556  -1.922  1.00  0.00     0.167 HD
HETATM    7  C11 UNL     1      -1.034   1.811  -0.927  1.00  0.00     0.146 A 
HETATM    8  C19 UNL     1      -0.533   0.607  -0.368  1.00  0.00     0.150 A 
HETATM    9  N8  UNL     1       0.816   0.435  -0.495  1.00  0.00    -0.338 N 
ATOM     10  H8  UNL     1       1.224  -0.416  -0.108  1.00  0.00     0.167 HD
HETATM   11  C31 UNL     1       1.637   1.302  -1.090  1.00  0.00     0.061 A 
HETATM   12  C32 UNL     1       3.011   1.054  -1.197  1.00  0.00     0.049 A 
ENDROOT
BRANCH   8  13
HETATM   13  N6  UNL     1      -1.399  -0.229   0.212  1.00  0.00    -0.347 N 
HETATM   14  C20 UNL     1      -2.057  -1.251   0.200  1.00  0.00     0.119 C 
ATOM     15  H6  UNL     1      -1.615   0.206   1.109  1.00  0.00     0.167 HD
BRANCH  14  16
HETATM   16  C21 UNL     1      -2.215  -2.323  -0.768  1.00  0.00     0.058 C 
HETATM   17  C22 UNL     1      -2.988  -3.382  -0.580  1.00  0.00     0.046 C 
HETATM   18  C28 UNL     1      -2.848  -4.256  -1.807  1.00  0.00     0.067 C 
HETATM   19  C29 UNL     1      -1.446  -3.870  -2.269  1.00  0.00     0.127 C 
HETATM   20  N7  UNL     1      -1.601  -2.412  -2.065  1.00  0.00    -0.383 N 
HETATM   21  C30 UNL     1      -1.237  -1.400  -2.995  1.00  0.00     0.149 C 
BRANCH  17  22
HETATM   22  C23 UNL     1      -3.840  -3.778   0.530  1.00  0.00     0.292 C 
HETATM   23  O3  UNL     1      -3.992  -3.131   1.574  1.00  0.00    -0.259 OA
BRANCH  22  24
HETATM   24  O4  UNL     1      -4.558  -4.968   0.452  1.00  0.00    -0.307 OA
BRANCH  24  25
HETATM   25  C24 UNL     1      -5.411  -5.438   1.470  1.00  0.00     0.060 C 
HETATM   26  C25 UNL     1      -4.720  -5.672   2.788  1.00  0.00     0.046 C 
HETATM   27  C26 UNL     1      -5.942  -6.785   0.961  1.00  0.00     0.046 C 
HETATM   28  C27 UNL     1      -6.602  -4.557   1.702  1.00  0.00     0.046 C 
ENDBRANCH  24  25
ENDBRANCH  22  24
ENDBRANCH  17  22
ENDBRANCH  14  16
ENDBRANCH   8  13
BRANCH   7  29
HETATM   29  N4  UNL     1      -2.298   1.988  -0.817  1.00  0.00    -0.373 N 
ATOM     30  H4  UNL     1      -2.804   1.243  -0.339  1.00  0.00     0.161 HD
BRANCH  29  31
HETATM   31  C12 UNL     1      -3.090   3.068  -1.264  1.00  0.00     0.123 C 
BRANCH  31  32
HETATM   32  C13 UNL     1      -3.520   3.852  -0.021  1.00  0.00     0.050 C 
BRANCH  32  33
HETATM   33  C14 UNL     1      -4.301   2.903   0.832  1.00  0.00     0.274 C 
BRANCH  33  34
HETATM   34  N5  UNL     1      -4.789   3.460   2.060  1.00  0.00     0.092 N 
HETATM   35  C15 UNL     1      -3.808   3.794   3.030  1.00  0.00     0.298 C 
HETATM   36  C16 UNL     1      -3.485   5.240   3.181  1.00  0.00     0.198 C 
HETATM   37  O2  UNL     1      -4.569   6.094   3.160  1.00  0.00    -0.388 OA
HETATM   38  C17 UNL     1      -5.776   5.436   2.978  1.00  0.00     0.198 C 
HETATM   39  C18 UNL     1      -5.730   4.498   1.790  1.00  0.00     0.298 C 
ENDBRANCH  33  34
ENDBRANCH  32  33
ENDBRANCH  31  32
ENDBRANCH  29  31
ENDBRANCH   7  29
BRANCH   1  40
HETATM   40  C6  UNL     1       5.293   1.682  -1.969  1.00  0.00     0.251 C 
HETATM   41  N2  UNL     1       6.058   0.923  -1.045  1.00  0.00    -0.357 N 
ATOM     42  H2  UNL     1       5.617   0.523  -0.217  1.00  0.00     0.162 HD
HETATM   43  O1  UNL     1       5.900   2.166  -2.983  1.00  0.00    -0.268 OA
BRANCH  41  44
HETATM   44  C5  UNL     1       7.455   0.725  -1.287  1.00  0.00     0.124 C 
BRANCH  44  45
HETATM   45  C4  UNL     1       8.127  -0.073  -0.201  1.00  0.00     0.050 C 
BRANCH  45  46
HETATM   46  C3  UNL     1       9.603  -0.240  -0.570  1.00  0.00     0.273 C 
BRANCH  46  47
HETATM   47  N1  UNL     1      10.219  -0.994   0.501  1.00  0.00     0.080 N 
HETATM   48  C1  UNL     1      10.261  -0.192   1.711  1.00  0.00     0.309 C 
HETATM   49  C2  UNL     1      11.495  -1.545   0.137  1.00  0.00     0.309 C 
ENDBRANCH  46  47
ENDBRANCH  45  46
ENDBRANCH  44  45
ENDBRANCH  41  44
ENDBRANCH   1  40
TORSDOF 15
