REMARK  15 active torsions:
REMARK  status: ('A' for Active; 'I' for Inactive)
REMARK    1  A    between atoms: O1_2  and  C2_3 
REMARK    2  A    between atoms: C2_3  and  C3_5 
REMARK    3  A    between atoms: C3_5  and  S1_6 
REMARK    4  A    between atoms: C3_5  and  C5_9 
REMARK    5  A    between atoms: C5_9  and  N3_13 
REMARK    6  A    between atoms: N3_13  and  C6_15 
REMARK    7  A    between atoms: C10_24  and  O5_25 
REMARK    8  A    between atoms: C13_31  and  C14_32 
REMARK    9  A    between atoms: C14_32  and  C15_33 
REMARK   10  A    between atoms: C15_33  and  C16_34 
REMARK   11  A    between atoms: C15_33  and  N7_38 
REMARK   12  A    between atoms: C16_34  and  C17_35 
REMARK   13  A    between atoms: C17_35  and  S2_36 
REMARK       I    between atoms: N7_38  and  C19_40 
REMARK   14  A    between atoms: C19_40  and  C20_42 
REMARK   15  A    between atoms: C22_50  and  N11_51 
ROOT
HETATM    1  S1  UNL     1       7.374  -2.057  -0.615  1.00  0.00    -0.028 SA
HETATM    2  C4  UNL     1       8.885  -2.961  -0.479  1.00  0.00     0.134 C 
HETATM    3  N1  UNL     1       9.875  -3.572  -0.384  1.00  0.00    -0.184 NA
ENDROOT
BRANCH   1   4
HETATM    4  C3  UNL     1       7.574  -0.394   0.099  1.00  0.00     0.228 C 
BRANCH   4   5
HETATM    5  C2  UNL     1       8.520   0.420  -0.672  1.00  0.00     0.280 C 
HETATM    6  O2  UNL     1       9.565   0.863  -0.109  1.00  0.00    -0.263 OA
BRANCH   5   7
HETATM    7  O1  UNL     1       8.339   0.744  -2.011  1.00  0.00    -0.325 OA
HETATM    8  C1  UNL     1       9.313   1.537  -2.668  1.00  0.00     0.213 C 
ENDBRANCH   5   7
ENDBRANCH   4   5
BRANCH   4   9
HETATM    9  C5  UNL     1       6.252   0.273   0.256  1.00  0.00     0.097 C 
HETATM   10  N2  UNL     1       6.107   1.435  -0.314  1.00  0.00    -0.388 N 
ATOM     11  H22 UNL     1       6.859   1.875  -0.844  1.00  0.00     0.157 HD
ATOM     12  H21 UNL     1       5.201   1.892  -0.206  1.00  0.00     0.157 HD
BRANCH   9  13
HETATM   13  N3  UNL     1       5.207  -0.338   0.993  1.00  0.00    -0.349 N 
ATOM     14  H3  UNL     1       5.414  -1.086   1.655  1.00  0.00     0.163 HD
BRANCH  13  15
HETATM   15  C6  UNL     1       3.842   0.107   0.799  1.00  0.00     0.270 C 
HETATM   16  O3  UNL     1       3.566   0.138  -0.518  1.00  0.00    -0.336 OA
HETATM   17  C7  UNL     1       2.239   0.285  -0.884  1.00  0.00     0.256 C 
HETATM   18  N4  UNL     1       1.786  -1.095  -1.177  1.00  0.00    -0.347 N 
HETATM   19  C24 UNL     1       1.394   0.822   0.236  1.00  0.00     0.201 C 
HETATM   20  C8  UNL     1       1.947  -2.038  -0.263  1.00  0.00     0.164 C 
ATOM     21  H4  UNL     1       1.354  -1.316  -2.074  1.00  0.00     0.163 HD
HETATM   22  N5  UNL     1       1.480  -3.352  -0.632  1.00  0.00    -0.079 NA
HETATM   23  C9  UNL     1       2.526  -1.950   1.075  1.00  0.00     0.231 C 
HETATM   24  O4  UNL     1       2.710  -3.029   1.653  1.00  0.00    -0.286 OA
HETATM   25  C10 UNL     1       2.866  -0.642   1.689  1.00  0.00     0.196 C 
HETATM   26  C12 UNL     1       1.578   0.197   1.572  1.00  0.00     0.186 C 
HETATM   27  N6  UNL     1       0.515  -0.603   2.042  1.00  0.00    -0.289 N 
HETATM   28  O6  UNL     1      -0.650  -0.510   1.403  1.00  0.00    -0.252 OA
ATOM     29  H6  UNL     1       0.634  -1.228   2.839  1.00  0.00     0.188 HD
HETATM   30  C13 UNL     1      -0.749   0.773   0.870  1.00  0.00     0.290 C 
HETATM   31  O8  UNL     1       0.066   0.835  -0.224  1.00  0.00    -0.347 OA
BRANCH  25  32
HETATM   32  O5  UNL     1       3.324  -0.615   2.932  1.00  0.00    -0.370 OA
HETATM   33  C11 UNL     1       2.727  -1.173   3.984  1.00  0.00     0.203 C 
ENDBRANCH  25  32
BRANCH  30  34
HETATM   34  C14 UNL     1      -2.139   1.257   0.717  1.00  0.00     0.088 C 
BRANCH  34  35
HETATM   35  C15 UNL     1      -3.053   0.472  -0.151  1.00  0.00     0.090 C 
BRANCH  35  36
HETATM   36  C16 UNL     1      -2.554   0.392  -1.562  1.00  0.00     0.035 C 
BRANCH  36  37
HETATM   37  C17 UNL     1      -3.503  -0.403  -2.448  1.00  0.00     0.075 C 
BRANCH  37  38
HETATM   38  S2  UNL     1      -2.776  -0.411  -4.115  1.00  0.00    -0.173 SA
HETATM   39  C18 UNL     1      -1.213  -1.354  -4.103  1.00  0.00     0.089 C 
ENDBRANCH  37  38
ENDBRANCH  36  37
ENDBRANCH  35  36
BRANCH  35  40
HETATM   40  N7  UNL     1      -4.412   0.979  -0.129  1.00  0.00    -0.350 N 
HETATM   41  C19 UNL     1      -5.511   0.246   0.358  1.00  0.00     0.287 C 
HETATM   42  O7  UNL     1      -5.303  -0.909   0.796  1.00  0.00    -0.264 OA
ATOM     43  H7  UNL     1      -4.581   1.919  -0.486  1.00  0.00     0.163 HD
BRANCH  41  44
HETATM   44  C20 UNL     1      -6.882   0.817   0.359  1.00  0.00     0.191 A 
HETATM   45  N8  UNL     1      -7.100   2.049  -0.107  1.00  0.00    -0.279 N 
HETATM   46  N9  UNL     1      -8.295   2.585  -0.119  1.00  0.00    -0.280 N 
ATOM     47  H8  UNL     1      -6.312   2.589  -0.464  1.00  0.00     0.189 HD
HETATM   48  C21 UNL     1      -9.344   1.881   0.352  1.00  0.00     0.180 A 
ATOM     49  H9  UNL     1      -8.431   3.528  -0.482  1.00  0.00     0.188 HD
HETATM   50  N10 UNL     1     -10.662   2.138   0.477  1.00  0.00    -0.172 N 
HETATM   51  C23 UNL     1      -9.151   0.601   0.841  1.00  0.00     0.169 A 
HETATM   52  C22 UNL     1     -11.278   1.076   1.019  1.00  0.00     0.679 A 
ATOM     53  H10 UNL     1     -11.120   3.007   0.202  1.00  0.00     0.186 HD
HETATM   54  N12 UNL     1     -10.356   0.113   1.251  1.00  0.00    -0.173 N 
ATOM     55  H12 UNL     1     -10.530  -0.806   1.657  1.00  0.00     0.186 HD
HETATM   56  N13 UNL     1      -7.909   0.101   0.830  1.00  0.00    -0.319 N 
ATOM     57  H13 UNL     1      -7.743  -0.840   1.186  1.00  0.00     0.169 HD
BRANCH  52  58
HETATM   58  N11 UNL     1     -12.537   1.002   1.271  1.00  0.00    -0.234 N 
ATOM     59 2H11 UNL     1     -13.232   1.728   1.096  1.00  0.00     0.174 HD
ATOM     60 1H11 UNL     1     -13.005   0.195   1.683  1.00  0.00     0.174 HD
ENDBRANCH  52  58
ENDBRANCH  41  44
ENDBRANCH  35  40
ENDBRANCH  34  35
ENDBRANCH  30  34
ENDBRANCH  13  15
ENDBRANCH   9  13
ENDBRANCH   4   9
ENDBRANCH   1   4
TORSDOF 15
