REMARK  15 active torsions:
REMARK  status: ('A' for Active; 'I' for Inactive)
REMARK    1  A    between atoms: C2_2  and  C3_4 
REMARK    2  A    between atoms: C3_4  and  N1_5 
REMARK    3  A    between atoms: C6_10  and  N3_11 
REMARK    4  A    between atoms: N4_16  and  C8_17 
REMARK    5  A    between atoms: C8_17  and  C9_18 
REMARK    6  A    between atoms: C9_18  and  O3_19 
REMARK    7  A    between atoms: C9_18  and  O4_21 
REMARK    8  A    between atoms: O4_21  and  C10_22 
REMARK    9  A    between atoms: C10_22  and  C11_23 
REMARK   10  A    between atoms: C11_23  and  N5_24 
REMARK   11  A    between atoms: C11_23  and  O5_28 
REMARK   12  A    between atoms: O5_28  and  C12_29 
REMARK   13  A    between atoms: C20_42  and  S1_43 
REMARK   14  A    between atoms: S1_43  and  C21_46 
REMARK   15  A    between atoms: C21_46  and  C23_48 
ROOT
HETATM    1  N1  UNL     1      -2.248   3.503   0.995  1.00  0.00    -0.269 N 
HETATM    2  N2  UNL     1      -2.221   2.193   0.797  1.00  0.00    -0.294 N 
ATOM      3  H2  UNL     1      -3.032   1.580   0.719  1.00  0.00     0.187 HD
HETATM    4  C4  UNL     1      -0.953   1.823   0.719  1.00  0.00     0.086 A 
HETATM    5  C5  UNL     1      -0.121   2.935   0.875  1.00  0.00     0.106 A 
HETATM    6  C6  UNL     1      -1.000   3.999   1.050  1.00  0.00     0.134 A 
HETATM    7  C7  UNL     1       1.225   2.791   0.840  1.00  0.00     0.264 A 
HETATM    8  O2  UNL     1       1.948   3.813   0.985  1.00  0.00    -0.267 OA
HETATM    9  N4  UNL     1       1.880   1.599   0.656  1.00  0.00    -0.308 N 
HETATM   10  C14 UNL     1       1.063   0.550   0.510  1.00  0.00     0.056 A 
HETATM   11  C15 UNL     1       1.819  -0.596   0.384  1.00  0.00     0.034 C 
HETATM   12  C16 UNL     1       1.400  -1.869   0.687  1.00  0.00     0.051 C 
HETATM   13  C17 UNL     1       0.104  -2.331   0.883  1.00  0.00     0.118 A 
HETATM   14  N6  UNL     1       0.114  -3.578   1.292  1.00  0.00    -0.307 N 
ATOM     15  H6  UNL     1       1.015  -4.037   1.426  1.00  0.00     0.170 HD
HETATM   16  C18 UNL     1      -0.984  -4.269   1.539  1.00  0.00     0.274 A 
HETATM   17  O7  UNL     1      -0.918  -5.473   1.935  1.00  0.00    -0.266 OA
HETATM   18  C19 UNL     1      -2.190  -3.616   1.346  1.00  0.00     0.153 A 
HETATM   19  N7  UNL     1      -3.325  -4.427   1.702  1.00  0.00    -0.093 NA
HETATM   20  C20 UNL     1      -2.278  -2.299   0.912  1.00  0.00     0.170 A 
HETATM   21  N8  UNL     1      -1.104  -1.701   0.699  1.00  0.00    -0.251 N 
HETATM   22  C24 UNL     1      -1.247  -0.400   0.351  1.00  0.00     0.269 C 
HETATM   23  O12 UNL     1      -2.287  -0.126  -0.173  1.00  0.00    -0.266 OA
HETATM   24  C25 UNL     1      -0.333   0.620   0.534  1.00  0.00     0.089 A 
ENDROOT
BRANCH   9  25
HETATM   25  C8  UNL     1       3.318   1.569   0.632  1.00  0.00     0.193 C 
BRANCH  25  26
HETATM   26  C9  UNL     1       3.966   1.793  -0.691  1.00  0.00     0.275 C 
BRANCH  26  27
HETATM   27  O3  UNL     1       3.576   3.059  -1.200  1.00  0.00    -0.370 OA
ATOM     28  H3  UNL     1       3.989   3.202  -2.043  1.00  0.00     0.212 HD
ENDBRANCH  26  27
BRANCH  26  29
HETATM   29  O4  UNL     1       5.356   1.901  -0.604  1.00  0.00    -0.355 OA
BRANCH  29  30
HETATM   30  C10 UNL     1       6.077   1.179  -1.491  1.00  0.00     0.232 C 
BRANCH  30  31
HETATM   31  C11 UNL     1       6.000  -0.297  -1.467  1.00  0.00     0.351 C 
BRANCH  31  32
HETATM   32  N5  UNL     1       6.889  -0.760  -2.576  1.00  0.00    -0.050 N 
ATOM     33  H53 UNL     1       6.661  -0.352  -3.482  1.00  0.00     0.277 HD
ATOM     34  H52 UNL     1       7.841  -0.398  -2.518  1.00  0.00     0.277 HD
ATOM     35  H51 UNL     1       6.836  -1.778  -2.559  1.00  0.00     0.277 HD
ENDBRANCH  31  32
BRANCH  31  36
HETATM   36  O5  UNL     1       6.613  -0.867  -0.316  1.00  0.00    -0.286 OA
BRANCH  36  37
HETATM   37  C12 UNL     1       5.997  -1.928   0.301  1.00  0.00     0.256 C 
HETATM   38  C13 UNL     1       6.574  -2.571   1.510  1.00  0.00     0.126 C 
HETATM   39  O6  UNL     1       4.920  -2.374  -0.156  1.00  0.00    -0.266 OA
ENDBRANCH  36  37
ENDBRANCH  31  36
ENDBRANCH  30  31
ENDBRANCH  29  30
ENDBRANCH  26  29
ENDBRANCH  25  26
ENDBRANCH   9  25
BRANCH   6  40
HETATM   40  N3  UNL     1      -0.665   5.228   1.231  1.00  0.00    -0.383 N 
ATOM     41  H32 UNL     1      -1.309   6.008   1.359  1.00  0.00     0.157 HD
ATOM     42  H31 UNL     1       0.282   5.604   1.273  1.00  0.00     0.157 HD
ENDBRANCH   6  40
BRANCH   1  43
HETATM   43  C3  UNL     1      -3.486   4.282   1.133  1.00  0.00     0.228 C 
BRANCH  43  44
HETATM   44  C2  UNL     1      -3.938   4.759  -0.182  1.00  0.00     0.142 C 
HETATM   45  C1  UNL     1      -4.859   3.984  -1.058  1.00  0.00     0.093 C 
HETATM   46  O1  UNL     1      -3.545   5.840  -0.583  1.00  0.00    -0.297 OA
ENDBRANCH  43  44
ENDBRANCH   1  43
BRANCH  20  47
HETATM   47  S1  UNL     1      -3.882  -1.472   0.591  1.00  0.00     0.207 S 
HETATM   48  O8  UNL     1      -5.157  -2.949   1.941  1.00  0.00    -0.220 OA
HETATM   49  O9  UNL     1      -4.929  -0.381   0.391  1.00  0.00    -0.220 OA
BRANCH  47  50
HETATM   50  C21 UNL     1      -4.456  -2.602  -0.720  1.00  0.00     0.211 C 
HETATM   51  C22 UNL     1      -3.358  -3.243  -1.658  1.00  0.00     0.038 C 
BRANCH  50  52
HETATM   52  C23 UNL     1      -5.197  -1.859  -1.793  1.00  0.00     0.192 C 
HETATM   53  O10 UNL     1      -5.212  -0.629  -1.796  1.00  0.00    -0.647 OA
HETATM   54  O11 UNL     1      -5.885  -2.500  -2.814  1.00  0.00    -0.647 OA
ENDBRANCH  50  52
ENDBRANCH  47  50
ENDBRANCH  20  47
TORSDOF 15
