REMARK  7 active torsions:
REMARK  status: ('A' for Active; 'I' for Inactive)
REMARK    1  A    between atoms: C2_2  and  C4_5 
REMARK    2  A    between atoms: C5_6  and  C6_7 
REMARK    3  A    between atoms: C6_7  and  O1_8 
REMARK    4  A    between atoms: O1_8  and  C7_9 
REMARK    5  A    between atoms: C10_12  and  C11_13 
REMARK    6  A    between atoms: N1_14  and  O2_16 
REMARK    7  A    between atoms: C12_18  and  O3_19 
ROOT
HETATM    1  C7  UNL     1      -1.159  -0.014  -0.145  1.00  0.00     0.111 A 
HETATM    2  C8  UNL     1      -1.824  -1.165  -0.487  1.00  0.00     0.041 A 
HETATM    3  C9  UNL     1      -3.186  -1.258  -0.399  1.00  0.00     0.018 A 
HETATM    4  C10 UNL     1      -3.990  -0.187   0.044  1.00  0.00     0.018 A 
HETATM    5  C12 UNL     1      -3.320   0.958   0.383  1.00  0.00     0.118 A 
HETATM    6  C13 UNL     1      -1.904   1.036   0.286  1.00  0.00     0.183 A 
HETATM    7  F1  UNL     1      -1.317   2.206   0.641  1.00  0.00    -0.200 F 
ENDROOT
BRANCH   1   8
HETATM    8  O1  UNL     1       0.222   0.107  -0.224  1.00  0.00    -0.336 OA
BRANCH   8   9
HETATM    9  C6  UNL     1       1.054  -0.948  -0.665  1.00  0.00     0.269 C 
BRANCH   9  10
HETATM   10  C5  UNL     1       2.442  -0.488  -0.627  1.00  0.00    -0.078 C 
HETATM   11  C4  UNL     1       3.581  -0.095  -0.580  1.00  0.00    -0.079 C 
BRANCH  11  12
HETATM   12  C2  UNL     1       4.964   0.400  -0.503  1.00  0.00     0.093 C 
HETATM   13  C1  UNL     1       5.009   1.519   0.544  1.00  0.00     0.046 C 
HETATM   14  C3  UNL     1       5.891  -0.684   0.009  1.00  0.00     0.046 C 
HETATM   15 CL1  UNL     1       5.424   0.982  -2.103  1.00  0.00    -0.106 Cl
ENDBRANCH  11  12
ENDBRANCH   9  10
ENDBRANCH   8   9
ENDBRANCH   1   8
BRANCH   5  16
HETATM   16  O3  UNL     1      -3.972   2.072   0.828  1.00  0.00    -0.357 OA
ATOM     17  H3  UNL     1      -3.507   2.866   1.063  1.00  0.00     0.218 HD
ENDBRANCH   5  16
BRANCH   4  18
HETATM   18  C11 UNL     1      -5.433  -0.369   0.108  1.00  0.00     0.128 C 
HETATM   19  N1  UNL     1      -6.299   0.484   0.481  1.00  0.00    -0.280 N 
ATOM     20  H1  UNL     1      -5.994   1.411   0.777  1.00  0.00     0.193 HD
BRANCH  19  21
HETATM   21  O2  UNL     1      -7.617   0.182   0.492  1.00  0.00    -0.290 OA
ATOM     22  H2  UNL     1      -8.264   0.819   0.771  1.00  0.00     0.244 HD
ENDBRANCH  19  21
ENDBRANCH   4  18
TORSDOF 7
