REMARK  5 active torsions:
REMARK  status: ('A' for Active; 'I' for Inactive)
REMARK    1  A    between atoms: C2_2  and  C3_3 
REMARK    2  A    between atoms: C3_3  and  O1_4 
REMARK    3  A    between atoms: C3_3  and  C4_6 
REMARK    4  A    between atoms: C5_7  and  C6_8 
REMARK    5  A    between atoms: C18_21  and  O3_22 
ROOT
HETATM    1  C6  UNL     1       1.111  -0.151  -0.659  1.00  0.00     0.181 C 
HETATM    2  C7  UNL     1       1.672   1.263  -0.464  1.00  0.00     0.084 C 
HETATM    3  O2  UNL     1       0.057   0.055  -1.620  1.00  0.00    -0.341 OA
HETATM    4  C8  UNL     1      -1.030   0.391  -0.854  1.00  0.00     0.174 C 
HETATM    5  C9  UNL     1      -2.060   1.293  -1.297  1.00  0.00    -0.043 A 
HETATM    6  C10 UNL     1      -2.325   2.519  -0.570  1.00  0.00    -0.063 A 
HETATM    7  C11 UNL     1      -3.087   2.175  -1.753  1.00  0.00     0.072 A 
HETATM    8  C12 UNL     1      -1.638   2.964   0.607  1.00  0.00     0.033 C 
HETATM    9  C13 UNL     1      -2.316   4.326   0.976  1.00  0.00     0.019 C 
HETATM   10  C14 UNL     1      -1.484   2.160   1.827  1.00  0.00    -0.022 C 
HETATM   11  C15 UNL     1      -2.074   0.834   1.971  1.00  0.00    -0.022 C 
HETATM   12  C16 UNL     1      -1.372  -0.436   1.998  1.00  0.00     0.046 C 
HETATM   13  C17 UNL     1      -2.539  -1.397   2.315  1.00  0.00     0.043 C 
HETATM   14  C18 UNL     1      -3.544  -1.340   1.208  1.00  0.00     0.120 C 
HETATM   15  C19 UNL     1      -2.985  -1.093  -0.143  1.00  0.00     0.055 C 
HETATM   16  C20 UNL     1      -1.531  -0.923  -0.310  1.00  0.00     0.085 C 
HETATM   17  C21 UNL     1      -1.185  -2.117  -1.117  1.00  0.00     0.141 C 
HETATM   18  O4  UNL     1      -1.098  -2.240  -2.323  1.00  0.00    -0.297 OA
HETATM   19  C22 UNL     1      -0.947  -3.209  -0.138  1.00  0.00     0.082 C 
HETATM   20  C23 UNL     1      -0.317  -2.487   1.018  1.00  0.00     0.047 C 
HETATM   21  C24 UNL     1      -0.610  -1.029   0.857  1.00  0.00     0.089 C 
HETATM   22  O5  UNL     1       0.596  -0.453   0.571  1.00  0.00    -0.339 OA
ENDROOT
BRANCH   1  23
HETATM   23  C5  UNL     1       2.143  -1.016  -1.223  1.00  0.00     0.039 C 
HETATM   24  C4  UNL     1       3.414  -1.389  -0.664  1.00  0.00     0.006 C 
BRANCH  24  25
HETATM   25  C3  UNL     1       4.557  -0.523  -0.359  1.00  0.00     0.140 C 
BRANCH  25  26
HETATM   26  C2  UNL     1       5.227   0.222  -1.457  1.00  0.00     0.031 C 
HETATM   27  C1  UNL     1       5.474  -0.626  -2.692  1.00  0.00     0.008 C 
ENDBRANCH  25  26
BRANCH  25  28
HETATM   28  O1  UNL     1       4.378   0.349   0.744  1.00  0.00    -0.392 OA
ATOM     29  H1  UNL     1       3.950  -0.127   1.446  1.00  0.00     0.210 HD
ENDBRANCH  25  28
ENDBRANCH  24  25
ENDBRANCH   1  23
BRANCH  14  30
HETATM   30  O3  UNL     1      -4.250  -2.574   1.301  1.00  0.00    -0.396 OA
ATOM     31  H3  UNL     1      -4.888  -2.538   0.598  1.00  0.00     0.210 HD
ENDBRANCH  14  30
TORSDOF 5
