REMARK  3 active torsions:
REMARK  status: ('A' for Active; 'I' for Inactive)
REMARK    1  A    between atoms: C2_2  and  N1_3 
REMARK    2  A    between atoms: C2_2  and  C3_7 
REMARK    3  A    between atoms: C19_24  and  C20_25 
ROOT
HETATM    1  C3  UNL     1      -0.994   1.437  -0.262  1.00  0.00    -0.046 C 
HETATM    2  C4  UNL     1      -0.035   1.939  -1.362  1.00  0.00     0.037 C 
HETATM    3  C5  UNL     1       1.342   1.889  -0.748  1.00  0.00     0.011 C 
HETATM    4  C6  UNL     1       1.468   0.811   0.297  1.00  0.00     0.007 C 
HETATM    5  C7  UNL     1       2.947   0.521   0.454  1.00  0.00    -0.043 C 
HETATM    6  C8  UNL     1       3.281   0.144   1.903  1.00  0.00     0.015 C 
HETATM    7  C9  UNL     1       3.740   1.818   0.213  1.00  0.00     0.015 C 
HETATM    8  C10 UNL     1       3.478  -0.502  -0.489  1.00  0.00     0.009 C 
HETATM    9  C11 UNL     1       2.553  -0.858  -1.604  1.00  0.00     0.002 C 
HETATM   10  C12 UNL     1       1.114  -1.031  -1.260  1.00  0.00     0.015 C 
HETATM   11  C13 UNL     1       0.631  -0.379  -0.018  1.00  0.00    -0.005 C 
HETATM   12  C14 UNL     1       0.759  -1.442   1.081  1.00  0.00     0.093 C 
HETATM   13  C15 UNL     1      -0.345  -2.424   1.005  1.00  0.00     0.137 C 
HETATM   14  O1  UNL     1      -0.112  -3.566   1.431  1.00  0.00    -0.297 OA
HETATM   15  C16 UNL     1      -1.703  -2.215   0.481  1.00  0.00     0.030 C 
HETATM   16  C17 UNL     1      -2.578  -1.871   1.627  1.00  0.00     0.024 C 
HETATM   17  C18 UNL     1      -2.224  -3.474  -0.167  1.00  0.00     0.024 C 
HETATM   18  C19 UNL     1      -1.580  -1.091  -0.578  1.00  0.00     0.132 C 
HETATM   19  C21 UNL     1      -0.860   0.014   0.008  1.00  0.00    -0.051 C 
ENDROOT
BRANCH   1  20
HETATM   20  C2  UNL     1      -2.272   2.158  -0.315  1.00  0.00     0.208 C 
HETATM   21  C1  UNL     1      -3.308   1.829   0.691  1.00  0.00     0.044 C 
BRANCH  20  22
HETATM   22  N1  UNL     1      -1.945   3.583   0.006  1.00  0.00    -0.072 N 
ATOM     23  H13 UNL     1      -2.746   4.214   0.017  1.00  0.00     0.275 HD
ATOM     24  H12 UNL     1      -1.671   3.752   0.974  1.00  0.00     0.275 HD
ATOM     25  H11 UNL     1      -1.232   3.810  -0.687  1.00  0.00     0.275 HD
ENDBRANCH  20  22
ENDBRANCH   1  20
BRANCH  18  26
HETATM   26  C20 UNL     1      -2.816  -0.989  -1.315  1.00  0.00     0.182 C 
HETATM   27  O2  UNL     1      -3.845  -1.616  -0.947  1.00  0.00    -0.647 OA
HETATM   28  O3  UNL     1      -3.005  -0.224  -2.460  1.00  0.00    -0.647 OA
ENDBRANCH  18  26
TORSDOF 3
