REMARK  10 active torsions:
REMARK  status: ('A' for Active; 'I' for Inactive)
REMARK    1  A    between atoms: C2_2  and  C3_3 
REMARK    2  A    between atoms: C3_3  and  O1_4 
REMARK    3  A    between atoms: C4_6  and  O2_7 
REMARK    4  A    between atoms: C6_10  and  O3_11 
REMARK    5  A    between atoms: O3_11  and  C7_12 
REMARK    6  A    between atoms: C7_12  and  C8_14 
REMARK    7  A    between atoms: C12_19  and  O6_20 
REMARK    8  A    between atoms: C15_24  and  C16_25 
REMARK    9  A    between atoms: C16_25  and  C17_26 
REMARK   10  A    between atoms: C17_26  and  O7_27 
ROOT
HETATM    1  C3  UNL     1      -0.607  -2.841  -0.563  1.00  0.00     0.109 C 
HETATM    2  C4  UNL     1       0.818  -2.741  -0.211  1.00  0.00     0.159 C 
HETATM    3  C5  UNL     1       1.609  -1.897  -1.148  1.00  0.00     0.070 C 
HETATM    4  C6  UNL     1       1.479  -0.451  -1.107  1.00  0.00     0.164 C 
HETATM    5  C12 UNL     1       0.185   0.197  -0.883  1.00  0.00     0.161 C 
HETATM    6  C13 UNL     1      -0.842  -0.377  -0.000  1.00  0.00     0.018 C 
HETATM    7  C14 UNL     1      -0.323  -0.459   1.443  1.00  0.00     0.024 C 
HETATM    8  C15 UNL     1      -1.937   0.664   0.154  1.00  0.00    -0.070 C 
HETATM    9  C19 UNL     1      -3.161   0.334   0.499  1.00  0.00    -0.023 C 
HETATM   10  C20 UNL     1      -3.632  -1.053   0.773  1.00  0.00     0.028 C 
HETATM   11  C21 UNL     1      -2.561  -2.047   0.553  1.00  0.00     0.017 C 
HETATM   12  C22 UNL     1      -1.484  -1.634  -0.448  1.00  0.00     0.007 C 
HETATM   13  C23 UNL     1      -2.244  -1.374  -1.741  1.00  0.00     0.020 C 
ENDROOT
BRANCH   4  14
HETATM   14  O3  UNL     1       2.429   0.096  -0.206  1.00  0.00    -0.311 OA
BRANCH  14  15
HETATM   15  C7  UNL     1       3.499   0.871  -0.515  1.00  0.00     0.288 C 
HETATM   16  O4  UNL     1       3.682   1.144  -1.737  1.00  0.00    -0.262 OA
BRANCH  15  17
HETATM   17  C8  UNL     1       4.472   1.424   0.441  1.00  0.00     0.221 C 
HETATM   18  C9  UNL     1       3.753   2.419   1.325  1.00  0.00     0.044 C 
HETATM   19  C10 UNL     1       4.895   3.279   1.818  1.00  0.00     0.029 C 
HETATM   20  C11 UNL     1       6.071   2.754   1.000  1.00  0.00     0.169 C 
HETATM   21  O5  UNL     1       5.458   2.179  -0.138  1.00  0.00    -0.376 OA
ENDBRANCH  15  17
ENDBRANCH  14  15
ENDBRANCH   4  14
BRANCH   5  22
HETATM   22  O6  UNL     1      -0.318   0.392  -2.208  1.00  0.00    -0.392 OA
ATOM     23  H6  UNL     1      -1.157   0.812  -2.063  1.00  0.00     0.210 HD
ENDBRANCH   5  22
BRANCH   2  24
HETATM   24  O2  UNL     1       1.331  -4.061  -0.482  1.00  0.00    -0.392 OA
ATOM     25  H2  UNL     1       2.251  -3.996  -0.255  1.00  0.00     0.210 HD
ENDBRANCH   2  24
BRANCH   1  26
HETATM   26  C2  UNL     1      -1.168  -4.080   0.043  1.00  0.00     0.004 C 
HETATM   27  C1  UNL     1      -0.717  -4.671   1.139  1.00  0.00     0.010 C 
ENDBRANCH   1  26
BRANCH   1  28
HETATM   28  O1  UNL     1      -0.584  -3.174  -1.956  1.00  0.00    -0.382 OA
ATOM     29  H1  UNL     1      -0.226  -2.383  -2.343  1.00  0.00     0.211 HD
ENDBRANCH   1  28
BRANCH   8  30
HETATM   30  C16 UNL     1      -1.611   2.085  -0.070  1.00  0.00     0.061 C 
BRANCH  30  31
HETATM   31  C17 UNL     1      -2.720   3.066   0.091  1.00  0.00     0.171 C 
BRANCH  31  32
HETATM   32  O7  UNL     1      -3.771   2.903  -0.810  1.00  0.00    -0.396 OA
HETATM   33  C18 UNL     1      -4.748   3.858  -0.594  1.00  0.00     0.201 C 
ENDBRANCH  31  32
ENDBRANCH  30  31
ENDBRANCH   8  30
TORSDOF 10
