REMARK  5 active torsions:
REMARK  status: ('A' for Active; 'I' for Inactive)
REMARK    1  A    between atoms: C2_2  and  C4_4 
REMARK    2  A    between atoms: C4_4  and  O1_5 
REMARK    3  A    between atoms: C4_4  and  C17_24 
REMARK    4  A    between atoms: O1_5  and  N1_6 
REMARK    5  A    between atoms: C16_21  and  O3_22 
ROOT
HETATM    1  N1  UNL     1      -1.477  -1.325  -0.322  1.00  0.00    -0.271 N 
ATOM      2  H1  UNL     1      -1.506  -2.338  -0.206  1.00  0.00     0.193 HD
HETATM    3  C5  UNL     1      -0.323  -0.782  -0.248  1.00  0.00     0.043 C 
HETATM    4  C6  UNL     1      -0.032   0.666  -0.385  1.00  0.00     0.037 C 
HETATM    5  C7  UNL     1      -0.873   1.365  -1.387  1.00  0.00     0.016 C 
HETATM    6  C8  UNL     1       1.430   0.610  -0.743  1.00  0.00     0.011 C 
HETATM    7  C9  UNL     1       2.209   1.858  -0.445  1.00  0.00     0.071 C 
HETATM    8  C10 UNL     1       3.635   1.473  -0.705  1.00  0.00     0.054 C 
HETATM    9  C11 UNL     1       4.529   2.383  -1.005  1.00  0.00     0.088 C 
HETATM   10 BR1  UNL     1       6.327   1.860  -1.329  1.00  0.00    -0.061 Br
HETATM   11  O2  UNL     1       3.977   0.149  -0.622  1.00  0.00    -0.344 OA
HETATM   12  C12 UNL     1       3.317  -0.703   0.291  1.00  0.00     0.067 C 
HETATM   13  C13 UNL     1       3.656  -2.154   0.064  1.00  0.00     0.047 C 
HETATM   14  C14 UNL     1       3.895  -0.347   1.669  1.00  0.00     0.047 C 
HETATM   15  C15 UNL     1       1.881  -0.406   0.319  1.00  0.00     0.059 C 
HETATM   16  C16 UNL     1       0.938  -1.533  -0.007  1.00  0.00     0.173 C 
ENDROOT
BRANCH   1  17
HETATM   17  O1  UNL     1      -2.663  -0.717  -0.536  1.00  0.00    -0.262 OA
BRANCH  17  18
HETATM   18  C4  UNL     1      -3.843  -1.029   0.183  1.00  0.00     0.287 C 
BRANCH  18  19
HETATM   19  C2  UNL     1      -4.331   0.203   0.833  1.00  0.00    -0.053 C 
HETATM   20  C1  UNL     1      -4.472   0.247   2.145  1.00  0.00     0.017 C 
HETATM   21  C3  UNL     1      -4.666   1.399   0.015  1.00  0.00     0.045 C 
ENDBRANCH  18  19
BRANCH  18  22
HETATM   22  C17 UNL     1      -4.901  -1.538  -0.801  1.00  0.00     0.419 C 
HETATM   23  F1  UNL     1      -4.397  -2.696  -1.387  1.00  0.00    -0.168 F 
HETATM   24  F2  UNL     1      -5.117  -0.603  -1.767  1.00  0.00    -0.168 F 
HETATM   25  F3  UNL     1      -6.051  -1.888  -0.153  1.00  0.00    -0.168 F 
ENDBRANCH  18  22
ENDBRANCH  17  18
ENDBRANCH   1  17
BRANCH  16  26
HETATM   26  O3  UNL     1       1.356  -2.063  -1.240  1.00  0.00    -0.389 OA
ATOM     27  H3  UNL     1       2.161  -2.543  -1.086  1.00  0.00     0.210 HD
ENDBRANCH  16  26
TORSDOF 5
