REMARK  5 active torsions:
REMARK  status: ('A' for Active; 'I' for Inactive)
REMARK    1  A    between atoms: N1_1  and  S1_4 
REMARK    2  A    between atoms: S1_4  and  C1_7 
REMARK    3  A    between atoms: C4_10  and  C5_11 
REMARK    4  A    between atoms: C8_14  and  C9_15 
REMARK    5  A    between atoms: C13_23  and  N4_24 
ROOT
HETATM    1  C5  UNL     1      -0.239  -0.062   0.191  1.00  0.00     0.007 A 
HETATM    2  C6  UNL     1      -0.851   1.172   0.441  1.00  0.00     0.016 A 
HETATM    3  C7  UNL     1      -2.203   1.363   0.462  1.00  0.00     0.015 A 
HETATM    4  C8  UNL     1      -3.034   0.286   0.226  1.00  0.00    -0.006 A 
HETATM    5  C12 UNL     1      -2.463  -0.935  -0.021  1.00  0.00     0.050 A 
HETATM    6  C13 UNL     1      -1.068  -1.135  -0.043  1.00  0.00     0.114 A 
ENDROOT
BRANCH   1   7
HETATM    7  C4  UNL     1       1.218  -0.115   0.152  1.00  0.00    -0.023 A 
HETATM    8  C3  UNL     1       2.014   0.313   1.200  1.00  0.00     0.014 A 
HETATM    9  C2  UNL     1       3.389   0.293   1.143  1.00  0.00     0.026 A 
HETATM   10  C1  UNL     1       4.022  -0.163   0.019  1.00  0.00     0.079 A 
HETATM   11  C15 UNL     1       3.263  -0.594  -1.035  1.00  0.00     0.026 A 
HETATM   12  C14 UNL     1       1.881  -0.567  -0.961  1.00  0.00     0.014 A 
BRANCH  10  13
HETATM   13  S1  UNL     1       5.764  -0.233  -0.159  1.00  0.00     0.256 S 
HETATM   14  O1  UNL     1       6.134  -1.325  -1.150  1.00  0.00    -0.201 OA
HETATM   15  O2  UNL     1       6.367  -0.533   1.163  1.00  0.00    -0.201 OA
BRANCH  13  16
HETATM   16  N1  UNL     1       6.292   1.258  -0.826  1.00  0.00    -0.324 N 
ATOM     17  H12 UNL     1       6.765   1.374  -1.722  1.00  0.00     0.169 HD
ATOM     18  H11 UNL     1       6.044   1.991  -0.161  1.00  0.00     0.169 HD
ENDBRANCH  13  16
ENDBRANCH  10  13
ENDBRANCH   1   7
BRANCH   6  19
HETATM   19  N4  UNL     1      -0.578  -2.436  -0.293  1.00  0.00    -0.115 N 
HETATM   20  O3  UNL     1       0.445  -2.873   0.234  1.00  0.00    -0.532 OA
HETATM   21  O4  UNL     1      -1.289  -3.253  -1.133  1.00  0.00    -0.532 OA
ENDBRANCH   6  19
BRANCH   4  22
HETATM   22  C9  UNL     1      -4.476   0.489   0.250  1.00  0.00     0.059 A 
HETATM   23  C10 UNL     1      -5.450  -0.475   0.031  1.00  0.00     0.050 A 
HETATM   24  C11 UNL     1      -6.674   0.147   0.146  1.00  0.00     0.109 A 
HETATM   25  N2  UNL     1      -6.440   1.448   0.426  1.00  0.00    -0.311 N 
HETATM   26  N3  UNL     1      -5.149   1.628   0.483  1.00  0.00    -0.300 N 
ATOM     27  H2  UNL     1      -7.150   2.166   0.568  1.00  0.00     0.186 HD
ATOM     28  H3  UNL     1      -4.705   2.525   0.680  1.00  0.00     0.187 HD
ENDBRANCH   4  22
TORSDOF 5
