REMARK  4 active torsions:
REMARK  status: ('A' for Active; 'I' for Inactive)
REMARK    1  A    between atoms: C9_12  and  N2_13 
REMARK    2  A    between atoms: N2_13  and  S1_15 
REMARK    3  A    between atoms: S1_15  and  C10_18 
REMARK    4  A    between atoms: C14_22  and  N3_23 
ROOT
HETATM    1  N2  UNL     1       0.395  -2.692   0.455  1.00  0.00    -0.277 N 
ATOM      2  H2  UNL     1       0.426  -3.677   0.193  1.00  0.00     0.179 HD
ENDROOT
BRANCH   1   3
HETATM    3  C9  UNL     1       1.293  -1.790  -0.146  1.00  0.00     0.093 C 
HETATM    4  C1  UNL     1       1.623  -2.003  -1.492  1.00  0.00     0.199 C 
HETATM    5  O1  UNL     1       1.348  -3.167  -1.868  1.00  0.00    -0.286 OA
HETATM    6  C2  UNL     1       2.186  -1.120  -2.397  1.00  0.00     0.059 C 
HETATM    7  C3  UNL     1       2.443   0.222  -2.208  1.00  0.00     0.034 C 
HETATM    8  C4  UNL     1       2.431   0.972  -1.036  1.00  0.00     0.042 A 
HETATM    9  N1  UNL     1       2.700   2.283  -0.942  1.00  0.00    -0.365 N 
HETATM   10  C7  UNL     1       2.146   0.536   0.251  1.00  0.00    -0.006 A 
HETATM   11  C5  UNL     1       2.608   2.730   0.322  1.00  0.00     0.089 A 
ATOM     12  H1  UNL     1       2.946   2.872  -1.738  1.00  0.00     0.165 HD
HETATM   13  C6  UNL     1       2.255   1.622   1.090  1.00  0.00     0.030 A 
HETATM   14  C8  UNL     1       1.810  -0.769   0.616  1.00  0.00     0.048 C 
ENDBRANCH   1   3
BRANCH   1  15
HETATM   15  S1  UNL     1      -0.746  -2.170   1.614  1.00  0.00     0.263 S 
HETATM   16  O2  UNL     1      -1.547  -3.365   2.144  1.00  0.00    -0.200 OA
HETATM   17  O3  UNL     1      -0.027  -1.525   2.756  1.00  0.00    -0.200 OA
BRANCH  15  18
HETATM   18  C10 UNL     1      -1.862  -0.995   0.931  1.00  0.00     0.082 A 
HETATM   19  C11 UNL     1      -2.990  -1.460   0.279  1.00  0.00     0.025 A 
HETATM   20  C12 UNL     1      -3.896  -0.575  -0.267  1.00  0.00     0.004 A 
HETATM   21  C13 UNL     1      -3.654   0.779  -0.149  1.00  0.00     0.036 A 
HETATM   22  C14 UNL     1      -2.546   1.282   0.490  1.00  0.00     0.104 A 
HETATM   23  C15 UNL     1      -1.658   0.345   1.027  1.00  0.00     0.061 A 
BRANCH  22  24
HETATM   24  N3  UNL     1      -2.297   2.676   0.612  1.00  0.00    -0.116 N 
HETATM   25  O4  UNL     1      -3.097   3.487   0.129  1.00  0.00    -0.532 OA
HETATM   26  O5  UNL     1      -1.187   3.156   1.253  1.00  0.00    -0.532 OA
ENDBRANCH  22  24
ENDBRANCH  15  18
ENDBRANCH   1  15
TORSDOF 4
