REMARK  4 active torsions:
REMARK  status: ('A' for Active; 'I' for Inactive)
REMARK    1  A    between atoms: C2_3  and  C3_4 
REMARK    2  A    between atoms: C3_4  and  C4_5 
REMARK    3  A    between atoms: C14_17  and  C15_18 
REMARK    4  A    between atoms: C15_18  and  N3_19 
ROOT
HETATM    1  C1  UNL     1       1.010   0.347  -2.355  1.00  0.00     0.156 C 
HETATM    2  N1  UNL     1       0.629  -0.201  -1.099  1.00  0.00    -0.354 N 
HETATM    3  C2  UNL     1       1.448  -1.045  -0.461  1.00  0.00     0.019 A 
HETATM    4  C10 UNL     1       0.980  -1.533   0.765  1.00  0.00     0.081 A 
HETATM    5  C11 UNL     1      -0.231  -1.184   1.298  1.00  0.00     0.186 A 
HETATM    6  O1  UNL     1      -0.624  -1.639   2.401  1.00  0.00    -0.287 OA
HETATM    7  C12 UNL     1      -1.041  -0.311   0.605  1.00  0.00     0.041 A 
HETATM    8  C13 UNL     1      -2.255   0.043   1.131  1.00  0.00     0.026 A 
HETATM    9  C14 UNL     1      -3.058   0.908   0.444  1.00  0.00    -0.039 A 
HETATM   10  C19 UNL     1      -2.644   1.415  -0.764  1.00  0.00     0.011 A 
HETATM   11  C20 UNL     1      -1.406   1.041  -1.280  1.00  0.00     0.031 A 
HETATM   12  C21 UNL     1      -0.576   0.165  -0.601  1.00  0.00     0.048 A 
ENDROOT
BRANCH   3  13
HETATM   13  C3  UNL     1       2.767  -1.493  -0.918  1.00  0.00     0.095 C 
BRANCH  13  14
HETATM   14  C4  UNL     1       3.899  -0.691  -0.382  1.00  0.00    -0.052 A 
HETATM   15  C5  UNL     1       4.422  -1.026   0.865  1.00  0.00     0.009 A 
HETATM   16  C6  UNL     1       5.472  -0.324   1.409  1.00  0.00     0.027 A 
HETATM   17  C7  UNL     1       6.062   0.741   0.760  1.00  0.00     0.046 A 
HETATM   18  N2  UNL     1       7.145   1.456   1.334  1.00  0.00    -0.102 NA
HETATM   19  C8  UNL     1       5.535   1.062  -0.474  1.00  0.00     0.027 A 
HETATM   20  C9  UNL     1       4.483   0.370  -1.036  1.00  0.00     0.009 A 
ENDBRANCH  13  14
ENDBRANCH   3  13
BRANCH   9  21
HETATM   21  C15 UNL     1      -4.373   1.301   0.999  1.00  0.00     0.171 C 
BRANCH  21  22
HETATM   22  N3  UNL     1      -5.386   0.353   0.521  1.00  0.00    -0.304 N 
HETATM   23  C16 UNL     1      -5.764  -0.791   1.121  1.00  0.00     0.113 A 
HETATM   24  C17 UNL     1      -6.750  -1.393   0.339  1.00  0.00     0.110 A 
HETATM   25  N4  UNL     1      -6.953  -0.607  -0.718  1.00  0.00    -0.317 N 
HETATM   26  C18 UNL     1      -6.124   0.447  -0.599  1.00  0.00     0.326 A 
ATOM     27  H4  UNL     1      -7.614  -0.773  -1.477  1.00  0.00     0.170 HD
HETATM   28  O2  UNL     1      -6.085   1.371  -1.455  1.00  0.00    -0.246 OA
ENDBRANCH  21  22
ENDBRANCH   9  21
TORSDOF 4
