REMARK  8 active torsions:
REMARK  status: ('A' for Active; 'I' for Inactive)
REMARK    1  A    between atoms: C2_2  and  O1_5 
REMARK    2  A    between atoms: O1_5  and  C3_6 
REMARK    3  A    between atoms: C6_9  and  N1_10 
REMARK    4  A    between atoms: C7_11  and  S1_12 
REMARK    5  A    between atoms: S1_12  and  C8_13 
REMARK    6  A    between atoms: C8_13  and  C9_14 
REMARK       I    between atoms: C9_14  and  N2_16 
REMARK    7  A    between atoms: N2_16  and  C10_18 
REMARK    8  A    between atoms: C10_18  and  C11_19 
ROOT
HETATM    1  N1  UNL     1       1.338   1.261   1.316  1.00  0.00    -0.260 N 
HETATM    2  C7  UNL     1       0.352   0.523   1.860  1.00  0.00     0.174 A 
HETATM    3  N3  UNL     1      -0.491   1.414   2.423  1.00  0.00    -0.236 N 
ATOM      4  H3  UNL     1      -1.348   1.181   2.924  1.00  0.00     0.197 HD
HETATM    5  O4  UNL     1      -0.039   2.614   2.227  1.00  0.00    -0.205 OA
HETATM    6  C15 UNL     1       1.068   2.578   1.561  1.00  0.00     0.248 A 
HETATM    7  S2  UNL     1       1.990   3.844   1.089  1.00  0.00    -0.030 SA
ENDROOT
BRANCH   2   8
HETATM    8  S1  UNL     1       0.155  -1.232   1.840  1.00  0.00    -0.082 SA
BRANCH   8   9
HETATM    9  C8  UNL     1      -0.840  -1.782   0.415  1.00  0.00     0.185 C 
BRANCH   9  10
HETATM   10  C9  UNL     1      -2.218  -1.233   0.661  1.00  0.00     0.227 C 
HETATM   11  O2  UNL     1      -2.981  -1.855   1.480  1.00  0.00    -0.273 OA
HETATM   12  N2  UNL     1      -2.618  -0.076   0.001  1.00  0.00    -0.358 N 
ATOM     13  H2  UNL     1      -1.965   0.367  -0.645  1.00  0.00     0.162 HD
BRANCH  12  14
HETATM   14  C10 UNL     1      -3.917   0.525   0.191  1.00  0.00     0.154 C 
BRANCH  14  15
HETATM   15  C11 UNL     1      -5.033  -0.400  -0.162  1.00  0.00     0.139 C 
HETATM   16  C12 UNL     1      -6.326   0.430  -0.113  1.00  0.00     0.035 C 
HETATM   17  C13 UNL     1      -7.249  -0.385  -0.985  1.00  0.00     0.029 C 
HETATM   18  C14 UNL     1      -6.302  -1.375  -1.627  1.00  0.00     0.168 C 
HETATM   19  O3  UNL     1      -5.018  -0.826  -1.471  1.00  0.00    -0.384 OA
ENDBRANCH  14  15
ENDBRANCH  12  14
ENDBRANCH   9  10
ENDBRANCH   8   9
ENDBRANCH   2   8
BRANCH   1  20
HETATM   20  C6  UNL     1       2.473   0.732   0.630  1.00  0.00     0.044 A 
HETATM   21  C5  UNL     1       2.778   1.004  -0.677  1.00  0.00     0.033 A 
HETATM   22  C4  UNL     1       3.901   0.478  -1.302  1.00  0.00     0.039 A 
HETATM   23  C3  UNL     1       4.780  -0.361  -0.622  1.00  0.00     0.075 A 
HETATM   24  C17 UNL     1       4.471  -0.635   0.692  1.00  0.00     0.039 A 
HETATM   25  C16 UNL     1       3.358  -0.114   1.312  1.00  0.00     0.033 A 
BRANCH  23  26
HETATM   26  O1  UNL     1       5.905  -0.883  -1.256  1.00  0.00    -0.284 OA
BRANCH  26  27
HETATM   27  C2  UNL     1       7.142  -0.216  -1.271  1.00  0.00     0.355 C 
HETATM   28  C1  UNL     1       7.749   0.049   0.065  1.00  0.00     0.126 C 
HETATM   29  F1  UNL     1       8.038  -0.854  -2.105  1.00  0.00    -0.176 F 
HETATM   30  F2  UNL     1       6.898   1.039  -1.856  1.00  0.00    -0.176 F 
ENDBRANCH  26  27
ENDBRANCH  23  26
ENDBRANCH   1  20
TORSDOF 8
