REMARK  5 active torsions:
REMARK  status: ('A' for Active; 'I' for Inactive)
REMARK    1  A    between atoms: C1_4  and  N2_5 
REMARK    2  A    between atoms: C1_4  and  C8_13 
REMARK    3  A    between atoms: N2_5  and  C2_7 
REMARK    4  A    between atoms: C10_17  and  C11_18 
REMARK    5  A    between atoms: C16_24  and  O1_25 
ROOT
HETATM    1  C8  UNL     1       0.541  -1.157  -0.306  1.00  0.00     0.057 A 
HETATM    2  C9  UNL     1       1.111  -0.331   0.652  1.00  0.00     0.106 A 
HETATM    3  N3  UNL     1       2.410   0.032   0.654  1.00  0.00    -0.366 N 
ATOM      4  H3  UNL     1       2.779   0.634   1.390  1.00  0.00     0.165 HD
HETATM    5  C10 UNL     1       3.228  -0.423  -0.352  1.00  0.00     0.038 A 
HETATM    6  C15 UNL     1       2.688  -1.235  -1.318  1.00  0.00     0.091 A 
HETATM    7 CL1  UNL     1       3.718  -1.880  -2.612  1.00  0.00    -0.079 Cl
HETATM    8  C16 UNL     1       1.329  -1.646  -1.347  1.00  0.00     0.104 A 
ENDROOT
BRANCH   1   9
HETATM    9  C1  UNL     1      -0.825  -1.594  -0.159  1.00  0.00     0.109 C 
HETATM   10  N1  UNL     1      -1.308  -2.524  -0.953  1.00  0.00    -0.385 N 
ATOM     11  H12 UNL     1      -2.274  -2.833  -0.849  1.00  0.00     0.157 HD
ATOM     12  H11 UNL     1      -0.676  -2.881  -1.670  1.00  0.00     0.157 HD
BRANCH   9  13
HETATM   13  N2  UNL     1      -1.695  -1.103   0.828  1.00  0.00    -0.371 N 
ATOM     14  H2  UNL     1      -1.661  -1.544   1.747  1.00  0.00     0.161 HD
BRANCH  13  15
HETATM   15  C2  UNL     1      -2.629  -0.027   0.641  1.00  0.00     0.083 C 
HETATM   16  C3  UNL     1      -2.881   0.271  -0.840  1.00  0.00     0.025 C 
HETATM   17  C4  UNL     1      -3.665   1.571  -0.864  1.00  0.00     0.002 C 
HETATM   18  C5  UNL     1      -4.586   1.749   0.305  1.00  0.00     0.000 C 
HETATM   19  C6  UNL     1      -5.094   0.406   0.822  1.00  0.00     0.002 C 
HETATM   20  C7  UNL     1      -3.998  -0.552   1.112  1.00  0.00     0.025 C 
ENDBRANCH  13  15
ENDBRANCH   9  13
ENDBRANCH   1   9
BRANCH   8  21
HETATM   21  O1  UNL     1       0.957  -2.453  -2.350  1.00  0.00    -0.358 OA
ATOM     22  H1  UNL     1       1.494  -2.786  -3.059  1.00  0.00     0.217 HD
ENDBRANCH   8  21
BRANCH   5  23
HETATM   23  C11 UNL     1       4.579   0.078  -0.496  1.00  0.00     0.037 C 
HETATM   24  C12 UNL     1       5.472   0.149   0.734  1.00  0.00     0.011 C 
HETATM   25  C13 UNL     1       5.962   1.501   0.167  1.00  0.00     0.001 C 
HETATM   26  C14 UNL     1       4.467   1.660  -0.221  1.00  0.00     0.011 C 
ENDBRANCH   5  23
TORSDOF 5
