REMARK  5 active torsions:
REMARK  status: ('A' for Active; 'I' for Inactive)
REMARK    1  A    between atoms: C5_8  and  C6_9 
REMARK    2  A    between atoms: C8_11  and  C9_13 
REMARK       I    between atoms: C9_13  and  N2_15 
REMARK    3  A    between atoms: N2_15  and  C10_17 
REMARK    4  A    between atoms: C13_23  and  C14_24 
REMARK    5  A    between atoms: C20_33  and  C21_34 
ROOT
HETATM    1  C6  UNL     1      -2.098   0.552   1.874  1.00  0.00     0.047 A 
HETATM    2  C7  UNL     1      -1.199  -0.095   2.559  1.00  0.00     0.057 A 
HETATM    3  C8  UNL     1      -0.987  -1.553   2.359  1.00  0.00     0.208 A 
HETATM    4  F1  UNL     1      -1.323  -2.103   3.618  1.00  0.00    -0.228 F 
HETATM    5  C19 UNL     1      -1.775  -2.241   1.328  1.00  0.00     0.115 A 
HETATM    6  C20 UNL     1      -2.749  -1.398   0.628  1.00  0.00     0.050 A 
HETATM    7  N7  UNL     1      -2.871  -0.162   0.891  1.00  0.00    -0.358 N 
ATOM      8  H7  UNL     1      -3.569   0.365   0.366  1.00  0.00     0.165 HD
ENDROOT
BRANCH   3   9
HETATM    9  C9  UNL     1       0.492  -1.785   2.132  1.00  0.00     0.266 C 
HETATM   10  O2  UNL     1       1.061  -2.528   2.910  1.00  0.00    -0.269 OA
HETATM   11  N2  UNL     1       1.140  -1.152   1.060  1.00  0.00    -0.321 N 
ATOM     12  H2  UNL     1       0.602  -0.542   0.445  1.00  0.00     0.169 HD
BRANCH  11  13
HETATM   13  C10 UNL     1       2.524  -1.338   0.809  1.00  0.00     0.079 A 
HETATM   14  C11 UNL     1       3.391  -2.127   1.479  1.00  0.00     0.139 A 
HETATM   15  N3  UNL     1       4.588  -2.009   0.901  1.00  0.00    -0.308 N 
HETATM   16  N4  UNL     1       4.484  -1.158  -0.120  1.00  0.00    -0.296 N 
ATOM     17  H3  UNL     1       5.440  -2.489   1.192  1.00  0.00     0.186 HD
HETATM   18  C12 UNL     1       5.618  -0.821  -0.924  1.00  0.00     0.177 C 
HETATM   19  C13 UNL     1       3.246  -0.708  -0.235  1.00  0.00     0.085 A 
BRANCH  19  20
HETATM   20  C14 UNL     1       2.624   0.243  -1.162  1.00  0.00     0.175 C 
HETATM   21  C15 UNL     1       3.380   0.595  -2.375  1.00  0.00     0.044 C 
HETATM   22  C16 UNL     1       2.564   1.504  -3.266  1.00  0.00     0.084 C 
HETATM   23  C17 UNL     1       1.755   2.509  -2.502  1.00  0.00     0.264 C 
HETATM   24  F2  UNL     1       0.671   2.906  -3.284  1.00  0.00    -0.204 F 
HETATM   25  F3  UNL     1       2.507   3.650  -2.255  1.00  0.00    -0.204 F 
HETATM   26  C18 UNL     1       1.229   2.009  -1.206  1.00  0.00     0.247 C 
HETATM   27  O3  UNL     1       2.246   1.428  -0.468  1.00  0.00    -0.374 OA
ENDBRANCH  19  20
ENDBRANCH  11  13
ENDBRANCH   3   9
BRANCH   1  28
HETATM   28  C5  UNL     1      -2.331   1.977   2.041  1.00  0.00     0.046 A 
HETATM   29  C2  UNL     1      -1.663   2.935   2.740  1.00  0.00     0.043 A 
HETATM   30  C1  UNL     1      -0.416   2.806   3.503  1.00  0.00     0.071 C 
HETATM   31  N1  UNL     1      -2.358   4.100   2.586  1.00  0.00    -0.265 N 
HETATM   32  O1  UNL     1      -3.380   3.880   1.845  1.00  0.00    -0.242 OA
ATOM     33  H1  UNL     1      -2.105   5.000   2.995  1.00  0.00     0.194 HD
HETATM   34  C3  UNL     1      -3.425   2.625   1.481  1.00  0.00     0.087 A 
HETATM   35  C4  UNL     1      -4.469   2.025   0.625  1.00  0.00     0.080 C 
ENDBRANCH   1  28
BRANCH   6  36
HETATM   36  C21 UNL     1      -3.619  -2.026  -0.448  1.00  0.00     0.241 C 
HETATM   37  F4  UNL     1      -4.729  -1.324  -0.788  1.00  0.00    -0.214 F 
HETATM   38  C22 UNL     1      -2.833  -2.597  -1.611  1.00  0.00     0.200 C 
HETATM   39  N5  UNL     1      -3.888  -3.625  -1.562  1.00  0.00    -0.140 NA
HETATM   40  N6  UNL     1      -3.895  -3.396  -0.152  1.00  0.00    -0.097 NA
ENDBRANCH   6  36
TORSDOF 5
