REMARK  6 active torsions:
REMARK  status: ('A' for Active; 'I' for Inactive)
REMARK    1  A    between atoms: C2_2  and  C3_3 
REMARK    2  A    between atoms: C3_3  and  C4_4 
REMARK    3  A    between atoms: C4_4  and  C5_5 
REMARK    4  A    between atoms: C5_5  and  C6_6 
REMARK    5  A    between atoms: C16_17  and  C17_18 
REMARK    6  A    between atoms: C19_21  and  O3_22 
ROOT
HETATM    1  C6  UNL     1      -0.882   0.462   0.607  1.00  0.00    -0.004 C 
HETATM    2  C7  UNL     1      -0.718   1.864   1.147  1.00  0.00     0.022 C 
HETATM    3  C8  UNL     1       0.344   2.478   0.253  1.00  0.00     0.021 C 
HETATM    4  C9  UNL     1       1.096   3.588   0.917  1.00  0.00     0.024 C 
HETATM    5  C10 UNL     1      -0.358   2.920  -0.984  1.00  0.00     0.135 C 
HETATM    6  O1  UNL     1      -0.930   4.016  -1.016  1.00  0.00    -0.297 OA
HETATM    7  C11 UNL     1      -0.363   2.045  -2.162  1.00  0.00     0.080 C 
HETATM    8  C12 UNL     1      -0.330   0.566  -1.838  1.00  0.00     0.018 C 
HETATM    9  C13 UNL     1       0.129   0.264  -0.461  1.00  0.00    -0.024 C 
HETATM   10  C14 UNL     1       1.210   1.308  -0.129  1.00  0.00     0.011 C 
HETATM   11  C15 UNL     1       1.974   0.735   1.022  1.00  0.00     0.016 C 
HETATM   12  C16 UNL     1       1.837  -0.747   0.850  1.00  0.00     0.029 C 
HETATM   13  C21 UNL     1       0.908  -1.009  -0.300  1.00  0.00    -0.032 C 
HETATM   14  C22 UNL     1       1.599  -1.447  -1.568  1.00  0.00     0.016 C 
HETATM   15  C23 UNL     1      -0.003  -2.195   0.061  1.00  0.00     0.016 C 
ENDROOT
BRANCH  12  16
HETATM   16  C17 UNL     1       3.127  -1.454   0.772  1.00  0.00    -0.026 A 
HETATM   17  C18 UNL     1       4.173  -1.177  -0.059  1.00  0.00     0.152 A 
HETATM   18  O2  UNL     1       5.117  -2.035   0.186  1.00  0.00    -0.300 OA
HETATM   19  C19 UNL     1       4.772  -2.873   1.133  1.00  0.00     0.183 A 
HETATM   20  C20 UNL     1       3.500  -2.538   1.540  1.00  0.00     0.073 A 
BRANCH  19  21
HETATM   21  O3  UNL     1       5.586  -3.893   1.598  1.00  0.00    -0.341 OA
ATOM     22  H3  UNL     1       5.336  -4.500   2.284  1.00  0.00     0.220 HD
ENDBRANCH  19  21
ENDBRANCH  12  16
BRANCH   1  23
HETATM   23  C5  UNL     1      -2.300   0.242   0.190  1.00  0.00     0.006 C 
BRANCH  23  24
HETATM   24  C4  UNL     1      -3.231   0.418   1.370  1.00  0.00     0.004 C 
BRANCH  24  25
HETATM   25  C3  UNL     1      -4.649   0.179   0.868  1.00  0.00     0.026 C 
BRANCH  25  26
HETATM   26  C2  UNL     1      -4.782  -1.200   0.313  1.00  0.00    -0.037 C 
HETATM   27  C1  UNL     1      -5.130  -1.412  -0.949  1.00  0.00     0.007 C 
ENDBRANCH  25  26
ENDBRANCH  24  25
ENDBRANCH  23  24
ENDBRANCH   1  23
TORSDOF 6
