REMARK  5 active torsions:
REMARK  status: ('A' for Active; 'I' for Inactive)
REMARK    1  A    between atoms: S1_2  and  N1_4 
REMARK    2  A    between atoms: S1_2  and  C13_18 
REMARK    3  A    between atoms: N1_4  and  C1_6 
REMARK    4  A    between atoms: C1_6  and  C2_7 
REMARK    5  A    between atoms: C2_7  and  C3_8 
ROOT
HETATM    1  C1  UNL     1       0.641   0.045   0.341  1.00  0.00     0.132 C 
ENDROOT
BRANCH   1   2
HETATM    2  N1  UNL     1       1.865   0.457  -0.251  1.00  0.00    -0.319 N 
ATOM      3  H1  UNL     1       2.043   1.376  -0.656  1.00  0.00     0.172 HD
BRANCH   2   4
HETATM    4  S1  UNL     1       3.012  -0.847  -0.179  1.00  0.00     0.230 S 
HETATM    5  O1  UNL     1       2.640  -1.754   0.960  1.00  0.00    -0.206 OA
HETATM    6  O2  UNL     1       2.752  -1.603  -1.511  1.00  0.00    -0.206 OA
BRANCH   4   7
HETATM    7  C13 UNL     1       4.618  -0.253  -0.037  1.00  0.00     0.129 C 
HETATM    8  C14 UNL     1       4.921  -0.078   1.393  1.00  0.00     0.022 C 
HETATM    9  C15 UNL     1       4.871   1.392   1.680  1.00  0.00     0.001 C 
HETATM   10  C16 UNL     1       4.790   2.119   0.370  1.00  0.00     0.001 C 
HETATM   11  C17 UNL     1       4.714   1.099  -0.726  1.00  0.00     0.022 C 
ENDBRANCH   4   7
ENDBRANCH   2   4
ENDBRANCH   1   2
BRANCH   1  12
HETATM   12  C2  UNL     1      -0.352   0.086  -0.817  1.00  0.00     0.030 C 
BRANCH  12  13
HETATM   13  C3  UNL     1      -1.726  -0.261  -0.490  1.00  0.00    -0.038 C 
HETATM   14  C4  UNL     1      -2.029  -1.699  -0.229  1.00  0.00     0.014 C 
HETATM   15  C5  UNL     1      -3.459  -1.878   0.222  1.00  0.00    -0.013 C 
HETATM   16  C6  UNL     1      -4.394  -1.282  -0.792  1.00  0.00     0.009 C 
HETATM   17  C10 UNL     1      -3.645  -1.179   1.538  1.00  0.00     0.009 C 
HETATM   18  C7  UNL     1      -4.102   0.174  -1.019  1.00  0.00    -0.013 C 
HETATM   19  C8  UNL     1      -4.299   0.899   0.284  1.00  0.00     0.009 C 
HETATM   20  C12 UNL     1      -2.692   0.312  -1.505  1.00  0.00     0.014 C 
HETATM   21  C9  UNL     1      -3.401   0.289   1.322  1.00  0.00    -0.013 C 
HETATM   22  C11 UNL     1      -1.969   0.448   0.866  1.00  0.00     0.014 C 
ENDBRANCH  12  13
ENDBRANCH   1  12
TORSDOF 5
