REMARK  7 active torsions:
REMARK  status: ('A' for Active; 'I' for Inactive)
REMARK    1  A    between atoms: C3_3  and  C4_4 
REMARK    2  A    between atoms: C4_4  and  C5_5 
REMARK    3  A    between atoms: C5_5  and  C6_6 
REMARK    4  A    between atoms: C6_6  and  C7_7 
REMARK    5  A    between atoms: C6_6  and  N2_33 
REMARK    6  A    between atoms: C24_24  and  O1_25 
REMARK    7  A    between atoms: C24_24  and  C25_27 
REMARK       I    between atoms: C25_27  and  N1_29 
ROOT
HETATM    1  C1  UNL     1      -5.739   4.395  -2.505  1.00  0.00     0.012 C 
HETATM    2  C2  UNL     1      -5.768   3.353  -1.916  1.00  0.00    -0.117 C 
HETATM    3  C3  UNL     1      -5.799   2.057  -1.175  1.00  0.00     0.097 C 
ENDROOT
BRANCH   3   4
HETATM    4  C4  UNL     1      -5.174   2.288   0.165  1.00  0.00     0.041 C 
BRANCH   4   5
HETATM    5  C5  UNL     1      -5.128   1.196   1.112  1.00  0.00    -0.001 C 
BRANCH   5   6
HETATM    6  C6  UNL     1      -4.480  -0.109   0.915  1.00  0.00     0.007 C 
BRANCH   6   7
HETATM    7  C7  UNL     1      -3.015  -0.154   0.631  1.00  0.00     0.035 C 
HETATM    8  C8  UNL     1      -2.514   0.522  -0.589  1.00  0.00     0.011 C 
HETATM    9  C9  UNL     1      -1.026   0.119  -0.779  1.00  0.00     0.010 C 
HETATM   10  C10 UNL     1      -0.277   0.780   0.329  1.00  0.00    -0.036 C 
HETATM   11  C11 UNL     1      -0.625   2.253   0.360  1.00  0.00     0.016 C 
HETATM   12  C12 UNL     1      -0.717   0.179   1.614  1.00  0.00    -0.005 C 
HETATM   13  C16 UNL     1       1.195   0.631   0.156  1.00  0.00    -0.002 C 
HETATM   14  C13 UNL     1      -0.061   0.921   2.756  1.00  0.00     0.006 C 
HETATM   15  C28 UNL     1      -2.185   0.154   1.854  1.00  0.00     0.016 C 
HETATM   16  C14 UNL     1       1.414   1.050   2.612  1.00  0.00     0.006 C 
HETATM   17  C15 UNL     1       1.924   0.228   1.443  1.00  0.00    -0.005 C 
HETATM   18  C21 UNL     1       3.351   0.429   1.162  1.00  0.00     0.002 C 
HETATM   19  C19 UNL     1       3.830  -0.590   0.154  1.00  0.00     0.000 C 
HETATM   20  C22 UNL     1       4.321   0.215   2.277  1.00  0.00     0.009 C 
HETATM   21  C18 UNL     1       3.070  -0.355  -1.125  1.00  0.00     0.013 C 
HETATM   22  C20 UNL     1       3.708  -2.006   0.583  1.00  0.00     0.019 C 
HETATM   23  C24 UNL     1       5.270  -0.110   0.046  1.00  0.00     0.146 C 
HETATM   24  C17 UNL     1       1.580  -0.374  -0.891  1.00  0.00     0.007 C 
HETATM   25  C23 UNL     1       5.644   0.093   1.525  1.00  0.00     0.049 C 
BRANCH  23  26
HETATM   26  O1  UNL     1       5.260   1.128  -0.603  1.00  0.00    -0.379 OA
ATOM     27  H1  UNL     1       6.159   1.428  -0.670  1.00  0.00     0.211 HD
ENDBRANCH  23  26
BRANCH  23  28
HETATM   28  C25 UNL     1       6.173  -1.061  -0.582  1.00  0.00     0.254 C 
HETATM   29  O2  UNL     1       6.311  -2.189   0.010  1.00  0.00    -0.270 OA
HETATM   30  N1  UNL     1       6.898  -0.856  -1.766  1.00  0.00    -0.358 N 
HETATM   31  C26 UNL     1       7.767  -1.931  -2.256  1.00  0.00     0.152 C 
HETATM   32  C27 UNL     1       6.819   0.373  -2.519  1.00  0.00     0.152 C 
ENDBRANCH  23  28
ENDBRANCH   6   7
BRANCH   6  33
HETATM   33  N2  UNL     1      -5.238  -1.191   0.435  1.00  0.00    -0.384 N 
HETATM   34  C29 UNL     1      -5.868  -1.338  -0.752  1.00  0.00     0.123 C 
HETATM   35  C30 UNL     1      -6.168  -2.839  -0.916  1.00  0.00     0.021 C 
HETATM   36  C31 UNL     1      -5.063  -3.474  -0.097  1.00  0.00     0.021 C 
HETATM   37  C32 UNL     1      -4.960  -2.476   1.045  1.00  0.00     0.123 C 
ENDBRANCH   6  33
ENDBRANCH   5   6
ENDBRANCH   4   5
ENDBRANCH   3   4
TORSDOF 7
