REMARK  6 active torsions:
REMARK  status: ('A' for Active; 'I' for Inactive)
REMARK    1  A    between atoms: C4_4  and  N1_5 
REMARK    2  A    between atoms: N1_5  and  C5_7 
REMARK    3  A    between atoms: C7_11  and  N3_12 
REMARK    4  A    between atoms: N8_29  and  C13_30 
REMARK    5  A    between atoms: C13_30  and  C14_31 
REMARK    6  A    between atoms: C14_31  and  C15_32 
ROOT
HETATM    1  C1  UNL     1       0.368   0.820  -1.383  1.00  0.00     0.071 C 
HETATM    2  C2  UNL     1       0.559  -0.350  -0.483  1.00  0.00     0.041 A 
HETATM    3  C3  UNL     1      -0.493  -0.979   0.192  1.00  0.00     0.062 A 
HETATM    4  C4  UNL     1      -1.848  -0.772   0.252  1.00  0.00     0.121 A 
HETATM    5  N5  UNL     1      -2.608  -1.575   1.017  1.00  0.00    -0.332 N 
ATOM      6  H5  UNL     1      -3.614  -1.409   1.051  1.00  0.00     0.168 HD
HETATM    7  C9  UNL     1      -2.099  -2.586   1.738  1.00  0.00     0.139 A 
HETATM    8  C10 UNL     1      -2.947  -3.437   2.556  1.00  0.00     0.119 C 
HETATM    9  N6  UNL     1      -3.619  -4.119   3.207  1.00  0.00    -0.190 NA
HETATM   10  C11 UNL     1      -0.745  -2.835   1.712  1.00  0.00     0.100 A 
HETATM   11 CL2  UNL     1      -0.052  -4.131   2.630  1.00  0.00    -0.079 Cl
HETATM   12  C12 UNL     1       0.048  -2.000   0.916  1.00  0.00     0.089 A 
HETATM   13  N7  UNL     1       1.364  -1.996   0.695  1.00  0.00    -0.296 N 
ATOM     14  H7  UNL     1       2.036  -2.647   1.102  1.00  0.00     0.187 HD
HETATM   15  N8  UNL     1       1.656  -1.011  -0.138  1.00  0.00    -0.295 N 
ENDROOT
BRANCH   4  16
HETATM   16  N1  UNL     1      -2.385   0.176  -0.415  1.00  0.00    -0.338 N 
ATOM     17  H1  UNL     1      -1.769   0.759  -0.982  1.00  0.00     0.167 HD
BRANCH  16  18
HETATM   18  C5  UNL     1      -3.755   0.478  -0.429  1.00  0.00     0.089 A 
HETATM   19  C6  UNL     1      -4.204   1.524   0.363  1.00  0.00     0.139 A 
HETATM   20  N2  UNL     1      -5.517   1.817   0.352  1.00  0.00    -0.200 N 
HETATM   21  C7  UNL     1      -6.375   1.117  -0.405  1.00  0.00     0.676 A 
ATOM     22  H2  UNL     1      -5.865   2.583   0.928  1.00  0.00     0.183 HD
HETATM   23  N4  UNL     1      -5.920   0.101  -1.171  1.00  0.00    -0.179 N 
HETATM   24  C8  UNL     1      -4.622  -0.253  -1.214  1.00  0.00     0.147 A 
ATOM     25  H4  UNL     1      -6.588  -0.419  -1.740  1.00  0.00     0.185 HD
HETATM   26 CL1  UNL     1      -4.068  -1.585  -2.226  1.00  0.00    -0.061 Cl
BRANCH  21  27
HETATM   27  N3  UNL     1      -7.616   1.432  -0.382  1.00  0.00    -0.234 N 
ATOM     28  H32 UNL     1      -7.959   2.199   0.196  1.00  0.00     0.174 HD
ATOM     29  H31 UNL     1      -8.268   0.900  -0.958  1.00  0.00     0.174 HD
ENDBRANCH  21  27
ENDBRANCH  16  18
ENDBRANCH   4  16
BRANCH  15  30
HETATM   30  C13 UNL     1       2.991  -0.697  -0.608  1.00  0.00     0.149 C 
BRANCH  30  31
HETATM   31  C14 UNL     1       3.684   0.293   0.302  1.00  0.00     0.025 C 
BRANCH  31  32
HETATM   32  C15 UNL     1       5.071   0.594  -0.223  1.00  0.00    -0.021 C 
HETATM   33  C16 UNL     1       5.047   1.183  -1.601  1.00  0.00     0.009 C 
HETATM   34  C17 UNL     1       5.799   1.540   0.704  1.00  0.00     0.009 C 
ENDBRANCH  31  32
ENDBRANCH  30  31
ENDBRANCH  15  30
TORSDOF 6
