REMARK  4 active torsions:
REMARK  status: ('A' for Active; 'I' for Inactive)
REMARK    1  A    between atoms: C2_2  and  C3_3 
REMARK    2  A    between atoms: C6_8  and  C7_9 
REMARK    3  A    between atoms: C7_9  and  N3_13 
REMARK       I    between atoms: N3_13  and  C10_15 
REMARK       I    between atoms: C10_15  and  N4_17 
REMARK    4  A    between atoms: N4_17  and  C11_19 
ROOT
HETATM    1  C7  UNL     1       0.945  -2.167   0.567  1.00  0.00     0.171 C 
HETATM    2  C8  UNL     1       1.132  -2.903  -0.728  1.00  0.00     0.063 C 
HETATM    3  C9  UNL     1       0.856  -3.190   1.622  1.00  0.00     0.098 C 
HETATM    4  N2  UNL     1       0.792  -3.974   2.456  1.00  0.00    -0.194 NA
ENDROOT
BRANCH   1   5
HETATM    5  C6  UNL     1      -0.210  -1.254   0.593  1.00  0.00     0.125 A 
HETATM    6  C5  UNL     1      -1.508  -1.689   0.382  1.00  0.00     0.098 A 
HETATM    7  C4  UNL     1      -2.582  -0.800   0.412  1.00  0.00     0.050 A 
HETATM    8  N1  UNL     1      -1.784  -3.037   0.131  1.00  0.00    -0.098 NA
HETATM    9  S1  UNL     1      -4.267  -0.949   0.206  1.00  0.00    -0.090 SA
HETATM   10  C15 UNL     1      -2.410   0.530   0.650  1.00  0.00     0.081 A 
HETATM   11  C3  UNL     1      -4.714   0.683   0.427  1.00  0.00     0.006 A 
HETATM   12  C16 UNL     1      -3.524   1.308   0.658  1.00  0.00     0.064 A 
HETATM   13 CL1  UNL     1      -3.524   3.079   0.949  1.00  0.00    -0.082 Cl
HETATM   14  C14 UNL     1      -1.061   0.899   0.856  1.00  0.00     0.301 A 
HETATM   15  O2  UNL     1      -0.114   0.036   0.816  1.00  0.00    -0.273 OA
HETATM   16  O3  UNL     1      -0.764   2.097   1.085  1.00  0.00    -0.259 OA
BRANCH  11  17
HETATM   17  C2  UNL     1      -6.093   1.307   0.380  1.00  0.00     0.043 C 
HETATM   18  C1  UNL     1      -6.204   2.022  -0.942  1.00  0.00     0.010 C 
ENDBRANCH  11  17
ENDBRANCH   1   5
BRANCH   1  19
HETATM   19  N3  UNL     1       2.136  -1.382   0.825  1.00  0.00    -0.316 N 
HETATM   20  C10 UNL     1       2.599  -0.379  -0.065  1.00  0.00     0.318 C 
HETATM   21  O1  UNL     1       2.002  -0.104  -1.139  1.00  0.00    -0.247 OA
HETATM   22  N4  UNL     1       3.768   0.355   0.236  1.00  0.00    -0.339 N 
ATOM     23  H4  UNL     1       4.261   0.142   1.103  1.00  0.00     0.164 HD
ATOM     24  H3  UNL     1       2.662  -1.558   1.681  1.00  0.00     0.166 HD
BRANCH  22  25
HETATM   25  C11 UNL     1       4.304   1.390  -0.617  1.00  0.00     0.078 C 
HETATM   26  C12 UNL     1       4.357   2.718   0.099  1.00  0.00     0.032 C 
HETATM   27  C13 UNL     1       5.733   0.976  -0.968  1.00  0.00     0.032 C 
ENDBRANCH  22  25
ENDBRANCH   1  19
TORSDOF 4
