REMARK  11 active torsions:
REMARK  status: ('A' for Active; 'I' for Inactive)
REMARK    1  A    between atoms: C2_2  and  C3_3 
REMARK    2  A    between atoms: C3_3  and  C4_4 
REMARK    3  A    between atoms: C6_6  and  C7_7 
REMARK    4  A    between atoms: C7_7  and  C8_8 
REMARK    5  A    between atoms: C8_8  and  C9_9 
REMARK    6  A    between atoms: C9_9  and  C10_10 
REMARK    7  A    between atoms: C10_10  and  N1_11 
REMARK    8  A    between atoms: C11_17  and  N3_18 
REMARK    9  A    between atoms: N3_18  and  C12_20 
REMARK   10  A    between atoms: C12_20  and  C13_21 
REMARK   11  A    between atoms: C13_21  and  N4_22 
ROOT
HETATM    1  C4  UNL     1       0.261   3.068   0.725  1.00  0.00     0.032 A 
HETATM    2  C5  UNL     1       1.439   2.370   0.538  1.00  0.00     0.051 A 
HETATM    3  C6  UNL     1       1.463   1.014   0.344  1.00  0.00     0.028 A 
HETATM    4  N2  UNL     1       0.283   0.369   0.342  1.00  0.00    -0.196 N 
ATOM      5  H2  UNL     1       0.279  -0.641   0.199  1.00  0.00     0.184 HD
HETATM    6  C11 UNL     1      -0.901   1.004   0.522  1.00  0.00     0.678 A 
HETATM    7  N7  UNL     1      -0.880   2.356   0.711  1.00  0.00    -0.195 N 
ATOM      8  H7  UNL     1      -1.765   2.845   0.847  1.00  0.00     0.184 HD
ENDROOT
BRANCH   6   9
HETATM    9  N3  UNL     1      -2.023   0.365   0.516  1.00  0.00    -0.224 N 
ATOM     10  H3  UNL     1      -2.905   0.859   0.652  1.00  0.00     0.177 HD
BRANCH   9  11
HETATM   11  C12 UNL     1      -2.001  -1.050   0.315  1.00  0.00     0.157 C 
BRANCH  11  12
HETATM   12  C13 UNL     1      -3.355  -1.694   0.439  1.00  0.00     0.142 C 
BRANCH  12  13
HETATM   13  N4  UNL     1      -4.311  -1.195  -0.502  1.00  0.00    -0.365 N 
HETATM   14  C14 UNL     1      -5.400  -1.883  -0.676  1.00  0.00     0.197 C 
HETATM   15  N5  UNL     1      -5.677  -3.084   0.013  1.00  0.00    -0.067 NA
HETATM   16  N6  UNL     1      -6.336  -1.372  -1.615  1.00  0.00    -0.067 NA
ATOM     17  H4  UNL     1      -4.144  -0.331  -1.017  1.00  0.00     0.161 HD
ENDBRANCH  12  13
ENDBRANCH  11  12
ENDBRANCH   9  11
ENDBRANCH   6   9
BRANCH   3  18
HETATM   18  C7  UNL     1       2.742   0.284   0.145  1.00  0.00     0.057 C 
BRANCH  18  19
HETATM   19  C8  UNL     1       2.544  -1.181  -0.048  1.00  0.00     0.008 C 
BRANCH  19  20
HETATM   20  C9  UNL     1       3.890  -1.827  -0.241  1.00  0.00     0.027 C 
BRANCH  20  21
HETATM   21  C10 UNL     1       3.779  -3.322  -0.444  1.00  0.00     0.229 C 
BRANCH  21  22
HETATM   22  N1  UNL     1       5.104  -3.871  -0.621  1.00  0.00    -0.079 N 
ATOM     23  H13 UNL     1       5.617  -3.413  -1.375  1.00  0.00     0.274 HD
ATOM     24  H12 UNL     1       5.731  -3.628   0.146  1.00  0.00     0.274 HD
ATOM     25  H11 UNL     1       5.029  -4.879  -0.758  1.00  0.00     0.274 HD
ENDBRANCH  21  22
ENDBRANCH  20  21
ENDBRANCH  19  20
ENDBRANCH  18  19
ENDBRANCH   3  18
BRANCH   1  26
HETATM   26  C3  UNL     1       0.256   4.552   0.935  1.00  0.00     0.084 C 
BRANCH  26  27
HETATM   27  C2  UNL     1       0.153   5.295  -0.335  1.00  0.00    -0.031 C 
HETATM   28  C1  UNL     1       1.102   6.141  -0.704  1.00  0.00     0.007 C 
ENDBRANCH  26  27
ENDBRANCH   1  26
TORSDOF 11
