REMARK  11 active torsions:
REMARK  status: ('A' for Active; 'I' for Inactive)
REMARK    1  A    between atoms: O1_2  and  C2_3 
REMARK    2  A    between atoms: C2_3  and  C3_4 
REMARK    3  A    between atoms: C4_8  and  C5_9 
REMARK    4  A    between atoms: C5_9  and  C6_10 
REMARK    5  A    between atoms: C6_10  and  C7_11 
REMARK    6  A    between atoms: C7_11  and  C8_12 
REMARK    7  A    between atoms: C8_12  and  C9_13 
REMARK    8  A    between atoms: C9_13  and  C10_14 
REMARK    9  A    between atoms: C10_14  and  C11_15 
REMARK   10  A    between atoms: C11_15  and  N2_16 
REMARK   11  A    between atoms: N3_20  and  O2_21 
ROOT
HETATM    1  C3  UNL     1      -2.455  -0.326   0.308  1.00  0.00     0.352 C 
HETATM    2  N1  UNL     1      -1.076   0.147   0.003  1.00  0.00    -0.033 N 
ATOM      3  H11 UNL     1      -0.851   1.121  -0.199  1.00  0.00     0.281 HD
ATOM      4  H12 UNL     1      -0.588  -0.074  -0.865  1.00  0.00     0.281 HD
HETATM    5  C4  UNL     1      -0.766  -0.507   1.300  1.00  0.00     0.289 C 
HETATM    6  N3  UNL     1      -2.129   0.019   1.667  1.00  0.00    -0.133 NA
ENDROOT
BRANCH   5   7
HETATM    7  C5  UNL     1       0.337   0.116   2.072  1.00  0.00     0.051 C 
BRANCH   7   8
HETATM    8  C6  UNL     1       1.652   0.138   1.365  1.00  0.00     0.003 C 
BRANCH   8   9
HETATM    9  C7  UNL     1       2.151  -1.246   1.015  1.00  0.00     0.000 C 
BRANCH   9  10
HETATM   10  C8  UNL     1       3.472  -1.217   0.306  1.00  0.00     0.000 C 
BRANCH  10  11
HETATM   11  C9  UNL     1       3.443  -0.462  -0.980  1.00  0.00     0.002 C 
BRANCH  11  12
HETATM   12  C10 UNL     1       4.806  -0.493  -1.613  1.00  0.00     0.027 C 
BRANCH  12  13
HETATM   13  C11 UNL     1       5.872   0.126  -0.747  1.00  0.00     0.229 C 
BRANCH  13  14
HETATM   14  N2  UNL     1       5.590   1.519  -0.449  1.00  0.00    -0.079 N 
ATOM     15  H23 UNL     1       5.447   2.059  -1.303  1.00  0.00     0.274 HD
ATOM     16  H22 UNL     1       4.665   1.629  -0.033  1.00  0.00     0.274 HD
ATOM     17  H21 UNL     1       6.312   1.938   0.137  1.00  0.00     0.274 HD
ENDBRANCH  13  14
ENDBRANCH  12  13
ENDBRANCH  11  12
ENDBRANCH  10  11
ENDBRANCH   9  10
ENDBRANCH   8   9
ENDBRANCH   7   8
ENDBRANCH   5   7
BRANCH   6  18
HETATM   18  O2  UNL     1      -2.724  -0.678   2.629  1.00  0.00    -0.309 OA
ATOM     19  H2  UNL     1      -2.509  -0.450   3.526  1.00  0.00     0.237 HD
ENDBRANCH   6  18
BRANCH   1  20
HETATM   20  C2  UNL     1      -3.555   0.323  -0.405  1.00  0.00     0.269 C 
HETATM   21  C12 UNL     1      -3.354   0.020  -1.894  1.00  0.00     0.074 C 
HETATM   22  C13 UNL     1      -4.510  -0.296  -2.444  1.00  0.00     0.032 C 
HETATM   23  C14 UNL     1      -5.533  -0.222  -1.364  1.00  0.00     0.236 C 
HETATM   24  N4  UNL     1      -4.738  -0.549  -0.197  1.00  0.00    -0.039 N 
ATOM     25  H42 UNL     1      -4.534  -1.540  -0.069  1.00  0.00     0.281 HD
ATOM     26  H41 UNL     1      -5.211  -0.439   0.700  1.00  0.00     0.281 HD
BRANCH  20  27
HETATM   27  O1  UNL     1      -3.848   1.611  -0.305  1.00  0.00    -0.357 OA
HETATM   28  C1  UNL     1      -4.327   2.225   0.777  1.00  0.00     0.205 C 
ENDBRANCH  20  27
ENDBRANCH   1  20
TORSDOF 11
