REMARK  6 active torsions:
REMARK  status: ('A' for Active; 'I' for Inactive)
REMARK    1  A    between atoms: C2_2  and  C3_3 
REMARK       I    between atoms: C3_3  and  N1_5 
REMARK    2  A    between atoms: C4_7  and  C5_8 
REMARK    3  A    between atoms: C4_7  and  N2_20 
REMARK    4  A    between atoms: C5_8  and  C6_9 
REMARK    5  A    between atoms: C6_9  and  C7_10 
REMARK       I    between atoms: N2_20  and  C16_22 
REMARK       I    between atoms: C16_22  and  N3_24 
REMARK    6  A    between atoms: N3_24  and  C17_26 
ROOT
HETATM    1  C3  UNL     1       1.003   2.991  -2.564  1.00  0.00     0.245 C 
HETATM    2  O1  UNL     1       1.586   2.705  -3.633  1.00  0.00    -0.268 OA
HETATM    3  N1  UNL     1       0.352   1.972  -1.851  1.00  0.00    -0.313 N 
ATOM      4  H1  UNL     1      -0.666   1.923  -1.882  1.00  0.00     0.170 HD
HETATM    5  C4  UNL     1       1.009   1.080  -1.146  1.00  0.00     0.087 C 
ENDROOT
BRANCH   5   6
HETATM    6  C5  UNL     1       0.165   0.080  -0.460  1.00  0.00     0.077 C 
BRANCH   6   7
HETATM    7  C6  UNL     1      -1.296   0.373  -0.787  1.00  0.00     0.014 C 
BRANCH   7   8
HETATM    8  C7  UNL     1      -2.170  -0.641  -0.095  1.00  0.00     0.015 C 
HETATM    9  C8  UNL     1      -1.931  -0.517   1.383  1.00  0.00     0.173 C 
HETATM   10  O2  UNL     1      -2.907  -1.132   2.147  1.00  0.00    -0.385 OA
HETATM   11  C9  UNL     1      -4.198  -0.870   1.791  1.00  0.00     0.129 C 
HETATM   12  C10 UNL     1      -4.479   0.592   1.542  1.00  0.00     0.033 C 
HETATM   13  C13 UNL     1      -4.445  -1.454   0.403  1.00  0.00    -0.017 C 
HETATM   14  C11 UNL     1      -4.116   0.827   0.076  1.00  0.00     0.008 C 
HETATM   15  C12 UNL     1      -3.614  -0.501  -0.442  1.00  0.00     0.002 C 
HETATM   16  C14 UNL     1      -3.917  -2.863   0.337  1.00  0.00     0.018 C 
HETATM   17  C15 UNL     1      -5.897  -1.355   0.075  1.00  0.00     0.018 C 
ENDBRANCH   7   8
ENDBRANCH   6   7
ENDBRANCH   5   6
BRANCH   5  18
HETATM   18  N2  UNL     1       2.417   1.126  -1.087  1.00  0.00    -0.298 N 
HETATM   19  C16 UNL     1       3.161   0.175  -0.334  1.00  0.00     0.326 C 
HETATM   20  O3  UNL     1       2.540  -0.709   0.277  1.00  0.00    -0.247 OA
HETATM   21  N3  UNL     1       4.571   0.217  -0.271  1.00  0.00    -0.309 N 
ATOM     22  H3  UNL     1       5.054   0.947  -0.795  1.00  0.00     0.170 HD
ATOM     23  H2  UNL     1       2.914   1.858  -1.596  1.00  0.00     0.172 HD
BRANCH  21  24
HETATM   24  C17 UNL     1       5.342  -0.681   0.465  1.00  0.00     0.036 A 
HETATM   25  C18 UNL     1       6.689  -0.796   0.088  1.00  0.00     0.032 A 
HETATM   26  C19 UNL     1       7.592  -1.604   0.708  1.00  0.00     0.044 A 
HETATM   27  C20 UNL     1       7.185  -2.371   1.778  1.00  0.00     0.116 A 
HETATM   28  F1  UNL     1       8.082  -3.183   2.403  1.00  0.00    -0.206 F 
HETATM   29  C21 UNL     1       5.884  -2.295   2.185  1.00  0.00     0.044 A 
HETATM   30  C22 UNL     1       4.973  -1.455   1.531  1.00  0.00     0.032 A 
ENDBRANCH  21  24
ENDBRANCH   5  18
BRANCH   1  31
HETATM   31  C2  UNL     1       1.037   4.386  -2.116  1.00  0.00     0.064 C 
HETATM   32  C1  UNL     1       1.659   5.324  -2.810  1.00  0.00     0.017 C 
ENDBRANCH   1  31
TORSDOF 6
