REMARK  5 active torsions:
REMARK  status: ('A' for Active; 'I' for Inactive)
REMARK    1  A    between atoms: C1_2  and  C2_3 
REMARK       I    between atoms: C1_2  and  N2_24 
REMARK    2  A    between atoms: C2_3  and  C3_4 
REMARK    3  A    between atoms: C8_9  and  N1_10 
REMARK       I    between atoms: N1_10  and  C9_12 
REMARK    4  A    between atoms: C9_12  and  C10_14 
REMARK    5  A    between atoms: N2_24  and  C18_26 
ROOT
HETATM    1  C3  UNL     1      -0.856  -2.316   0.332  1.00  0.00     0.017 C 
HETATM    2  C4  UNL     1      -0.925  -3.437   1.370  1.00  0.00     0.007 C 
HETATM    3  C5  UNL     1      -0.422  -4.701   0.679  1.00  0.00     0.001 C 
HETATM    4  C6  UNL     1      -0.847  -4.746  -0.766  1.00  0.00     0.002 C 
HETATM    5  C7  UNL     1      -0.231  -3.635  -1.587  1.00  0.00     0.025 C 
HETATM    6  C8  UNL     1       0.287  -2.624  -0.551  1.00  0.00     0.089 C 
ENDROOT
BRANCH   6   7
HETATM    7  N1  UNL     1       0.968  -1.536  -1.167  1.00  0.00    -0.350 N 
HETATM    8  C9  UNL     1       2.324  -1.609  -1.588  1.00  0.00     0.277 C 
HETATM    9  O2  UNL     1       2.914  -2.721  -1.412  1.00  0.00    -0.265 OA
ATOM     10  H1  UNL     1       0.460  -0.664  -1.313  1.00  0.00     0.163 HD
BRANCH   8  11
HETATM   11  C10 UNL     1       3.074  -0.536  -2.198  1.00  0.00     0.165 A 
HETATM   12  O3  UNL     1       4.069  -0.688  -3.042  1.00  0.00    -0.307 OA
HETATM   13  C11 UNL     1       4.577   0.434  -3.437  1.00  0.00     0.062 A 
HETATM   14  C12 UNL     1       3.886   1.468  -2.821  1.00  0.00    -0.004 A 
HETATM   15  C17 UNL     1       5.680   0.828  -4.363  1.00  0.00     0.066 C 
HETATM   16  C13 UNL     1       2.934   0.845  -2.037  1.00  0.00     0.082 A 
HETATM   17  C14 UNL     1       4.287   2.872  -3.065  1.00  0.00     0.043 C 
HETATM   18 CL1  UNL     1       1.772   1.636  -1.003  1.00  0.00    -0.081 Cl
HETATM   19  C15 UNL     1       5.781   3.061  -3.186  1.00  0.00     0.005 C 
HETATM   20  C16 UNL     1       6.517   1.934  -3.815  1.00  0.00     0.007 C 
ENDBRANCH   8  11
ENDBRANCH   6   7
BRANCH   1  21
HETATM   21  C2  UNL     1      -0.894  -0.946   0.915  1.00  0.00     0.109 C 
BRANCH  21  22
HETATM   22  C1  UNL     1      -2.146  -0.682   1.664  1.00  0.00     0.218 C 
HETATM   23  O1  UNL     1      -3.026  -1.531   1.890  1.00  0.00    -0.274 OA
HETATM   24  N2  UNL     1      -2.413   0.634   2.184  1.00  0.00    -0.356 N 
ATOM     25  H2  UNL     1      -1.735   1.383   2.042  1.00  0.00     0.162 HD
BRANCH  24  26
HETATM   26  C18 UNL     1      -3.651   0.902   2.915  1.00  0.00     0.084 C 
HETATM   27  C19 UNL     1      -4.575   1.643   1.950  1.00  0.00     0.025 C 
HETATM   28  C20 UNL     1      -5.583   2.490   2.646  1.00  0.00     0.002 C 
HETATM   29  C21 UNL     1      -4.931   3.586   3.448  1.00  0.00     0.000 C 
HETATM   30  C22 UNL     1      -3.583   3.173   3.972  1.00  0.00     0.002 C 
HETATM   31  C23 UNL     1      -3.465   1.675   4.167  1.00  0.00     0.025 C 
ENDBRANCH  24  26
ENDBRANCH  21  22
ENDBRANCH   1  21
TORSDOF 5
