REMARK  3 active torsions:
REMARK  status: ('A' for Active; 'I' for Inactive)
REMARK    1  A    between atoms: O1_1  and  C1_3 
REMARK    2  A    between atoms: N1_8  and  C6_9 
REMARK    3  A    between atoms: C6_9  and  C7_10 
ROOT
HETATM    1  C1  UNL     1      -1.690  -0.136  -1.511  1.00  0.00     0.146 C 
HETATM    2  C2  UNL     1      -2.586   0.854  -0.847  1.00  0.00     0.033 C 
HETATM    3  C3  UNL     1      -3.549   0.100   0.040  1.00  0.00     0.004 C 
HETATM    4  C4  UNL     1      -2.736  -0.961   0.765  1.00  0.00     0.030 C 
HETATM    5  C5  UNL     1      -1.506  -0.327   1.278  1.00  0.00     0.273 C 
HETATM    6  N1  UNL     1      -0.328  -0.472   0.523  1.00  0.00     0.096 N 
HETATM    7  C11 UNL     1      -0.367  -0.314  -0.859  1.00  0.00     0.304 C 
ENDROOT
BRANCH   6   8
HETATM    8  C6  UNL     1       0.701   0.342   1.191  1.00  0.00     0.324 C 
BRANCH   8   9
HETATM    9  C7  UNL     1       1.988   0.269   0.487  1.00  0.00     0.014 C 
HETATM   10  N2  UNL     1       2.586   1.284  -0.001  1.00  0.00    -0.375 N 
HETATM   11  C8  UNL     1       3.796   0.935  -0.621  1.00  0.00     0.061 C 
ATOM     12  H2  UNL     1       2.227   2.237   0.053  1.00  0.00     0.164 HD
HETATM   13  C9  UNL     1       4.164  -0.422  -0.066  1.00  0.00     0.050 C 
HETATM   14  C10 UNL     1       2.766  -0.973   0.246  1.00  0.00     0.059 C 
ENDBRANCH   8   9
ENDBRANCH   6   8
BRANCH   1  15
HETATM   15  O1  UNL     1      -1.432   0.336  -2.821  1.00  0.00    -0.394 OA
ATOM     16  H1  UNL     1      -0.861  -0.295  -3.244  1.00  0.00     0.210 HD
ENDBRANCH   1  15
TORSDOF 3
