REMARK  8 active torsions:
REMARK  status: ('A' for Active; 'I' for Inactive)
REMARK    1  A    between atoms: C6_7  and  O1_8 
REMARK    2  A    between atoms: C6_7  and  C7_10 
REMARK    3  A    between atoms: C7_10  and  C8_11 
REMARK    4  A    between atoms: C8_11  and  C9_12 
REMARK    5  A    between atoms: C16_19  and  C17_20 
REMARK    6  A    between atoms: C17_20  and  O2_21 
REMARK    7  A    between atoms: C18_23  and  O3_24 
REMARK    8  A    between atoms: C19_26  and  O4_27 
ROOT
HETATM    1  C9  UNL     1      -0.286  -0.756   0.387  1.00  0.00    -0.052 C 
HETATM    2  C10 UNL     1      -0.644   0.512   0.508  1.00  0.00    -0.016 C 
HETATM    3  C11 UNL     1      -2.009   0.840   0.878  1.00  0.00     0.022 C 
HETATM    4  C12 UNL     1      -2.568   2.128   0.389  1.00  0.00     0.013 C 
HETATM    5  C13 UNL     1      -4.063   1.928   0.635  1.00  0.00    -0.017 C 
HETATM    6  C14 UNL     1      -4.912   2.595  -0.389  1.00  0.00     0.010 C 
HETATM    7  C15 UNL     1      -4.278   0.409   0.679  1.00  0.00     0.019 C 
HETATM    8  C16 UNL     1      -2.972  -0.164   0.235  1.00  0.00     0.017 C 
HETATM    9  C18 UNL     1      -2.635  -1.498   0.796  1.00  0.00     0.162 C 
HETATM   10  C19 UNL     1      -1.221  -1.892   0.613  1.00  0.00     0.176 C 
ENDROOT
BRANCH   1  11
HETATM   11  C8  UNL     1       1.110  -1.115   0.008  1.00  0.00     0.042 C 
BRANCH  11  12
HETATM   12  C7  UNL     1       1.973   0.109  -0.197  1.00  0.00     0.081 C 
BRANCH  12  13
HETATM   13  C6  UNL     1       3.363  -0.357  -0.578  1.00  0.00     0.282 C 
HETATM   14  C2  UNL     1       4.178   0.898  -0.770  1.00  0.00    -0.023 C 
HETATM   15  C1  UNL     1       4.240   1.642  -1.867  1.00  0.00     0.019 C 
HETATM   16  C3  UNL     1       4.875   1.096   0.523  1.00  0.00     0.069 C 
HETATM   17  C4  UNL     1       5.076  -0.321   0.998  1.00  0.00     0.281 C 
HETATM   18  N1  UNL     1       4.009  -1.116   0.442  1.00  0.00     0.124 N 
HETATM   19  C5  UNL     1       4.627  -2.277  -0.188  1.00  0.00     0.314 C 
BRANCH  13  20
HETATM   20  O1  UNL     1       3.359  -1.008  -1.810  1.00  0.00    -0.359 OA
ATOM     21  H1  UNL     1       2.846  -1.798  -1.689  1.00  0.00     0.213 HD
ENDBRANCH  13  20
ENDBRANCH  12  13
ENDBRANCH  11  12
ENDBRANCH   1  11
BRANCH  10  22
HETATM   22  O4  UNL     1      -0.765  -2.555   1.768  1.00  0.00    -0.389 OA
ATOM     23  H4  UNL     1      -1.362  -3.280   1.912  1.00  0.00     0.210 HD
ENDBRANCH  10  22
BRANCH   9  24
HETATM   24  O3  UNL     1      -3.465  -2.499   0.252  1.00  0.00    -0.392 OA
ATOM     25  H3  UNL     1      -3.250  -3.352   0.611  1.00  0.00     0.210 HD
ENDBRANCH   9  24
BRANCH   8  26
HETATM   26  C17 UNL     1      -2.889  -0.117  -1.273  1.00  0.00     0.177 C 
BRANCH  26  27
HETATM   27  O2  UNL     1      -3.761  -1.030  -1.862  1.00  0.00    -0.400 OA
ATOM     28  H2  UNL     1      -3.709  -1.000  -2.810  1.00  0.00     0.209 HD
ENDBRANCH  26  27
ENDBRANCH   8  26
TORSDOF 8
