REMARK  10 active torsions:
REMARK  status: ('A' for Active; 'I' for Inactive)
REMARK    1  A    between atoms: C2_2  and  C3_3 
REMARK    2  A    between atoms: C3_3  and  C15_16 
REMARK    3  A    between atoms: C4_4  and  C5_5 
REMARK    4  A    between atoms: C5_5  and  C6_7 
REMARK    5  A    between atoms: C7_8  and  C9_10 
REMARK    6  A    between atoms: C9_10  and  C10_11 
REMARK    7  A    between atoms: C10_11  and  C11_12 
REMARK    8  A    between atoms: C19_21  and  C20_22 
REMARK    9  A    between atoms: C20_22  and  N2_23 
REMARK   10  A    between atoms: N2_23  and  C22_25 
ROOT
HETATM    1  C3  UNL     1      -0.983  -0.731   0.807  1.00  0.00    -0.070 C 
HETATM    2  C4  UNL     1      -0.170  -0.752  -0.213  1.00  0.00     0.058 C 
ENDROOT
BRANCH   1   3
HETATM    3  C2  UNL     1      -0.517  -0.935   2.169  1.00  0.00     0.030 C 
HETATM    4  C1  UNL     1      -0.670   0.215   3.132  1.00  0.00     0.010 C 
ENDBRANCH   1   3
BRANCH   1   5
HETATM    5  C15 UNL     1      -2.431  -0.566   0.453  1.00  0.00     0.050 C 
HETATM    6  C16 UNL     1      -3.261  -1.707   0.989  1.00  0.00     0.281 C 
HETATM    7  N1  UNL     1      -3.944  -1.163   2.098  1.00  0.00     0.085 N 
HETATM    8  C17 UNL     1      -5.122  -1.894   2.493  1.00  0.00     0.309 C 
HETATM    9  C18 UNL     1      -4.203   0.241   1.874  1.00  0.00     0.279 C 
HETATM   10  C19 UNL     1      -3.126   0.641   0.946  1.00  0.00     0.052 C 
BRANCH  10  11
HETATM   11  C20 UNL     1      -3.474   1.565  -0.184  1.00  0.00     0.279 C 
BRANCH  11  12
HETATM   12  N2  UNL     1      -4.275   1.111  -1.231  1.00  0.00     0.084 N 
HETATM   13  C21 UNL     1      -5.647   0.865  -0.951  1.00  0.00     0.309 C 
BRANCH  12  14
HETATM   14  C22 UNL     1      -4.181   1.933  -2.428  1.00  0.00     0.267 C 
HETATM   15  C23 UNL     1      -2.814   1.810  -3.074  1.00  0.00     0.037 C 
ENDBRANCH  12  14
ENDBRANCH  11  12
ENDBRANCH  10  11
ENDBRANCH   1   5
BRANCH   2  16
HETATM   16  C5  UNL     1       1.257  -0.948  -0.337  1.00  0.00     0.172 C 
HETATM   17  O1  UNL     1       1.936  -1.126   0.691  1.00  0.00    -0.289 OA
BRANCH  16  18
HETATM   18  C6  UNL     1       1.882  -0.937  -1.679  1.00  0.00     0.057 C 
HETATM   19  C7  UNL     1       3.113  -1.072  -2.013  1.00  0.00    -0.080 C 
HETATM   20  C8  UNL     1       3.370  -1.005  -3.521  1.00  0.00     0.043 C 
BRANCH  19  21
HETATM   21  C9  UNL     1       4.240  -1.256  -1.113  1.00  0.00     0.037 C 
BRANCH  21  22
HETATM   22  C10 UNL     1       5.259  -0.128  -1.255  1.00  0.00     0.031 C 
BRANCH  22  23
HETATM   23  C11 UNL     1       6.355  -0.390  -0.278  1.00  0.00    -0.024 C 
HETATM   24  C12 UNL     1       6.641   0.485   0.680  1.00  0.00    -0.091 C 
HETATM   25  C13 UNL     1       5.834   1.744   0.757  1.00  0.00     0.042 C 
HETATM   26  C14 UNL     1       7.735   0.186   1.624  1.00  0.00     0.042 C 
ENDBRANCH  22  23
ENDBRANCH  21  22
ENDBRANCH  19  21
ENDBRANCH  16  18
ENDBRANCH   2  16
TORSDOF 10
