REMARK  4 active torsions:
REMARK  status: ('A' for Active; 'I' for Inactive)
REMARK    1  A    between atoms: N1_2  and  N2_4 
REMARK    2  A    between atoms: C2_6  and  C3_7 
REMARK    3  A    between atoms: C3_7  and  C4_8 
REMARK    4  A    between atoms: C4_8  and  N3_9 
ROOT
HETATM    1  N2  UNL     1      -0.288  -0.905   0.635  1.00  0.00    -0.317 N 
ATOM      2  H2  UNL     1      -0.841  -1.497   1.254  1.00  0.00     0.185 HD
HETATM    3  C2  UNL     1       1.002  -0.927   0.681  1.00  0.00     0.108 C 
ENDROOT
BRANCH   3   4
HETATM    4  C3  UNL     1       1.838  -0.107  -0.175  1.00  0.00     0.035 C 
BRANCH   4   5
HETATM    5  C4  UNL     1       2.828   0.626   0.252  1.00  0.00     0.082 C 
BRANCH   5   6
HETATM    6  N3  UNL     1       3.413   1.636   0.761  1.00  0.00    -0.408 N 
ATOM      7  H32 UNL     1       2.588   2.211   0.933  1.00  0.00     0.155 HD
ATOM      8  H31 UNL     1       4.188   2.209   1.095  1.00  0.00     0.155 HD
ENDBRANCH   5   6
ENDBRANCH   4   5
ENDBRANCH   3   4
BRANCH   1   9
HETATM    9  N1  UNL     1      -0.908  -0.056  -0.278  1.00  0.00    -0.341 N 
HETATM   10  C1  UNL     1      -2.184   0.559  -0.008  1.00  0.00     0.167 C 
ATOM     11  H1  UNL     1      -0.445   0.137  -1.166  1.00  0.00     0.179 HD
ENDBRANCH   1   9
TORSDOF 4
