REMARK  3 active torsions:
REMARK  status: ('A' for Active; 'I' for Inactive)
REMARK    1  A    between atoms: C2_2  and  C3_3 
REMARK    2  A    between atoms: C3_3  and  N1_4 
REMARK    3  A    between atoms: N1_4  and  C4_6 
ROOT
HETATM    1  N1  UNL     1       0.086  -0.191  -0.066  1.00  0.00    -0.383 N 
ATOM      2  H1  UNL     1       0.254   0.815  -0.059  1.00  0.00     0.160 HD
ENDROOT
BRANCH   1   3
HETATM    3  C3  UNL     1      -1.256  -0.725  -0.197  1.00  0.00     0.147 C 
BRANCH   3   4
HETATM    4  C2  UNL     1      -2.132   0.395  -0.614  1.00  0.00    -0.018 C 
HETATM    5  C1  UNL     1      -3.145   0.846   0.070  1.00  0.00     0.008 C 
ENDBRANCH   3   4
ENDBRANCH   1   3
BRANCH   1   6
HETATM    6  C4  UNL     1       1.152  -1.108   0.051  1.00  0.00     0.171 C 
HETATM    7  N2  UNL     1       2.382  -0.704  -0.158  1.00  0.00    -0.391 N 
HETATM    8  C5  UNL     1       2.609   0.674  -0.502  1.00  0.00     0.147 C 
ATOM      9  H2  UNL     1       3.163  -1.355  -0.078  1.00  0.00     0.159 HD
ENDBRANCH   1   6
TORSDOF 3
