REMARK  19 active torsions:
REMARK  status: ('A' for Active; 'I' for Inactive)
REMARK    1  A    between atoms: N1_1  and  C1_4 
REMARK    2  A    between atoms: N3_8  and  C3_10 
REMARK    3  A    between atoms: C3_10  and  C4_11 
REMARK    4  A    between atoms: C4_11  and  O1_12 
REMARK    5  A    between atoms: C6_17  and  C7_18 
REMARK       I    between atoms: C7_18  and  N5_20 
REMARK    6  A    between atoms: N5_20  and  C8_22 
REMARK    7  A    between atoms: C8_22  and  C9_23 
REMARK    8  A    between atoms: C8_22  and  C20_36 
REMARK    9  A    between atoms: C9_23  and  C10_24 
REMARK   10  A    between atoms: C10_24  and  C11_25 
REMARK   11  A    between atoms: C11_25  and  C12_26 
REMARK   12  A    between atoms: C12_26  and  N6_27 
REMARK   13  A    between atoms: N6_27  and  C13_29 
REMARK   14  A    between atoms: C13_29  and  C14_30 
REMARK   15  A    between atoms: C20_36  and  O3_37 
REMARK   16  A    between atoms: C20_36  and  N7_39 
REMARK   17  A    between atoms: C25_44  and  C26_45 
REMARK   18  A    between atoms: C26_45  and  N8_46 
REMARK   19  A    between atoms: C26_45  and  C27_50 
ROOT
HETATM    1  C8  UNL     1      -1.005  -1.192   1.944  1.00  0.00     0.159 C 
ENDROOT
BRANCH   1   2
HETATM    2  N5  UNL     1      -1.796  -0.072   1.436  1.00  0.00    -0.345 N 
HETATM    3  C7  UNL     1      -2.453   0.838   2.280  1.00  0.00     0.257 C 
HETATM    4  O2  UNL     1      -2.394   0.721   3.510  1.00  0.00    -0.267 OA
ATOM      5  H5  UNL     1      -1.874   0.054   0.427  1.00  0.00     0.163 HD
BRANCH   3   6
HETATM    6  C6  UNL     1      -3.233   1.964   1.723  1.00  0.00     0.091 A 
HETATM    7  C1  UNL     1      -3.000   3.275   2.085  1.00  0.00     0.132 A 
HETATM    8  N2  UNL     1      -3.731   4.276   1.508  1.00  0.00    -0.176 N 
HETATM    9  C2  UNL     1      -4.682   4.056   0.590  1.00  0.00     0.679 A 
ATOM     10  H2  UNL     1      -3.543   5.238   1.790  1.00  0.00     0.186 HD
HETATM   11  N3  UNL     1      -5.361   4.975   0.002  1.00  0.00    -0.224 N 
HETATM   12  N4  UNL     1      -4.909   2.753   0.236  1.00  0.00    -0.201 N 
ATOM     13  H3  UNL     1      -6.069   4.716  -0.685  1.00  0.00     0.177 HD
HETATM   14  C5  UNL     1      -4.218   1.742   0.775  1.00  0.00     0.127 A 
ATOM     15  H4  UNL     1      -5.626   2.547  -0.459  1.00  0.00     0.183 HD
BRANCH   7  16
HETATM   16  N1  UNL     1      -2.098   3.562   2.965  1.00  0.00    -0.384 N 
ATOM     17  H12 UNL     1      -1.926   4.531   3.233  1.00  0.00     0.157 HD
ATOM     18  H11 UNL     1      -1.553   2.815   3.395  1.00  0.00     0.157 HD
ENDBRANCH   7  16
BRANCH  11  19
HETATM   19  C3  UNL     1      -5.137   6.358   0.298  1.00  0.00     0.164 C 
BRANCH  19  20
HETATM   20  C4  UNL     1      -5.555   7.241  -0.871  1.00  0.00     0.184 C 
BRANCH  20  21
HETATM   21  O1  UNL     1      -6.897   7.111  -1.195  1.00  0.00    -0.399 OA
ATOM     22  H1  UNL     1      -7.158   7.662  -1.924  1.00  0.00     0.209 HD
ENDBRANCH  20  21
ENDBRANCH  19  20
ENDBRANCH  11  19
ENDBRANCH   3   6
ENDBRANCH   1   2
BRANCH   1  23
HETATM   23  C9  UNL     1       0.422  -0.935   1.564  1.00  0.00     0.034 C 
BRANCH  23  24
HETATM   24  C10 UNL     1       0.654  -0.860   0.063  1.00  0.00     0.004 C 
BRANCH  24  25
HETATM   25  C11 UNL     1       2.155  -0.592  -0.097  1.00  0.00     0.019 C 
BRANCH  25  26
HETATM   26  C12 UNL     1       2.503  -0.507  -1.543  1.00  0.00     0.113 C 
BRANCH  26  27
HETATM   27  N6  UNL     1       3.865  -0.263  -1.858  1.00  0.00    -0.421 N 
ATOM     28  H6  UNL     1       4.455  -0.970  -2.296  1.00  0.00     0.153 HD
BRANCH  27  29
HETATM   29  C13 UNL     1       4.359   1.041  -1.522  1.00  0.00     0.118 C 
BRANCH  29  30
HETATM   30  C14 UNL     1       5.825   1.069  -1.923  1.00  0.00     0.003 C 
HETATM   31  C15 UNL     1       6.459   2.386  -1.631  1.00  0.00     0.006 C 
HETATM   32  C16 UNL     1       6.217   3.378  -2.756  1.00  0.00     0.000 C 
HETATM   33  C17 UNL     1       6.731   2.750  -4.029  1.00  0.00     0.000 C 
HETATM   34  C18 UNL     1       5.812   1.593  -4.372  1.00  0.00     0.000 C 
HETATM   35  C19 UNL     1       6.047   0.544  -3.301  1.00  0.00     0.006 C 
ENDBRANCH  29  30
ENDBRANCH  27  29
ENDBRANCH  26  27
ENDBRANCH  25  26
ENDBRANCH  24  25
ENDBRANCH  23  24
ENDBRANCH   1  23
BRANCH   1  36
HETATM   36  C20 UNL     1      -1.600  -2.469   1.584  1.00  0.00     0.137 C 
BRANCH  36  37
HETATM   37  O3  UNL     1      -2.718  -2.327   0.918  1.00  0.00    -0.348 OA
ATOM     38  H3  UNL     1      -3.107  -3.161   0.683  1.00  0.00     0.219 HD
ENDBRANCH  36  37
BRANCH  36  39
HETATM   39  N7  UNL     1      -1.236  -3.789   1.798  1.00  0.00    -0.357 N 
HETATM   40  C21 UNL     1       0.012  -4.208   2.468  1.00  0.00     0.125 C 
HETATM   41  C22 UNL     1       0.467  -5.426   1.666  1.00  0.00     0.020 C 
HETATM   42  C23 UNL     1       0.036  -5.366   0.224  1.00  0.00     0.004 C 
HETATM   43  C24 UNL     1      -1.480  -5.367   0.056  1.00  0.00     0.028 C 
HETATM   44  C25 UNL     1      -2.026  -4.960   1.414  1.00  0.00     0.123 C 
BRANCH  44  45
HETATM   45  C26 UNL     1      -3.494  -4.857   1.496  1.00  0.00     0.267 C 
BRANCH  45  46
HETATM   46  N8  UNL     1      -3.991  -6.207   1.077  1.00  0.00    -0.067 N 
ATOM     47  H83 UNL     1      -3.646  -6.513   0.167  1.00  0.00     0.275 HD
ATOM     48  H82 UNL     1      -3.598  -6.980   1.614  1.00  0.00     0.275 HD
ATOM     49  H81 UNL     1      -5.007  -6.136   1.134  1.00  0.00     0.275 HD
ENDBRANCH  45  46
BRANCH  45  50
HETATM   50  C27 UNL     1      -3.964  -4.717   2.886  1.00  0.00     0.266 C 
HETATM   51  O4  UNL     1      -4.560  -5.546   3.540  1.00  0.00    -0.305 OA
ENDBRANCH  45  50
ENDBRANCH  44  45
ENDBRANCH  36  39
ENDBRANCH   1  36
TORSDOF 19
