REMARK  16 active torsions:
REMARK  status: ('A' for Active; 'I' for Inactive)
REMARK    1  A    between atoms: C2_2  and  C3_3 
REMARK    2  A    between atoms: C3_3  and  C4_4 
REMARK    3  A    between atoms: C4_4  and  C5_5 
REMARK    4  A    between atoms: C5_5  and  C6_6 
REMARK    5  A    between atoms: C6_6  and  C7_7 
REMARK    6  A    between atoms: C8_10  and  O1_11 
REMARK    7  A    between atoms: C9_13  and  C10_14 
REMARK    8  A    between atoms: C15_22  and  C16_23 
REMARK    9  A    between atoms: C16_23  and  C17_24 
REMARK   10  A    between atoms: C17_24  and  C18_25 
REMARK   11  A    between atoms: C18_25  and  C19_26 
REMARK   12  A    between atoms: C21_33  and  C22_34 
REMARK   13  A    between atoms: C22_34  and  C23_35 
REMARK   14  A    between atoms: C23_35  and  C24_36 
REMARK   15  A    between atoms: C24_36  and  C25_37 
REMARK   16  A    between atoms: C25_37  and  N4_38 
ROOT
HETATM    1  C7  UNL     1       1.833  -1.112  -1.243  1.00  0.00     0.175 C 
HETATM    2  N1  UNL     1       1.887   0.129  -1.923  1.00  0.00    -0.359 N 
ATOM      3  H1  UNL     1       2.795   0.319  -2.347  1.00  0.00     0.162 HD
HETATM    4  C8  UNL     1       0.955   1.147  -2.134  1.00  0.00     0.135 C 
HETATM    5  C9  UNL     1       0.199   1.999  -1.207  1.00  0.00     0.162 C 
HETATM    6  N2  UNL     1      -1.239   1.901  -1.442  1.00  0.00    -0.349 N 
ATOM      7  H2  UNL     1      -1.620   2.337  -2.282  1.00  0.00     0.163 HD
HETATM    8  C13 UNL     1      -2.141   1.231  -0.564  1.00  0.00     0.220 C 
HETATM    9  O2  UNL     1      -3.119   0.644  -1.091  1.00  0.00    -0.274 OA
HETATM   10  C14 UNL     1      -1.891   1.259   0.862  1.00  0.00     0.128 C 
HETATM   11  C15 UNL     1      -2.819   0.594   1.784  1.00  0.00     0.093 C 
HETATM   12  N3  UNL     1      -2.755  -0.841   1.869  1.00  0.00    -0.354 N 
ATOM     13  H3  UNL     1      -3.652  -1.281   2.073  1.00  0.00     0.162 HD
HETATM   14  C20 UNL     1      -1.716  -1.738   1.728  1.00  0.00     0.240 C 
HETATM   15  O5  UNL     1      -1.289  -2.397   2.756  1.00  0.00    -0.271 OA
HETATM   16  C21 UNL     1      -0.922  -2.130   0.501  1.00  0.00     0.176 C 
HETATM   17  N5  UNL     1       0.460  -1.876   0.801  1.00  0.00    -0.346 N 
ATOM     18  H5  UNL     1       0.812  -2.396   1.605  1.00  0.00     0.163 HD
HETATM   19  C26 UNL     1       1.410  -1.052   0.200  1.00  0.00     0.241 C 
HETATM   20  O6  UNL     1       2.020  -0.139   0.888  1.00  0.00    -0.271 OA
ENDROOT
BRANCH  16  21
HETATM   21  C22 UNL     1      -1.183  -3.656   0.366  1.00  0.00     0.035 C 
BRANCH  21  22
HETATM   22  C23 UNL     1      -0.489  -4.246  -0.797  1.00  0.00     0.004 C 
BRANCH  22  23
HETATM   23  C24 UNL     1      -0.720  -5.705  -0.963  1.00  0.00     0.027 C 
BRANCH  23  24
HETATM   24  C25 UNL     1      -2.194  -6.040  -1.152  1.00  0.00     0.229 C 
BRANCH  24  25
HETATM   25  N4  UNL     1      -2.708  -5.372  -2.333  1.00  0.00    -0.079 N 
ATOM     26  H43 UNL     1      -2.546  -4.365  -2.304  1.00  0.00     0.274 HD
ATOM     27  H42 UNL     1      -2.157  -5.588  -3.164  1.00  0.00     0.274 HD
ATOM     28  H41 UNL     1      -3.695  -5.596  -2.460  1.00  0.00     0.274 HD
ENDBRANCH  24  25
ENDBRANCH  23  24
ENDBRANCH  22  23
ENDBRANCH  21  22
ENDBRANCH  16  21
BRANCH  11  29
HETATM   29  C16 UNL     1      -4.232   1.068   1.604  1.00  0.00     0.026 C 
BRANCH  29  30
HETATM   30  C17 UNL     1      -4.362   2.568   1.841  1.00  0.00     0.012 C 
BRANCH  30  31
HETATM   31  C18 UNL     1      -5.819   2.994   1.652  1.00  0.00     0.113 C 
BRANCH  31  32
HETATM   32  C19 UNL     1      -5.885   4.455   1.888  1.00  0.00     0.172 C 
HETATM   33  O3  UNL     1      -5.538   5.293   1.007  1.00  0.00    -0.648 OA
HETATM   34  O4  UNL     1      -6.338   4.958   3.108  1.00  0.00    -0.648 OA
ENDBRANCH  31  32
ENDBRANCH  30  31
ENDBRANCH  29  30
ENDBRANCH  11  29
BRANCH   1  35
HETATM   35  C6  UNL     1       3.140  -1.877  -1.187  1.00  0.00     0.035 C 
BRANCH  35  36
HETATM   36  C5  UNL     1       4.279  -1.306  -0.470  1.00  0.00     0.002 C 
BRANCH  36  37
HETATM   37  C4  UNL     1       4.850  -0.008  -0.864  1.00  0.00     0.000 C 
BRANCH  37  38
HETATM   38  C3  UNL     1       6.075   0.397  -0.037  1.00  0.00    -0.000 C 
BRANCH  38  39
HETATM   39  C2  UNL     1       5.721   0.525   1.416  1.00  0.00    -0.005 C 
HETATM   40  C1  UNL     1       7.007   0.947   2.131  1.00  0.00     0.005 C 
ENDBRANCH  38  39
ENDBRANCH  37  38
ENDBRANCH  36  37
ENDBRANCH  35  36
ENDBRANCH   1  35
BRANCH   4  41
HETATM   41  O1  UNL     1       0.670   1.433  -3.381  1.00  0.00    -0.348 OA
ATOM     42  H1  UNL     1       0.036   2.126  -3.525  1.00  0.00     0.219 HD
ENDBRANCH   4  41
BRANCH   5  43
HETATM   43  C10 UNL     1       0.656   3.454  -1.407  1.00  0.00     0.008 C 
HETATM   44  C11 UNL     1       0.439   3.976  -2.774  1.00  0.00     0.012 C 
HETATM   45  C12 UNL     1       0.045   4.358  -0.372  1.00  0.00     0.012 C 
ENDBRANCH   5  43
TORSDOF 16
