REMARK  7 active torsions:
REMARK  status: ('A' for Active; 'I' for Inactive)
REMARK    1  A    between atoms: C4_4  and  O1_5 
REMARK    2  A    between atoms: C8_10  and  O2_11 
REMARK    3  A    between atoms: C8_10  and  C9_13 
REMARK    4  A    between atoms: C9_13  and  C11_15 
REMARK    5  A    between atoms: C12_16  and  C13_17 
REMARK    6  A    between atoms: C13_17  and  O3_19 
REMARK    7  A    between atoms: C16_22  and  O4_23 
ROOT
HETATM    1  C1  UNL     1      -5.082  -0.581  -1.157  1.00  0.00     0.043 C 
HETATM    2  C2  UNL     1      -3.936  -0.439  -0.215  1.00  0.00    -0.081 C 
HETATM    3  C3  UNL     1      -3.740  -1.542   0.505  1.00  0.00     0.007 C 
HETATM    4  C4  UNL     1      -2.713  -1.780   1.531  1.00  0.00     0.141 C 
HETATM    5  C5  UNL     1      -1.361  -1.357   0.988  1.00  0.00     0.041 C 
HETATM    6  C6  UNL     1      -1.184   0.123   0.965  1.00  0.00     0.002 C 
HETATM    7  C7  UNL     1       0.329   0.373   0.946  1.00  0.00     0.044 C 
HETATM    8  C8  UNL     1       0.968  -0.116  -0.300  1.00  0.00     0.067 C 
HETATM    9  C15 UNL     1       0.263   0.166  -1.560  1.00  0.00     0.071 C 
HETATM   10  C16 UNL     1      -1.243   0.183  -1.480  1.00  0.00     0.130 C 
HETATM   11  C17 UNL     1      -1.768   0.814  -0.224  1.00  0.00    -0.007 C 
HETATM   12  C18 UNL     1      -1.283   2.261  -0.228  1.00  0.00     0.019 C 
HETATM   13  C19 UNL     1      -3.261   0.856  -0.260  1.00  0.00     0.021 C 
HETATM   14  C20 UNL     1      -3.790   1.806   0.824  1.00  0.00     0.015 C 
ENDROOT
BRANCH   8  15
HETATM   15  O2  UNL     1       1.257  -1.488  -0.204  1.00  0.00    -0.389 OA
ATOM     16  H2  UNL     1       1.666  -1.801  -1.002  1.00  0.00     0.210 HD
ENDBRANCH   8  15
BRANCH   8  17
HETATM   17  C9  UNL     1       2.368   0.549  -0.401  1.00  0.00     0.038 C 
HETATM   18  C10 UNL     1       3.069   0.105  -1.625  1.00  0.00     0.017 C 
BRANCH  17  19
HETATM   19  C11 UNL     1       3.028   0.448   0.877  1.00  0.00    -0.021 C 
HETATM   20  C12 UNL     1       4.181   0.017   1.261  1.00  0.00     0.001 C 
BRANCH  20  21
HETATM   21  C13 UNL     1       5.276  -0.549   0.480  1.00  0.00     0.136 C 
HETATM   22  C14 UNL     1       6.603  -0.340   1.232  1.00  0.00     0.043 C 
BRANCH  21  23
HETATM   23  O3  UNL     1       5.129  -1.953   0.467  1.00  0.00    -0.392 OA
ATOM     24  H3  UNL     1       5.842  -2.321  -0.041  1.00  0.00     0.210 HD
ENDBRANCH  21  23
ENDBRANCH  20  21
ENDBRANCH  17  19
ENDBRANCH   8  17
BRANCH  10  25
HETATM   25  O4  UNL     1      -1.700   0.953  -2.554  1.00  0.00    -0.395 OA
ATOM     26  H4  UNL     1      -2.649   0.964  -2.504  1.00  0.00     0.210 HD
ENDBRANCH  10  25
BRANCH   4  27
HETATM   27  O1  UNL     1      -2.959  -1.142   2.734  1.00  0.00    -0.392 OA
ATOM     28  H1  UNL     1      -2.296  -1.296   3.397  1.00  0.00     0.210 HD
ENDBRANCH   4  27
TORSDOF 7
