REMARK  9 active torsions:
REMARK  status: ('A' for Active; 'I' for Inactive)
REMARK    1  A    between atoms: C4_4  and  N1_5 
REMARK    2  A    between atoms: N1_5  and  C5_7 
REMARK    3  A    between atoms: C6_10  and  N3_11 
REMARK    4  A    between atoms: N3_11  and  C7_13 
REMARK    5  A    between atoms: C7_13  and  C8_14 
REMARK    6  A    between atoms: C7_13  and  C13_23 
REMARK    7  A    between atoms: C8_14  and  C9_15 
REMARK    8  A    between atoms: C9_15  and  C10_16 
REMARK    9  A    between atoms: C10_16  and  C12_19 
ROOT
HETATM    1  N3  UNL     1      -0.829   0.677   0.163  1.00  0.00    -0.366 N 
ATOM      2  H3  UNL     1      -0.859   1.412   0.869  1.00  0.00     0.161 HD
ENDROOT
BRANCH   1   3
HETATM    3  C6  UNL     1       0.240  -0.030   0.134  1.00  0.00     0.118 A 
HETATM    4  N2  UNL     1       1.258   0.217   1.013  1.00  0.00    -0.177 N 
HETATM    5  C5  UNL     1       2.393  -0.491   1.026  1.00  0.00     0.685 A 
ATOM      6  H2  UNL     1       1.147   0.974   1.688  1.00  0.00     0.186 HD
HETATM    7  N5  UNL     1       2.586  -1.495   0.157  1.00  0.00    -0.202 N 
HETATM    8  C19 UNL     1       1.631  -1.796  -0.736  1.00  0.00     0.110 A 
ATOM      9  H5  UNL     1       3.456  -2.028   0.175  1.00  0.00     0.183 HD
HETATM   10  C18 UNL     1       0.439  -1.059  -0.755  1.00  0.00     0.066 A 
BRANCH   5  11
HETATM   11  N1  UNL     1       3.408  -0.185   1.961  1.00  0.00    -0.175 N 
ATOM     12  H1  UNL     1       3.177  -0.176   2.955  1.00  0.00     0.186 HD
BRANCH  11  13
HETATM   13  C4  UNL     1       4.627   0.085   1.595  1.00  0.00     0.137 A 
HETATM   14  C3  UNL     1       5.166   0.131   0.326  1.00  0.00     0.076 A 
HETATM   15  C2  UNL     1       6.511   0.460   0.409  1.00  0.00     0.025 A 
HETATM   16  C1  UNL     1       7.489   0.622  -0.700  1.00  0.00     0.070 C 
HETATM   17  N7  UNL     1       6.743   0.604   1.743  1.00  0.00    -0.304 N 
HETATM   18  N6  UNL     1       5.640   0.384   2.426  1.00  0.00    -0.285 N 
ATOM     19  H7  UNL     1       7.644   0.848   2.154  1.00  0.00     0.186 HD
ATOM     20  H6  UNL     1       5.565   0.433   3.442  1.00  0.00     0.188 HD
ENDBRANCH  11  13
ENDBRANCH   5  11
ENDBRANCH   1   3
BRANCH   1  21
HETATM   21  C7  UNL     1      -1.973   0.564  -0.664  1.00  0.00     0.133 C 
BRANCH  21  22
HETATM   22  C8  UNL     1      -3.119  -0.047   0.134  1.00  0.00     0.035 C 
BRANCH  22  23
HETATM   23  C9  UNL     1      -2.724  -1.419   0.631  1.00  0.00     0.055 C 
BRANCH  23  24
HETATM   24  C10 UNL     1      -3.876  -2.029   1.429  1.00  0.00     0.196 C 
HETATM   25  C11 UNL     1      -5.113  -2.167   0.584  1.00  0.00     0.061 C 
HETATM   26  F1  UNL     1      -4.069  -1.212   2.526  1.00  0.00    -0.234 F 
BRANCH  24  27
HETATM   27  C12 UNL     1      -3.412  -3.381   1.941  1.00  0.00     0.422 C 
HETATM   28  F2  UNL     1      -3.076  -4.216   0.883  1.00  0.00    -0.168 F 
HETATM   29  F3  UNL     1      -4.454  -3.922   2.663  1.00  0.00    -0.168 F 
HETATM   30  F4  UNL     1      -2.298  -3.193   2.734  1.00  0.00    -0.168 F 
ENDBRANCH  24  27
ENDBRANCH  23  24
ENDBRANCH  22  23
ENDBRANCH  21  22
BRANCH  21  31
HETATM   31  C13 UNL     1      -2.417   1.979  -0.966  1.00  0.00     0.032 A 
HETATM   32  C14 UNL     1      -2.764   2.331  -2.259  1.00  0.00     0.027 A 
HETATM   33  C15 UNL     1      -3.158   3.620  -2.481  1.00  0.00     0.003 A 
HETATM   34  C16 UNL     1      -3.196   4.509  -1.434  1.00  0.00     0.017 A 
HETATM   35  C17 UNL     1      -2.843   4.132  -0.144  1.00  0.00     0.088 A 
HETATM   36  N4  UNL     1      -2.461   2.854   0.028  1.00  0.00    -0.367 N 
ATOM     37  H4  UNL     1      -2.194   2.545   0.963  1.00  0.00     0.165 HD
ENDBRANCH  21  31
ENDBRANCH   1  21
TORSDOF 9
