REMARK  6 active torsions:
REMARK  status: ('A' for Active; 'I' for Inactive)
REMARK    1  A    between atoms: N1_1  and  C1_4 
REMARK    2  A    between atoms: C2_10  and  N4_11 
REMARK    3  A    between atoms: C4_13  and  C5_14 
REMARK    4  A    between atoms: N7_18  and  C6_19 
REMARK    5  A    between atoms: C9_26  and  N11_27 
REMARK       I    between atoms: N11_27  and  C10_29 
REMARK    6  A    between atoms: C12_38  and  C13_39 
ROOT
HETATM    1  C5  UNL     1      -0.787   0.413   0.462  1.00  0.00     0.163 A 
HETATM    2  N5  UNL     1      -0.444   1.065   1.583  1.00  0.00    -0.265 N 
ATOM      3  H5  UNL     1      -1.076   1.629   2.151  1.00  0.00     0.186 HD
HETATM    4  N6  UNL     1       0.859   0.863   1.844  1.00  0.00     0.003 NA
HETATM    5  N7  UNL     1       1.332   0.085   0.886  1.00  0.00    -0.171 N 
HETATM    6  N12 UNL     1       0.331  -0.197   0.035  1.00  0.00    -0.262 N 
ATOM      7  H12 UNL     1       0.408  -0.779  -0.799  1.00  0.00     0.190 HD
ENDROOT
BRANCH   1   8
HETATM    8  C4  UNL     1      -2.100   0.358  -0.186  1.00  0.00     0.097 A 
HETATM    9  C3  UNL     1      -3.269   0.967   0.217  1.00  0.00     0.134 A 
HETATM   10  N4  UNL     1      -4.286   0.680  -0.648  1.00  0.00    -0.283 N 
HETATM   11  C12 UNL     1      -3.757  -0.104  -1.590  1.00  0.00     0.180 A 
HETATM   12  N13 UNL     1      -2.433  -0.299  -1.311  1.00  0.00    -0.334 N 
ATOM     13  H13 UNL     1      -1.793  -0.860  -1.873  1.00  0.00     0.168 HD
BRANCH  10  14
HETATM   14  C2  UNL     1      -5.637   1.149  -0.531  1.00  0.00     0.181 A 
HETATM   15  C1  UNL     1      -6.594   0.612   0.303  1.00  0.00     0.168 A 
HETATM   16  N2  UNL     1      -7.715   1.327   0.126  1.00  0.00    -0.222 N 
HETATM   17  O1  UNL     1      -7.488   2.261  -0.765  1.00  0.00    -0.153 OA
ATOM     18  H2  UNL     1      -8.601   1.169   0.607  1.00  0.00     0.198 HD
HETATM   19  N3  UNL     1      -6.255   2.159  -1.159  1.00  0.00    -0.221 N 
ATOM     20  H3  UNL     1      -5.816   2.765  -1.852  1.00  0.00     0.198 HD
BRANCH  15  21
HETATM   21  N1  UNL     1      -6.431  -0.385   1.097  1.00  0.00    -0.381 N 
ATOM     22  H12 UNL     1      -7.139  -0.782   1.714  1.00  0.00     0.157 HD
ATOM     23  H11 UNL     1      -5.579  -0.929   1.232  1.00  0.00     0.157 HD
ENDBRANCH  15  21
ENDBRANCH  10  14
BRANCH  11  24
HETATM   24  C13 UNL     1      -4.439  -0.677  -2.740  1.00  0.00     0.299 C 
HETATM   25  N14 UNL     1      -5.815  -0.402  -2.926  1.00  0.00    -0.054 NA
HETATM   26  O5  UNL     1      -3.788  -1.407  -3.545  1.00  0.00    -0.268 OA
ENDBRANCH  11  24
ENDBRANCH   1   8
BRANCH   5  27
HETATM   27  C6  UNL     1       2.679  -0.360   0.804  1.00  0.00     0.166 A 
HETATM   28  C7  UNL     1       2.995  -1.648   0.414  1.00  0.00     0.152 A 
HETATM   29  N8  UNL     1       1.940  -2.543   0.089  1.00  0.00    -0.080 NA
HETATM   30  N9  UNL     1       4.266  -2.081   0.332  1.00  0.00    -0.329 N 
HETATM   31  C8  UNL     1       5.303  -1.248   0.637  1.00  0.00     0.148 A 
ATOM     32  H9  UNL     1       4.456  -3.040   0.040  1.00  0.00     0.168 HD
HETATM   33  N10 UNL     1       6.649  -1.695   0.555  1.00  0.00    -0.080 NA
HETATM   34  C9  UNL     1       5.056   0.047   1.033  1.00  0.00     0.132 A 
HETATM   35  C11 UNL     1       3.757   0.470   1.110  1.00  0.00     0.235 A 
HETATM   36  O4  UNL     1       3.544   1.657   1.473  1.00  0.00    -0.283 OA
BRANCH  34  37
HETATM   37  N11 UNL     1       6.170   0.876   1.340  1.00  0.00    -0.294 N 
HETATM   38  C10 UNL     1       6.788   1.662   0.338  1.00  0.00     0.288 C 
HETATM   39  O2  UNL     1       6.363   1.638  -0.830  1.00  0.00    -0.629 OA
HETATM   40  O3  UNL     1       7.869   2.461   0.652  1.00  0.00    -0.629 OA
ATOM     41  H11 UNL     1       6.528   0.905   2.295  1.00  0.00     0.172 HD
ENDBRANCH  34  37
ENDBRANCH   5  27
TORSDOF 6
