REMARK  3 active torsions:
REMARK  status: ('A' for Active; 'I' for Inactive)
REMARK    1  A    between atoms: C3_4  and  N2_5 
REMARK    2  A    between atoms: N3_7  and  C4_9 
REMARK    3  A    between atoms: C5_16  and  N6_17 
ROOT
HETATM    1  N1  UNL     1      -0.384   2.740  -1.398  1.00  0.00    -0.191 NA
HETATM    2  C1  UNL     1      -0.721   1.757  -0.888  1.00  0.00     0.107 C 
HETATM    3  C2  UNL     1      -1.116   0.528  -0.250  1.00  0.00     0.136 A 
HETATM    4  C3  UNL     1      -0.299  -0.552   0.023  1.00  0.00     0.159 A 
HETATM    5  N4  UNL     1      -1.112  -1.453   0.620  1.00  0.00    -0.281 N 
ATOM      6  H4  UNL     1      -0.811  -2.370   0.950  1.00  0.00     0.188 HD
HETATM    7  N5  UNL     1      -2.342  -0.994   0.721  1.00  0.00    -0.283 N 
ATOM      8  H5  UNL     1      -3.130  -1.493   1.134  1.00  0.00     0.188 HD
HETATM    9  C5  UNL     1      -2.390   0.241   0.190  1.00  0.00     0.138 A 
ENDROOT
BRANCH   4  10
HETATM   10  N2  UNL     1       1.086  -0.663  -0.270  1.00  0.00    -0.282 N 
HETATM   11  N3  UNL     1       1.989  -0.320   0.557  1.00  0.00    -0.282 N 
ATOM     12  H3  UNL     1       1.704   0.048   1.465  1.00  0.00     0.188 HD
ATOM     13  H2  UNL     1       1.367  -1.032  -1.178  1.00  0.00     0.188 HD
BRANCH  11  14
HETATM   14  C4  UNL     1       3.371  -0.426   0.275  1.00  0.00     0.164 C 
HETATM   15  S1  UNL     1       4.375  -0.646   1.561  1.00  0.00    -0.050 SA
HETATM   16  S2  UNL     1       4.038  -0.332  -1.378  1.00  0.00    -0.019 SA
ENDBRANCH  11  14
ENDBRANCH   4  10
BRANCH   9  17
HETATM   17  N6  UNL     1      -3.447   0.988   0.122  1.00  0.00    -0.383 N 
ATOM     18  H62 UNL     1      -3.483   1.924  -0.281  1.00  0.00     0.157 HD
ATOM     19  H61 UNL     1      -4.390   0.776   0.448  1.00  0.00     0.157 HD
ENDBRANCH   9  17
TORSDOF 3
