REMARK  7 active torsions:
REMARK  status: ('A' for Active; 'I' for Inactive)
REMARK    1  A    between atoms: C2_2  and  C4_4 
REMARK    2  A    between atoms: C2_2  and  S1_6 
REMARK    3  A    between atoms: S1_6  and  C5_7 
REMARK    4  A    between atoms: C6_8  and  C7_9 
REMARK    5  A    between atoms: N1_10  and  C8_12 
REMARK    6  A    between atoms: C9_15  and  O1_16 
REMARK    7  A    between atoms: C13_23  and  O2_24 
ROOT
HETATM    1  C5  UNL     1      -0.695   1.406   0.980  1.00  0.00     0.033 A 
HETATM    2  C6  UNL     1       0.536   1.509   0.375  1.00  0.00    -0.001 A 
HETATM    3  C11 UNL     1       1.007   2.772  -0.004  1.00  0.00     0.036 A 
HETATM    4  C12 UNL     1       0.229   3.884   0.237  1.00  0.00     0.046 A 
HETATM    5 BR1  UNL     1       0.878   5.608  -0.285  1.00  0.00    -0.048 Br
HETATM    6  C13 UNL     1      -1.002   3.796   0.841  1.00  0.00     0.101 A 
HETATM    7  C14 UNL     1      -1.455   2.533   1.212  1.00  0.00     0.063 A 
HETATM    8 BR2  UNL     1      -3.160   2.449   2.058  1.00  0.00    -0.047 Br
ENDROOT
BRANCH   2   9
HETATM    9  C7  UNL     1       1.421   0.369   0.118  1.00  0.00     0.103 C 
HETATM   10  N1  UNL     1       2.542   0.545  -0.457  1.00  0.00    -0.346 N 
ATOM     11  H1  UNL     1       2.825   1.483  -0.740  1.00  0.00     0.167 HD
BRANCH  10  12
HETATM   12  C8  UNL     1       3.416  -0.576  -0.712  1.00  0.00     0.150 A 
HETATM   13  N2  UNL     1       3.509  -1.720  -0.050  1.00  0.00    -0.317 N 
HETATM   14  C9  UNL     1       4.360  -2.617  -0.427  1.00  0.00     0.148 A 
ATOM     15  H2  UNL     1       2.909  -1.893   0.757  1.00  0.00     0.170 HD
HETATM   16  C10 UNL     1       5.143  -2.339  -1.518  1.00  0.00     0.109 A 
HETATM   17  S2  UNL     1       4.597  -0.774  -1.941  1.00  0.00    -0.061 SA
BRANCH  14  18
HETATM   18  O1  UNL     1       4.497  -3.857   0.249  1.00  0.00    -0.346 OA
ATOM     19  H1  UNL     1       5.122  -4.516  -0.028  1.00  0.00     0.219 HD
ENDBRANCH  14  18
ENDBRANCH  10  12
ENDBRANCH   2   9
BRANCH   1  20
HETATM   20  S1  UNL     1      -1.293  -0.202   1.434  1.00  0.00    -0.117 SA
BRANCH  20  21
HETATM   21  C2  UNL     1      -2.263  -1.014   0.177  1.00  0.00     0.018 C 
HETATM   22  C1  UNL     1      -3.591  -0.351  -0.115  1.00  0.00     0.028 C 
HETATM   23  C3  UNL     1      -1.495  -1.159  -1.124  1.00  0.00     0.028 C 
BRANCH  21  24
HETATM   24  C4  UNL     1      -2.588  -2.437   0.631  1.00  0.00     0.134 C 
HETATM   25 CL1  UNL     1      -3.459  -3.238  -0.712  1.00  0.00    -0.129 Cl
ENDBRANCH  21  24
ENDBRANCH  20  21
ENDBRANCH   1  20
BRANCH   6  26
HETATM   26  O2  UNL     1      -1.717   4.959   1.046  1.00  0.00    -0.358 OA
ATOM     27  H2  UNL     1      -2.568   4.898   1.464  1.00  0.00     0.217 HD
ENDBRANCH   6  26
TORSDOF 7
