REMARK  8 active torsions:
REMARK  status: ('A' for Active; 'I' for Inactive)
REMARK    1  A    between atoms: C3_3  and  C4_4 
REMARK    2  A    between atoms: C6_7  and  O2_8 
REMARK    3  A    between atoms: C18_23  and  C19_24 
REMARK    4  A    between atoms: C20_26  and  C21_27 
REMARK    5  A    between atoms: C23_32  and  O6_33 
REMARK    6  A    between atoms: O6_33  and  C24_34 
REMARK    7  A    between atoms: C24_34  and  C25_35 
REMARK    8  A    between atoms: C25_35  and  O7_36 
ROOT
HETATM    1  C1  UNL     1      -3.652   0.806  -1.936  1.00  0.00     0.013 C 
HETATM    2  C2  UNL     1      -3.512  -0.172  -0.795  1.00  0.00     0.020 C 
HETATM    3  C3  UNL     1      -3.593   0.488   0.552  1.00  0.00     0.160 C 
HETATM    4  O3  UNL     1      -2.409   1.198   0.790  1.00  0.00    -0.380 OA
HETATM    5  C8  UNL     1      -1.399   0.196   1.076  1.00  0.00     0.182 C 
HETATM    6  C9  UNL     1      -1.025  -0.306  -0.261  1.00  0.00     0.009 C 
HETATM    7  C10 UNL     1      -0.739   1.003  -1.065  1.00  0.00     0.023 C 
HETATM    8  C11 UNL     1      -2.288  -0.987  -0.832  1.00  0.00     0.007 C 
HETATM    9  C12 UNL     1      -1.982  -1.664  -2.139  1.00  0.00     0.009 C 
HETATM   10  C13 UNL     1      -1.198  -2.912  -1.826  1.00  0.00     0.043 C 
HETATM   11  C14 UNL     1      -0.128  -2.655  -0.777  1.00  0.00     0.082 C 
HETATM   12  C15 UNL     1      -0.292  -3.526   0.431  1.00  0.00     0.051 C 
HETATM   13  O4  UNL     1       1.099  -2.981  -1.341  1.00  0.00    -0.371 OA
HETATM   14  C16 UNL     1       2.090  -2.164  -0.735  1.00  0.00     0.208 C 
HETATM   15  C17 UNL     1       1.373  -1.207   0.149  1.00  0.00    -0.026 C 
HETATM   16  C18 UNL     1       1.853  -0.566   1.107  1.00  0.00     0.049 C 
HETATM   17  C26 UNL     1       0.057  -1.195  -0.541  1.00  0.00    -0.027 C 
ENDROOT
BRANCH  16  18
HETATM   18  C19 UNL     1       3.163  -0.470   1.700  1.00  0.00     0.110 A 
HETATM   19  O5  UNL     1       3.704  -0.952   2.780  1.00  0.00    -0.303 OA
HETATM   20  C20 UNL     1       4.928  -0.597   2.966  1.00  0.00     0.162 A 
HETATM   21  C22 UNL     1       5.273   0.214   1.885  1.00  0.00     0.081 A 
HETATM   22  C23 UNL     1       4.184   0.300   1.087  1.00  0.00     0.105 A 
BRANCH  20  23
HETATM   23  C21 UNL     1       5.864  -0.937   4.072  1.00  0.00     0.439 C 
HETATM   24  F1  UNL     1       6.010   0.155   4.911  1.00  0.00    -0.164 F 
HETATM   25  F2  UNL     1       7.111  -1.216   3.469  1.00  0.00    -0.164 F 
HETATM   26  F3  UNL     1       5.467  -2.024   4.800  1.00  0.00    -0.164 F 
ENDBRANCH  20  23
BRANCH  22  27
HETATM   27  O6  UNL     1       4.010   0.964  -0.093  1.00  0.00    -0.346 OA
BRANCH  27  28
HETATM   28  C24 UNL     1       5.011   1.752  -0.670  1.00  0.00     0.201 C 
BRANCH  28  29
HETATM   29  C25 UNL     1       4.619   2.272  -2.054  1.00  0.00     0.190 C 
BRANCH  29  30
HETATM   30  O7  UNL     1       3.458   3.010  -1.976  1.00  0.00    -0.399 OA
ATOM     31  H7  UNL     1       3.215   3.333  -2.836  1.00  0.00     0.209 HD
ENDBRANCH  29  30
ENDBRANCH  28  29
ENDBRANCH  27  28
ENDBRANCH  22  27
ENDBRANCH  16  18
BRANCH   3  32
HETATM   32  C4  UNL     1      -4.732   1.405   0.619  1.00  0.00    -0.002 A 
HETATM   33  C5  UNL     1      -5.937   1.224   0.011  1.00  0.00     0.154 A 
HETATM   34  O1  UNL     1      -6.716   2.274   0.286  1.00  0.00    -0.300 OA
HETATM   35  C6  UNL     1      -6.106   3.136   1.036  1.00  0.00     0.183 A 
HETATM   36  C7  UNL     1      -4.824   2.616   1.275  1.00  0.00     0.075 A 
BRANCH  35  37
HETATM   37  O2  UNL     1      -6.534   4.365   1.556  1.00  0.00    -0.341 OA
ATOM     38  H2  UNL     1      -6.087   4.997   2.106  1.00  0.00     0.220 HD
ENDBRANCH  35  37
ENDBRANCH   3  32
TORSDOF 8
