REMARK  4 active torsions:
REMARK  status: ('A' for Active; 'I' for Inactive)
REMARK    1  A    between atoms: N3_4  and  C2_6 
REMARK    2  A    between atoms: C2_6  and  C3_7 
REMARK    3  A    between atoms: C3_7  and  S1_8 
REMARK    4  A    between atoms: S1_8  and  C4_9 
ROOT
HETATM    1  C3  UNL     1       1.433   0.046  -1.353  1.00  0.00     0.118 C 
ENDROOT
BRANCH   1   2
HETATM    2  C2  UNL     1       1.958  -1.079  -0.500  1.00  0.00     0.073 C 
BRANCH   2   3
HETATM    3  N3  UNL     1       3.286  -0.995  -0.129  1.00  0.00    -0.346 N 
HETATM    4  C1  UNL     1       4.132  -0.186   0.244  1.00  0.00     0.200 C 
HETATM    5  N1  UNL     1       3.955   1.195   0.445  1.00  0.00    -0.067 NA
HETATM    6  N2  UNL     1       5.464  -0.700   0.527  1.00  0.00    -0.067 NA
ATOM      7  H3  UNL     1       3.709  -1.922  -0.183  1.00  0.00     0.167 HD
ENDBRANCH   2   3
ENDBRANCH   1   2
BRANCH   1   8
HETATM    8  S1  UNL     1      -0.347  -0.347  -1.656  1.00  0.00    -0.159 SA
BRANCH   8   9
HETATM    9  C4  UNL     1      -1.170  -0.214  -0.071  1.00  0.00     0.047 C 
HETATM   10  C5  UNL     1      -2.235  -1.241   0.171  1.00  0.00     0.015 C 
HETATM   11  C6  UNL     1      -3.295  -0.568   1.026  1.00  0.00     0.001 C 
HETATM   12  C7  UNL     1      -4.087   0.362   0.102  1.00  0.00     0.000 C 
HETATM   13  C8  UNL     1      -3.085   1.163  -0.691  1.00  0.00     0.001 C 
HETATM   14  C9  UNL     1      -1.737   1.201  -0.002  1.00  0.00     0.015 C 
ENDBRANCH   8   9
ENDBRANCH   1   8
TORSDOF 4
