REMARK  11 active torsions:
REMARK  status: ('A' for Active; 'I' for Inactive)
REMARK    1  A    between atoms: N1_2  and  C3_4 
REMARK    2  A    between atoms: C8_10  and  O2_11 
REMARK    3  A    between atoms: O2_11  and  C9_12 
REMARK    4  A    between atoms: C10_13  and  O3_14 
REMARK    5  A    between atoms: C11_16  and  O4_17 
REMARK    6  A    between atoms: C17_24  and  O5_25 
REMARK    7  A    between atoms: O5_25  and  C18_26 
REMARK    8  A    between atoms: C20_29  and  O7_31 
REMARK    9  A    between atoms: C22_33  and  O8_34 
REMARK   10  A    between atoms: C23_36  and  O9_37 
REMARK   11  A    between atoms: C27_42  and  O10_43 
ROOT
HETATM    1  C9  UNL     1       0.776  -0.689  -0.349  1.00  0.00     0.166 C 
HETATM    2  C10 UNL     1       0.677  -1.609  -1.502  1.00  0.00     0.183 C 
HETATM    3  C11 UNL     1      -0.673  -2.164  -1.767  1.00  0.00     0.096 C 
HETATM    4  C12 UNL     1      -0.738  -3.621  -2.045  1.00  0.00     0.041 C 
HETATM    5  C13 UNL     1      -2.151  -3.989  -1.700  1.00  0.00     0.004 C 
HETATM    6  C14 UNL     1      -2.793  -2.723  -1.109  1.00  0.00     0.015 C 
HETATM    7  C15 UNL     1      -1.566  -2.043  -0.552  1.00  0.00     0.017 C 
HETATM    8  C16 UNL     1      -1.076  -2.869   0.606  1.00  0.00     0.021 C 
HETATM    9  C17 UNL     1      -1.735  -0.645  -0.111  1.00  0.00     0.146 C 
HETATM   10  C24 UNL     1      -0.445   0.137  -0.064  1.00  0.00     0.008 C 
HETATM   11  C25 UNL     1      -0.278   0.698   1.332  1.00  0.00     0.020 C 
HETATM   12  C26 UNL     1      -0.518   1.320  -1.004  1.00  0.00     0.020 C 
ENDROOT
BRANCH   1  13
HETATM   13  O2  UNL     1       1.817   0.214  -0.561  1.00  0.00    -0.350 OA
BRANCH  13  14
HETATM   14  C8  UNL     1       2.821   0.143   0.373  1.00  0.00     0.292 C 
HETATM   15  O1  UNL     1       2.892   1.396   0.993  1.00  0.00    -0.348 OA
HETATM   16  C5  UNL     1       3.845   1.432   1.998  1.00  0.00     0.059 C 
HETATM   17  C4  UNL     1       5.177   0.864   1.572  1.00  0.00     0.076 C 
HETATM   18  C6  UNL     1       4.075   2.895   2.339  1.00  0.00     0.045 C 
HETATM   19  C7  UNL     1       3.349   0.694   3.227  1.00  0.00     0.045 C 
HETATM   20  C3  UNL     1       5.213   0.816   0.080  1.00  0.00     0.258 C 
HETATM   21  C27 UNL     1       4.113  -0.124  -0.372  1.00  0.00     0.206 C 
BRANCH  20  22
HETATM   22  N1  UNL     1       6.492   0.371  -0.438  1.00  0.00     0.087 N 
HETATM   23  C1  UNL     1       7.549   1.290  -0.065  1.00  0.00     0.310 C 
HETATM   24  C2  UNL     1       6.443   0.366  -1.890  1.00  0.00     0.310 C 
ENDBRANCH  20  22
BRANCH  21  25
HETATM   25  O10 UNL     1       4.514  -1.463  -0.230  1.00  0.00    -0.388 OA
ATOM     26  H10 UNL     1       3.825  -2.052  -0.513  1.00  0.00     0.210 HD
ENDBRANCH  21  25
ENDBRANCH  13  14
ENDBRANCH   1  13
BRANCH   2  27
HETATM   27  O3  UNL     1       1.551  -2.702  -1.325  1.00  0.00    -0.390 OA
ATOM     28  H3  UNL     1       1.487  -3.293  -2.066  1.00  0.00     0.210 HD
ENDBRANCH   2  27
BRANCH   3  29
HETATM   29  O4  UNL     1      -1.326  -1.522  -2.830  1.00  0.00    -0.386 OA
ATOM     30  H4  UNL     1      -2.191  -1.877  -3.000  1.00  0.00     0.210 HD
ENDBRANCH   3  29
BRANCH   9  31
HETATM   31  O5  UNL     1      -2.678  -0.011  -0.935  1.00  0.00    -0.352 OA
BRANCH  31  32
HETATM   32  C18 UNL     1      -3.797   0.422  -0.263  1.00  0.00     0.291 C 
HETATM   33  O6  UNL     1      -3.710   1.848  -0.225  1.00  0.00    -0.355 OA
HETATM   34  C19 UNL     1      -4.548   2.263   0.786  1.00  0.00     0.211 C 
HETATM   35  C20 UNL     1      -5.981   1.893   0.581  1.00  0.00     0.104 C 
HETATM   36  C21 UNL     1      -6.723   2.099   1.885  1.00  0.00     0.051 C 
HETATM   37  C22 UNL     1      -6.185   0.475   0.151  1.00  0.00     0.187 C 
HETATM   38  C23 UNL     1      -5.110   0.138  -0.892  1.00  0.00     0.205 C 
BRANCH  35  39
HETATM   39  O7  UNL     1      -6.529   2.786  -0.348  1.00  0.00    -0.385 OA
ATOM     40  H7  UNL     1      -7.440   2.551  -0.478  1.00  0.00     0.210 HD
ENDBRANCH  35  39
BRANCH  37  41
HETATM   41  O8  UNL     1      -7.456   0.330  -0.406  1.00  0.00    -0.390 OA
ATOM     42  H8  UNL     1      -7.586  -0.571  -0.679  1.00  0.00     0.210 HD
ENDBRANCH  37  41
BRANCH  38  43
HETATM   43  O9  UNL     1      -5.326   1.027  -1.946  1.00  0.00    -0.388 OA
ATOM     44  H9  UNL     1      -6.167   0.845  -2.349  1.00  0.00     0.210 HD
ENDBRANCH  38  43
ENDBRANCH  31  32
ENDBRANCH   9  31
TORSDOF 11
