REMARK  8 active torsions:
REMARK  status: ('A' for Active; 'I' for Inactive)
REMARK    1  A    between atoms: C2_2  and  N1_3 
REMARK    2  A    between atoms: N1_3  and  C3_5 
REMARK    3  A    between atoms: C3_5  and  N2_7 
REMARK    4  A    between atoms: N2_7  and  C4_9 
REMARK    5  A    between atoms: C4_9  and  N3_11 
REMARK    6  A    between atoms: N3_11  and  C5_13 
REMARK    7  A    between atoms: C5_13  and  C6_14 
REMARK    8  A    between atoms: C5_13  and  C8_19 
REMARK       I    between atoms: C6_14  and  N4_16 
ROOT
HETATM    1  N3  UNL     1       0.405  -0.596   0.703  1.00  0.00    -0.353 N 
ATOM      2  H3  UNL     1       0.808   0.257   1.091  1.00  0.00     0.162 HD
ENDROOT
BRANCH   1   3
HETATM    3  C4  UNL     1       1.229  -1.334  -0.177  1.00  0.00     0.174 C 
HETATM    4  S2  UNL     1       0.730  -2.734  -0.839  1.00  0.00    -0.041 SA
BRANCH   3   5
HETATM    5  N2  UNL     1       2.522  -0.870  -0.471  1.00  0.00    -0.310 N 
ATOM      6  H2  UNL     1       2.818  -0.001  -0.027  1.00  0.00     0.170 HD
BRANCH   5   7
HETATM    7  C3  UNL     1       3.445  -1.503  -1.327  1.00  0.00     0.173 C 
HETATM    8  S1  UNL     1       3.127  -2.895  -2.120  1.00  0.00    -0.041 SA
BRANCH   7   9
HETATM    9  N1  UNL     1       4.750  -0.941  -1.554  1.00  0.00    -0.367 N 
ATOM     10  H1  UNL     1       5.424  -1.394  -2.172  1.00  0.00     0.161 HD
BRANCH   9  11
HETATM   11  C2  UNL     1       5.064   0.286  -0.873  1.00  0.00     0.117 C 
HETATM   12  C1  UNL     1       6.457   0.792  -1.167  1.00  0.00     0.026 C 
ENDBRANCH   9  11
ENDBRANCH   7   9
ENDBRANCH   5   7
ENDBRANCH   3   5
ENDBRANCH   1   3
BRANCH   1  13
HETATM   13  C5  UNL     1      -0.948  -0.913   1.117  1.00  0.00     0.180 C 
BRANCH  13  14
HETATM   14  C6  UNL     1      -1.208  -0.042   2.279  1.00  0.00     0.240 C 
HETATM   15  O1  UNL     1      -0.563   0.970   2.601  1.00  0.00    -0.271 OA
HETATM   16  N4  UNL     1      -2.287  -0.383   3.113  1.00  0.00    -0.364 N 
HETATM   17  C7  UNL     1      -2.648   0.402   4.284  1.00  0.00     0.149 C 
ATOM     18  H4  UNL     1      -2.838  -1.212   2.889  1.00  0.00     0.161 HD
ENDBRANCH  13  14
BRANCH  13  19
HETATM   19  C8  UNL     1      -1.788  -0.613  -0.084  1.00  0.00     0.017 C 
HETATM   20  C9  UNL     1      -1.627   0.878  -0.466  1.00  0.00     0.007 C 
HETATM   21  C10 UNL     1      -2.023   1.020  -1.914  1.00  0.00     0.000 C 
HETATM   22  C11 UNL     1      -3.377   0.346  -2.180  1.00  0.00     0.000 C 
HETATM   23  C12 UNL     1      -4.030   0.180  -0.822  1.00  0.00     0.000 C 
HETATM   24  C13 UNL     1      -3.217  -0.909  -0.087  1.00  0.00     0.007 C 
ENDBRANCH  13  19
ENDBRANCH   1  13
TORSDOF 8
