REMARK  7 active torsions:
REMARK  status: ('A' for Active; 'I' for Inactive)
REMARK    1  A    between atoms: N1_1  and  C1_4 
REMARK    2  A    between atoms: C5_13  and  C6_14 
REMARK    3  A    between atoms: C6_14  and  N4_15 
REMARK    4  A    between atoms: C6_14  and  C7_19 
REMARK    5  A    between atoms: N6_23  and  C9_24 
REMARK    6  A    between atoms: C9_24  and  N7_25 
REMARK    7  A    between atoms: N7_25  and  N8_26 
ROOT
HETATM    1  C1  UNL     1      -4.158  -1.433   0.075  1.00  0.00     0.706 A 
HETATM    2  N2  UNL     1      -3.379  -2.384   0.600  1.00  0.00    -0.019 N 
ATOM      3  H2  UNL     1      -3.711  -3.280   0.956  1.00  0.00     0.203 HD
HETATM    4  C2  UNL     1      -2.094  -1.987   0.590  1.00  0.00     0.721 A 
HETATM    5  N3  UNL     1      -0.825  -2.334   0.914  1.00  0.00    -0.181 N 
ATOM      6  H3  UNL     1      -0.546  -3.215   1.345  1.00  0.00     0.184 HD
HETATM    7  C3  UNL     1       0.002  -1.341   0.581  1.00  0.00     0.146 A 
HETATM    8  C4  UNL     1       1.380  -1.179   0.698  1.00  0.00     0.213 A 
HETATM    9  O1  UNL     1       2.071  -2.102   1.202  1.00  0.00    -0.285 OA
HETATM   10  C5  UNL     1       1.943  -0.008   0.257  1.00  0.00     0.049 A 
HETATM   11  C8  UNL     1       1.105   0.927  -0.273  1.00  0.00     0.108 A 
HETATM   12  N6  UNL     1      -0.231   0.777  -0.391  1.00  0.00    -0.323 N 
HETATM   13  C10 UNL     1      -0.816  -0.346   0.027  1.00  0.00     0.180 A 
HETATM   14  N9  UNL     1      -2.103  -0.749   0.037  1.00  0.00    -0.052 N 
HETATM   15  N10 UNL     1      -3.346  -0.420  -0.271  1.00  0.00    -0.109 N 
ATOM     16  H10 UNL     1      -3.640   0.457  -0.700  1.00  0.00     0.207 HD
ENDROOT
BRANCH  10  17
HETATM   17  C6  UNL     1       3.411   0.160   0.384  1.00  0.00     0.310 C 
BRANCH  17  18
HETATM   18  N4  UNL     1       3.797   0.510   1.739  1.00  0.00    -0.062 N 
ATOM     19  H43 UNL     1       3.299   1.338   2.065  1.00  0.00     0.275 HD
ATOM     20  H42 UNL     1       3.441  -0.167   2.414  1.00  0.00     0.275 HD
ATOM     21  H41 UNL     1       4.807   0.626   1.826  1.00  0.00     0.275 HD
ENDBRANCH  17  18
BRANCH  17  22
HETATM   22  C7  UNL     1       4.145  -1.062  -0.053  1.00  0.00     0.266 C 
HETATM   23  N5  UNL     1       3.940  -1.607  -1.349  1.00  0.00    -0.060 NA
HETATM   24  O2  UNL     1       4.952  -1.615   0.727  1.00  0.00    -0.274 OA
ENDBRANCH  17  22
ENDBRANCH  10  17
BRANCH  12  25
HETATM   25  C9  UNL     1      -1.017   1.823  -0.992  1.00  0.00     0.264 C 
BRANCH  25  26
HETATM   26  N7  UNL     1      -1.497   2.686   0.084  1.00  0.00    -0.128 NA
BRANCH  26  27
HETATM   27  N8  UNL     1      -2.252   3.690  -0.495  1.00  0.00    -0.347 N 
ATOM     28  H82 UNL     1      -2.432   3.795  -1.494  1.00  0.00     0.172 HD
ATOM     29  H81 UNL     1      -2.587   4.293   0.256  1.00  0.00     0.172 HD
ENDBRANCH  26  27
ENDBRANCH  25  26
ENDBRANCH  12  25
BRANCH   1  30
HETATM   30  N1  UNL     1      -5.461  -1.469  -0.078  1.00  0.00    -0.233 N 
ATOM     31  H12 UNL     1      -6.077  -2.238   0.185  1.00  0.00     0.174 HD
ATOM     32  H11 UNL     1      -6.055  -0.743  -0.479  1.00  0.00     0.174 HD
ENDBRANCH   1  30
TORSDOF 7
