REMARK  8 active torsions:
REMARK  status: ('A' for Active; 'I' for Inactive)
REMARK    1  A    between atoms: N1_1  and  C1_4 
REMARK    2  A    between atoms: C3_8  and  O1_9 
REMARK    3  A    between atoms: C4_11  and  C5_12 
REMARK       I    between atoms: N3_13  and  C6_15 
REMARK    4  A    between atoms: C6_15  and  C7_17 
REMARK    5  A    between atoms: C7_17  and  N4_18 
REMARK    6  A    between atoms: C7_17  and  C8_22 
REMARK    7  A    between atoms: C8_22  and  N5_23 
REMARK    8  A    between atoms: N6_29  and  C10_30 
ROOT
HETATM    1  C1  UNL     1       4.686  -1.088  -1.002  1.00  0.00     0.678 A 
HETATM    2  N2  UNL     1       3.706  -0.508  -1.716  1.00  0.00    -0.185 N 
ATOM      3  H2  UNL     1       3.768  -0.294  -2.711  1.00  0.00     0.184 HD
HETATM    4  C2  UNL     1       2.642  -0.249  -0.955  1.00  0.00     0.128 A 
HETATM    5  C3  UNL     1       1.429   0.313  -1.190  1.00  0.00     0.114 A 
HETATM    6  C4  UNL     1       0.521   0.440  -0.151  1.00  0.00     0.084 A 
HETATM    7  C9  UNL     1       0.908  -0.019   1.091  1.00  0.00     0.270 A 
HETATM    8  O3  UNL     1       0.092   0.087   2.063  1.00  0.00    -0.266 OA
HETATM    9  N6  UNL     1       2.102  -0.578   1.348  1.00  0.00    -0.237 N 
HETATM   10  C11 UNL     1       2.962  -0.687   0.313  1.00  0.00     0.163 A 
HETATM   11  N7  UNL     1       4.211  -1.191   0.251  1.00  0.00    -0.174 N 
ATOM     12  H7  UNL     1       4.720  -1.591   1.039  1.00  0.00     0.186 HD
ENDROOT
BRANCH   6  13
HETATM   13  C5  UNL     1      -0.791   1.044  -0.384  1.00  0.00     0.111 C 
HETATM   14  N3  UNL     1      -1.599   1.138   0.616  1.00  0.00    -0.334 N 
HETATM   15  C6  UNL     1      -2.865   1.728   0.364  1.00  0.00     0.253 C 
ATOM     16  H3  UNL     1      -1.341   0.804   1.545  1.00  0.00     0.168 HD
HETATM   17  O2  UNL     1      -3.052   2.917   0.715  1.00  0.00    -0.271 OA
BRANCH  15  18
HETATM   18  C7  UNL     1      -3.904   0.912  -0.301  1.00  0.00     0.300 C 
BRANCH  18  19
HETATM   19  N4  UNL     1      -5.072   1.760  -0.464  1.00  0.00    -0.065 N 
ATOM     20  H43 UNL     1      -5.389   2.177   0.411  1.00  0.00     0.275 HD
ATOM     21  H42 UNL     1      -4.870   2.630  -0.957  1.00  0.00     0.275 HD
ATOM     22  H41 UNL     1      -5.789   1.197  -0.923  1.00  0.00     0.275 HD
ENDBRANCH  18  19
BRANCH  18  23
HETATM   23  C8  UNL     1      -4.199  -0.285   0.568  1.00  0.00     0.272 C 
BRANCH  23  24
HETATM   24  N5  UNL     1      -2.986  -1.043   0.720  1.00  0.00    -0.077 N 
ATOM     25  H53 UNL     1      -2.569  -1.300  -0.175  1.00  0.00     0.274 HD
ATOM     26  H52 UNL     1      -2.213  -0.480   1.076  1.00  0.00     0.274 HD
ATOM     27  H51 UNL     1      -3.185  -1.852   1.308  1.00  0.00     0.274 HD
ENDBRANCH  23  24
ENDBRANCH  18  23
ENDBRANCH  15  18
ENDBRANCH   6  13
BRANCH   5  28
HETATM   28  O1  UNL     1       1.078   0.768  -2.475  1.00  0.00    -0.357 OA
ATOM     29  H1  UNL     1       0.229   1.161  -2.639  1.00  0.00     0.217 HD
ENDBRANCH   5  28
BRANCH   9  30
HETATM   30  C10 UNL     1       2.463  -1.040   2.644  1.00  0.00     0.364 C 
HETATM   31  O4  UNL     1       1.682  -0.950   3.620  1.00  0.00    -0.283 OA
ENDBRANCH   9  30
BRANCH   1  32
HETATM   32  N1  UNL     1       5.853  -1.462  -1.464  1.00  0.00    -0.234 N 
ATOM     33  H12 UNL     1       6.214  -1.384  -2.415  1.00  0.00     0.174 HD
ATOM     34  H11 UNL     1       6.597  -1.902  -0.922  1.00  0.00     0.174 HD
ENDBRANCH   1  32
TORSDOF 8
