REMARK  6 active torsions:
REMARK  status: ('A' for Active; 'I' for Inactive)
REMARK    1  A    between atoms: N1_2  and  C2_4 
REMARK    2  A    between atoms: C3_7  and  O1_8 
REMARK    3  A    between atoms: C5_10  and  C6_11 
REMARK    4  A    between atoms: C6_11  and  N3_12 
REMARK    5  A    between atoms: N3_12  and  C7_14 
REMARK    6  A    between atoms: C10_17  and  C11_18 
ROOT
HETATM    1  C2  UNL     1       5.788  -0.432  -0.228  1.00  0.00     0.680 A 
HETATM    2  N2  UNL     1       4.794   0.465  -0.270  1.00  0.00    -0.170 N 
ATOM      3  H2  UNL     1       5.047   1.453  -0.294  1.00  0.00     0.186 HD
HETATM    4  C3  UNL     1       3.518   0.162  -0.282  1.00  0.00     0.172 A 
HETATM    5  C5  UNL     1       3.134  -1.219  -0.245  1.00  0.00     0.070 A 
HETATM    6  C17 UNL     1       4.144  -2.096  -0.208  1.00  0.00     0.135 A 
HETATM    7 CL1  UNL     1       3.845  -3.818  -0.068  1.00  0.00    -0.063 Cl
HETATM    8  N4  UNL     1       5.471  -1.713  -0.200  1.00  0.00    -0.180 N 
ATOM      9  H4  UNL     1       6.206  -2.420  -0.172  1.00  0.00     0.185 HD
ENDROOT
BRANCH   5  10
HETATM   10  C6  UNL     1       1.724  -1.384   0.008  1.00  0.00     0.102 C 
BRANCH  10  11
HETATM   11  N3  UNL     1       0.753  -1.688  -0.966  1.00  0.00    -0.393 N 
ATOM     12  H3  UNL     1       0.939  -1.996  -1.921  1.00  0.00     0.159 HD
BRANCH  11  13
HETATM   13  C7  UNL     1      -0.596  -1.482  -0.359  1.00  0.00     0.081 C 
HETATM   14  C8  UNL     1      -1.621  -1.540  -1.436  1.00  0.00     0.025 C 
HETATM   15  C9  UNL     1      -2.868  -0.784  -1.264  1.00  0.00     0.007 C 
HETATM   16  C10 UNL     1      -2.912   0.315  -0.238  1.00  0.00    -0.007 C 
HETATM   17  C15 UNL     1      -2.095  -0.121   0.974  1.00  0.00     0.007 C 
HETATM   18  C16 UNL     1      -0.660  -0.197   0.414  1.00  0.00     0.025 C 
BRANCH  16  19
HETATM   19  C11 UNL     1      -4.315   0.627   0.237  1.00  0.00    -0.048 C 
HETATM   20  C12 UNL     1      -4.356   1.802   1.164  1.00  0.00     0.015 C 
HETATM   21  C13 UNL     1      -5.200   0.877  -0.948  1.00  0.00     0.015 C 
HETATM   22  C14 UNL     1      -4.920  -0.542   1.020  1.00  0.00     0.015 C 
ENDBRANCH  16  19
ENDBRANCH  11  13
ENDBRANCH  10  11
ENDBRANCH   5  10
BRANCH   4  23
HETATM   23  O1  UNL     1       2.531   1.117  -0.340  1.00  0.00    -0.340 OA
HETATM   24  C4  UNL     1       2.751   2.515  -0.396  1.00  0.00     0.211 C 
ENDBRANCH   4  23
BRANCH   1  25
HETATM   25  N1  UNL     1       7.033  -0.013  -0.172  1.00  0.00    -0.230 N 
HETATM   26  C1  UNL     1       7.164   1.460  -0.148  1.00  0.00     0.165 C 
ATOM     27  H1  UNL     1       7.834  -0.645  -0.147  1.00  0.00     0.177 HD
ENDBRANCH   1  25
TORSDOF 6
