REMARK  14 active torsions:
REMARK  status: ('A' for Active; 'I' for Inactive)
REMARK       I    between atoms: N1_2  and  C2_4 
REMARK    1  A    between atoms: C2_4  and  C3_6 
REMARK    2  A    between atoms: C3_6  and  N2_7 
REMARK    3  A    between atoms: C3_6  and  C4_11 
REMARK    4  A    between atoms: C4_11  and  O2_12 
REMARK    5  A    between atoms: C4_11  and  C5_14 
REMARK    6  A    between atoms: C6_18  and  N4_19 
REMARK    7  A    between atoms: N4_19  and  C7_21 
REMARK    8  A    between atoms: C8_22  and  O4_23 
REMARK    9  A    between atoms: C9_25  and  C10_26 
REMARK   10  A    between atoms: C10_26  and  O5_27 
REMARK   11  A    between atoms: C10_26  and  N5_29 
REMARK   12  A    between atoms: N5_29  and  N6_31 
REMARK   13  A    between atoms: C11_34  and  O6_35 
REMARK   14  A    between atoms: C15_43  and  O9_44 
ROOT
HETATM    1  C5  UNL     1      -2.483  -1.597   0.492  1.00  0.00     0.144 A 
HETATM    2  O3  UNL     1      -1.711  -1.138  -0.465  1.00  0.00    -0.235 OA
HETATM    3  N3  UNL     1      -0.561  -0.672  -0.279  1.00  0.00    -0.241 N 
ATOM      4  H3  UNL     1      -0.043  -0.343  -1.094  1.00  0.00     0.196 HD
HETATM    5  C6  UNL     1       0.033  -0.578   0.920  1.00  0.00     0.181 A 
HETATM    6  C14 UNL     1      -0.723  -1.032   1.984  1.00  0.00     0.253 A 
HETATM    7  O8  UNL     1      -0.229  -0.972   3.129  1.00  0.00    -0.281 OA
HETATM    8  C15 UNL     1      -1.960  -1.529   1.774  1.00  0.00     0.155 A 
ENDROOT
BRANCH   5   9
HETATM    9  N4  UNL     1       1.298  -0.029   1.128  1.00  0.00    -0.321 N 
ATOM     10  H4  UNL     1       1.478   0.297   2.078  1.00  0.00     0.169 HD
BRANCH   9  11
HETATM   11  C7  UNL     1       2.374   0.145   0.216  1.00  0.00     0.146 A 
HETATM   12  C8  UNL     1       3.228   1.197   0.356  1.00  0.00     0.128 A 
HETATM   13  C9  UNL     1       4.399   1.375  -0.396  1.00  0.00     0.092 A 
HETATM   14  C11 UNL     1       4.689   0.405  -1.336  1.00  0.00     0.152 A 
HETATM   15  C12 UNL     1       3.825  -0.650  -1.467  1.00  0.00     0.283 A 
HETATM   16  O7  UNL     1       4.057  -1.555  -2.324  1.00  0.00    -0.265 OA
HETATM   17  N7  UNL     1       2.692  -0.787  -0.710  1.00  0.00    -0.300 N 
HETATM   18  C13 UNL     1       2.004  -2.055  -0.853  1.00  0.00     0.161 C 
BRANCH  12  19
HETATM   19  O4  UNL     1       2.970   2.199   1.288  1.00  0.00    -0.356 OA
ATOM     20  H4  UNL     1       3.566   2.933   1.386  1.00  0.00     0.218 HD
ENDBRANCH  12  19
BRANCH  13  21
HETATM   21  C10 UNL     1       5.225   2.530  -0.234  1.00  0.00     0.170 C 
BRANCH  21  22
HETATM   22  O5  UNL     1       4.732   3.407   0.659  1.00  0.00    -0.344 OA
ATOM     23  H5  UNL     1       5.281   4.175   0.767  1.00  0.00     0.219 HD
ENDBRANCH  21  22
BRANCH  21  24
HETATM   24  N5  UNL     1       6.416   2.938  -0.814  1.00  0.00    -0.286 N 
ATOM     25  H5  UNL     1       6.814   2.305  -1.508  1.00  0.00     0.188 HD
BRANCH  24  26
HETATM   26  N6  UNL     1       7.137   4.102  -0.568  1.00  0.00    -0.343 N 
ATOM     27  H62 UNL     1       6.724   4.721   0.129  1.00  0.00     0.176 HD
ATOM     28  H61 UNL     1       8.013   4.402  -0.995  1.00  0.00     0.176 HD
ENDBRANCH  24  26
ENDBRANCH  21  24
ENDBRANCH  13  21
BRANCH  14  29
HETATM   29  O6  UNL     1       5.833   0.461  -2.134  1.00  0.00    -0.355 OA
ATOM     30  H6  UNL     1       6.032  -0.206  -2.780  1.00  0.00     0.218 HD
ENDBRANCH  14  29
ENDBRANCH   9  11
ENDBRANCH   5   9
BRANCH   8  31
HETATM   31  O9  UNL     1      -2.750  -1.984   2.853  1.00  0.00    -0.355 OA
ATOM     32  H9  UNL     1      -2.392  -1.937   3.732  1.00  0.00     0.218 HD
ENDBRANCH   8  31
BRANCH   1  33
HETATM   33  C4  UNL     1      -3.793  -2.191   0.274  1.00  0.00     0.220 C 
BRANCH  33  34
HETATM   34  C3  UNL     1      -4.985  -1.484  -0.201  1.00  0.00     0.309 C 
BRANCH  34  35
HETATM   35  C2  UNL     1      -4.830  -0.266  -1.007  1.00  0.00     0.251 C 
HETATM   36  N1  UNL     1      -5.750   0.803  -0.733  1.00  0.00    -0.364 N 
HETATM   37  C1  UNL     1      -5.788   2.078  -1.379  1.00  0.00     0.149 C 
ATOM     38  H1  UNL     1      -6.445   0.636  -0.005  1.00  0.00     0.161 HD
HETATM   39  O1  UNL     1      -3.984  -0.138  -1.876  1.00  0.00    -0.271 OA
ENDBRANCH  34  35
BRANCH  34  40
HETATM   40  N2  UNL     1      -5.784  -0.968   0.993  1.00  0.00    -0.064 N 
ATOM     41  H23 UNL     1      -5.369  -0.175   1.482  1.00  0.00     0.275 HD
ATOM     42  H22 UNL     1      -6.654  -0.490   0.758  1.00  0.00     0.275 HD
ATOM     43  H21 UNL     1      -5.892  -1.814   1.553  1.00  0.00     0.275 HD
ENDBRANCH  34  40
ENDBRANCH  33  34
BRANCH  33  44
HETATM   44  O2  UNL     1      -3.475  -2.946  -1.055  1.00  0.00    -0.386 OA
ATOM     45  H2  UNL     1      -2.702  -3.404  -0.747  1.00  0.00     0.210 HD
ENDBRANCH  33  44
ENDBRANCH   1  33
TORSDOF 14
