REMARK  15 active torsions:
REMARK  status: ('A' for Active; 'I' for Inactive)
REMARK    1  A    between atoms: C3_3  and  C4_4 
REMARK    2  A    between atoms: C4_4  and  O2_6 
REMARK    3  A    between atoms: O2_6  and  C5_7 
REMARK    4  A    between atoms: C7_10  and  C8_11 
REMARK    5  A    between atoms: C10_15  and  O6_16 
REMARK    6  A    between atoms: C11_18  and  O7_19 
REMARK    7  A    between atoms: O7_19  and  C12_20 
REMARK    8  A    between atoms: C12_20  and  C13_22 
REMARK    9  A    between atoms: C15_24  and  O9_25 
REMARK   10  A    between atoms: C16_27  and  O10_28 
REMARK   11  A    between atoms: C17_30  and  O11_31 
REMARK   12  A    between atoms: C19_33  and  C20_34 
REMARK   13  A    between atoms: C20_34  and  O12_36 
REMARK   14  A    between atoms: C22_38  and  O13_39 
REMARK   15  A    between atoms: C23_41  and  O14_42 
ROOT
HETATM    1  C5  UNL     1       4.830   1.213   1.546  1.00  0.00     0.178 C 
HETATM    2  C6  UNL     1       3.826   1.213   0.712  1.00  0.00     0.077 C 
HETATM    3  O3  UNL     1       3.876   1.569  -0.615  1.00  0.00    -0.337 OA
HETATM    4  C7  UNL     1       2.536   1.821  -1.124  1.00  0.00     0.236 C 
HETATM    5  C9  UNL     1       1.693   1.715   0.054  1.00  0.00     0.070 C 
HETATM    6  C10 UNL     1       0.249   1.363  -0.065  1.00  0.00     0.158 C 
HETATM    7  C11 UNL     1      -0.070  -0.076  -0.197  1.00  0.00     0.192 C 
HETATM    8  C22 UNL     1       0.748  -0.967   0.700  1.00  0.00     0.179 C 
HETATM    9  C23 UNL     1       2.184  -0.637   0.811  1.00  0.00     0.160 C 
HETATM   10  C24 UNL     1       2.435   0.830   1.027  1.00  0.00     0.085 C 
ENDROOT
BRANCH   7  11
HETATM   11  O7  UNL     1      -1.420  -0.293   0.254  1.00  0.00    -0.307 OA
BRANCH  11  12
HETATM   12  C12 UNL     1      -2.392  -0.875  -0.551  1.00  0.00     0.295 C 
HETATM   13  O8  UNL     1      -2.051  -1.183  -1.706  1.00  0.00    -0.259 OA
BRANCH  12  14
HETATM   14  C13 UNL     1      -3.734  -1.121  -0.059  1.00  0.00     0.057 A 
HETATM   15  C14 UNL     1      -3.842  -2.168   0.892  1.00  0.00     0.058 A 
HETATM   16  C15 UNL     1      -5.063  -2.563   1.363  1.00  0.00     0.102 A 
HETATM   17  C16 UNL     1      -6.206  -1.953   0.928  1.00  0.00     0.133 A 
HETATM   18  C17 UNL     1      -6.108  -0.932   0.010  1.00  0.00     0.117 A 
HETATM   19  C19 UNL     1      -4.884  -0.499  -0.501  1.00  0.00     0.045 A 
BRANCH  16  20
HETATM   20  O9  UNL     1      -5.176  -3.587   2.292  1.00  0.00    -0.358 OA
ATOM     21  H9  UNL     1      -6.025  -3.862   2.619  1.00  0.00     0.217 HD
ENDBRANCH  16  20
BRANCH  17  22
HETATM   22  O10 UNL     1      -7.438  -2.349   1.399  1.00  0.00    -0.356 OA
ATOM     23  H10 UNL     1      -8.233  -1.925   1.097  1.00  0.00     0.218 HD
ENDBRANCH  17  22
BRANCH  18  24
HETATM   24  O11 UNL     1      -7.327  -0.356  -0.371  1.00  0.00    -0.352 OA
HETATM   25  C18 UNL     1      -7.901   0.685   0.418  1.00  0.00     0.210 C 
ENDBRANCH  18  24
BRANCH  19  26
HETATM   26  C20 UNL     1      -4.790   0.640  -1.412  1.00  0.00     0.053 C 
HETATM   27  C21 UNL     1      -5.952   0.913  -2.315  1.00  0.00     0.077 C 
BRANCH  26  28
HETATM   28  O12 UNL     1      -3.577   0.861  -2.028  1.00  0.00    -0.364 OA
ATOM     29  H12 UNL     1      -3.516   1.601  -2.620  1.00  0.00     0.217 HD
ENDBRANCH  26  28
ENDBRANCH  19  26
ENDBRANCH  12  14
ENDBRANCH  11  12
ENDBRANCH   7  11
BRANCH   6  30
HETATM   30  O6  UNL     1      -0.369   2.150  -0.989  1.00  0.00    -0.392 OA
ATOM     31  H6  UNL     1      -1.289   1.926  -1.065  1.00  0.00     0.210 HD
ENDBRANCH   6  30
BRANCH   8  32
HETATM   32  O13 UNL     1       0.117  -1.011   1.970  1.00  0.00    -0.390 OA
ATOM     33  H13 UNL     1       0.633  -1.573   2.536  1.00  0.00     0.210 HD
ENDBRANCH   8  32
BRANCH   9  34
HETATM   34  O14 UNL     1       2.676  -1.274   1.975  1.00  0.00    -0.392 OA
ATOM     35  H14 UNL     1       3.599  -1.062   2.046  1.00  0.00     0.210 HD
ENDBRANCH   9  34
BRANCH   4  36
HETATM   36  C8  UNL     1       2.291   1.015  -2.303  1.00  0.00     0.204 C 
HETATM   37  O4  UNL     1       1.290   1.165  -3.021  1.00  0.00    -0.646 OA
HETATM   38  O5  UNL     1       3.183   0.029  -2.676  1.00  0.00    -0.646 OA
ENDBRANCH   4  36
BRANCH   1  39
HETATM   39  O2  UNL     1       6.136   1.577   1.228  1.00  0.00    -0.285 OA
BRANCH  39  40
HETATM   40  C4  UNL     1       7.034   0.618   0.842  1.00  0.00     0.287 C 
HETATM   41  O1  UNL     1       6.596  -0.577   0.800  1.00  0.00    -0.260 OA
BRANCH  40  42
HETATM   42  C3  UNL     1       8.397   0.905   0.500  1.00  0.00     0.078 C 
HETATM   43  C2  UNL     1       9.251  -0.002   0.145  1.00  0.00    -0.025 C 
HETATM   44  C1  UNL     1       8.948  -1.434   0.044  1.00  0.00     0.036 C 
ENDBRANCH  40  42
ENDBRANCH  39  40
ENDBRANCH   1  39
TORSDOF 15
