REMARK  5 active torsions:
REMARK  status: ('A' for Active; 'I' for Inactive)
REMARK       I    between atoms: C2_2  and  N1_4 
REMARK    1  A    between atoms: C3_5  and  N2_6 
REMARK       I    between atoms: N2_6  and  C4_8 
REMARK    2  A    between atoms: C4_8  and  C5_10 
REMARK    3  A    between atoms: C5_10  and  N3_12 
REMARK    4  A    between atoms: C7_16  and  C8_17 
REMARK       I    between atoms: C8_17  and  N4_19 
REMARK    5  A    between atoms: N4_19  and  C9_21 
ROOT
HETATM    1  C1  UNL     1      -3.258  -3.490   0.710  1.00  0.00     0.118 C 
HETATM    2  C2  UNL     1      -2.543  -2.211   0.502  1.00  0.00     0.229 C 
HETATM    3  O1  UNL     1      -3.171  -1.182   0.896  1.00  0.00    -0.273 OA
HETATM    4  N1  UNL     1      -1.253  -2.089  -0.085  1.00  0.00    -0.217 N 
HETATM    5  C3  UNL     1      -0.619  -0.866  -0.190  1.00  0.00     0.142 A 
HETATM    6  C7  UNL     1       0.594  -0.754  -0.814  1.00  0.00     0.145 A 
HETATM    7  C12 UNL     1       1.217  -1.894  -1.378  1.00  0.00     0.269 A 
HETATM    8  O4  UNL     1       2.333  -1.815  -1.967  1.00  0.00    -0.267 OA
HETATM    9  N6  UNL     1       0.578  -3.052  -1.260  1.00  0.00    -0.274 N 
ATOM     10  H6  UNL     1       0.995  -3.896  -1.652  1.00  0.00     0.173 HD
HETATM   11  C13 UNL     1      -0.616  -3.132  -0.630  1.00  0.00     0.337 A 
HETATM   12  O5  UNL     1      -1.162  -4.270  -0.555  1.00  0.00    -0.246 OA
ENDROOT
BRANCH   6  13
HETATM   13  C8  UNL     1       1.479   0.398  -0.748  1.00  0.00     0.267 C 
HETATM   14  O3  UNL     1       1.293   1.355   0.004  1.00  0.00    -0.267 OA
HETATM   15  N4  UNL     1       2.656   0.465  -1.599  1.00  0.00    -0.303 N 
ATOM     16  H4  UNL     1       2.637   0.297  -2.605  1.00  0.00     0.171 HD
BRANCH  15  17
HETATM   17  C9  UNL     1       3.750   0.766  -0.929  1.00  0.00     0.152 A 
HETATM   18  N5  UNL     1       4.967   0.893  -1.454  1.00  0.00    -0.344 N 
HETATM   19  C10 UNL     1       5.957   1.196  -0.666  1.00  0.00     0.121 A 
ATOM     20  H5  UNL     1       5.120   0.756  -2.453  1.00  0.00     0.167 HD
HETATM   21  C11 UNL     1       5.687   1.367   0.666  1.00  0.00     0.093 A 
HETATM   22 CL1  UNL     1       6.821   1.778   1.959  1.00  0.00    -0.075 Cl
HETATM   23  S1  UNL     1       4.004   1.082   0.727  1.00  0.00    -0.040 SA
ENDBRANCH  15  17
ENDBRANCH   6  13
BRANCH   5  24
HETATM   24  N2  UNL     1      -1.281   0.214   0.439  1.00  0.00    -0.310 N 
HETATM   25  C4  UNL     1      -1.580   1.483  -0.073  1.00  0.00     0.253 C 
HETATM   26  O2  UNL     1      -1.405   1.726  -1.301  1.00  0.00    -0.271 OA
ATOM     27  H2  UNL     1      -1.583   0.045   1.399  1.00  0.00     0.170 HD
BRANCH  25  28
HETATM   28  C5  UNL     1      -2.112   2.601   0.786  1.00  0.00     0.271 C 
HETATM   29  C6  UNL     1      -3.444   2.999   0.200  1.00  0.00     0.050 C 
BRANCH  28  30
HETATM   30  N3  UNL     1      -2.247   2.152   2.139  1.00  0.00    -0.067 N 
ATOM     31  H33 UNL     1      -2.819   1.310   2.208  1.00  0.00     0.275 HD
ATOM     32  H32 UNL     1      -1.375   1.769   2.505  1.00  0.00     0.275 HD
ATOM     33  H31 UNL     1      -2.607   2.909   2.720  1.00  0.00     0.275 HD
ENDBRANCH  28  30
ENDBRANCH  25  28
ENDBRANCH   5  24
TORSDOF 5
