REMARK  11 active torsions:
REMARK  status: ('A' for Active; 'I' for Inactive)
REMARK    1  A    between atoms: C2_2  and  C4_4 
REMARK       I    between atoms: C4_4  and  N1_6 
REMARK    2  A    between atoms: N1_6  and  C5_8 
REMARK    3  A    between atoms: C5_8  and  C6_9 
REMARK    4  A    between atoms: C5_8  and  C7_11 
REMARK    5  A    between atoms: C7_11  and  C8_12 
REMARK    6  A    between atoms: C8_12  and  C9_13 
REMARK    7  A    between atoms: N2_14  and  N3_16 
REMARK    8  A    between atoms: C11_20  and  O2_21 
REMARK    9  A    between atoms: C12_23  and  O3_24 
REMARK   10  A    between atoms: C13_26  and  C14_27 
REMARK   11  A    between atoms: C14_27  and  O4_28 
ROOT
HETATM    1  C7  UNL     1      -0.822   0.513  -0.529  1.00  0.00     0.089 C 
HETATM    2  C10 UNL     1      -0.477   0.591   0.974  1.00  0.00     0.075 C 
HETATM    3  C11 UNL     1      -1.555   0.012   1.835  1.00  0.00     0.152 C 
HETATM    4  C12 UNL     1      -2.355  -1.089   1.245  1.00  0.00     0.178 C 
HETATM    5  C13 UNL     1      -1.657  -1.623   0.045  1.00  0.00     0.177 C 
HETATM    6  O5  UNL     1      -1.086  -0.782  -0.822  1.00  0.00    -0.367 OA
ENDROOT
BRANCH   1   7
HETATM    7  C5  UNL     1       0.432   0.919  -1.271  1.00  0.00     0.129 C 
BRANCH   7   8
HETATM    8  N1  UNL     1       1.515   0.040  -0.776  1.00  0.00    -0.352 N 
HETATM    9  C4  UNL     1       2.705   0.518  -0.226  1.00  0.00     0.221 C 
HETATM   10  O1  UNL     1       2.836   1.787  -0.158  1.00  0.00    -0.273 OA
ATOM     11  H1  UNL     1       1.384  -0.970  -0.840  1.00  0.00     0.163 HD
BRANCH   9  12
HETATM   12  C2  UNL     1       3.815  -0.286   0.277  1.00  0.00     0.070 C 
HETATM   13  C1  UNL     1       3.314  -1.167   1.400  1.00  0.00     0.019 C 
HETATM   14  C3  UNL     1       4.335  -1.235  -0.804  1.00  0.00     0.019 C 
ENDBRANCH   9  12
ENDBRANCH   7   8
BRANCH   7  15
HETATM   15  C6  UNL     1       0.410   0.610  -2.752  1.00  0.00     0.114 C 
HETATM   16  S1  UNL     1      -0.771   1.510  -3.726  1.00  0.00    -0.095 SA
ENDBRANCH   7  15
ENDBRANCH   1   7
BRANCH   1  17
HETATM   17  C8  UNL     1      -1.952   1.474  -0.708  1.00  0.00     0.086 C 
BRANCH  17  18
HETATM   18  C9  UNL     1      -1.647   2.854  -0.255  1.00  0.00     0.082 C 
HETATM   19  N2  UNL     1      -2.618   3.661   0.001  1.00  0.00    -0.322 N 
ATOM     20  H2  UNL     1      -3.583   3.348  -0.108  1.00  0.00     0.185 HD
BRANCH  19  21
HETATM   21  N3  UNL     1      -2.349   4.972   0.431  1.00  0.00    -0.346 N 
ATOM     22  H32 UNL     1      -1.379   5.269   0.535  1.00  0.00     0.176 HD
ATOM     23  H31 UNL     1      -3.118   5.611   0.634  1.00  0.00     0.176 HD
ENDBRANCH  19  21
ENDBRANCH  17  18
ENDBRANCH   1  17
BRANCH   3  24
HETATM   24  O2  UNL     1      -2.374   0.997   2.394  1.00  0.00    -0.393 OA
ATOM     25  H2  UNL     1      -3.058   0.629   2.941  1.00  0.00     0.210 HD
ENDBRANCH   3  24
BRANCH   5  26
HETATM   26  C14 UNL     1      -0.771  -2.771   0.509  1.00  0.00     0.198 C 
BRANCH  26  27
HETATM   27  O4  UNL     1      -0.367  -3.552  -0.595  1.00  0.00    -0.398 OA
ATOM     28  H4  UNL     1       0.186  -4.268  -0.305  1.00  0.00     0.209 HD
ENDBRANCH  26  27
ENDBRANCH   5  26
BRANCH   4  29
HETATM   29  O3  UNL     1      -2.470  -2.159   2.175  1.00  0.00    -0.390 OA
ATOM     30  H3  UNL     1      -2.982  -2.864   1.797  1.00  0.00     0.210 HD
ENDBRANCH   4  29
TORSDOF 11
