REMARK  12 active torsions:
REMARK  status: ('A' for Active; 'I' for Inactive)
REMARK    1  A    between atoms: C2_2  and  C3_3 
REMARK    2  A    between atoms: C3_3  and  N1_4 
REMARK    3  A    between atoms: N1_4  and  C4_6 
REMARK    4  A    between atoms: C5_9  and  N3_10 
REMARK    5  A    between atoms: N3_10  and  C6_12 
REMARK    6  A    between atoms: C6_12  and  N4_13 
REMARK    7  A    between atoms: C6_12  and  C7_17 
REMARK    8  A    between atoms: C7_17  and  C8_18 
REMARK    9  A    between atoms: C8_18  and  C9_19 
REMARK   10  A    between atoms: C11_23  and  N6_24 
REMARK   11  A    between atoms: N6_24  and  C12_26 
REMARK   12  A    between atoms: C15_32  and  O1_33 
ROOT
HETATM    1  C4  UNL     1      -0.917   1.647  -1.143  1.00  0.00     0.707 A 
HETATM    2  N2  UNL     1       0.302   1.738  -0.601  1.00  0.00    -0.021 N 
ATOM      3  H2  UNL     1       0.842   2.599  -0.684  1.00  0.00     0.203 HD
HETATM    4  C5  UNL     1       0.808   0.672   0.059  1.00  0.00     0.709 A 
HETATM    5  N5  UNL     1       0.092  -0.454   0.164  1.00  0.00    -0.021 N 
ATOM      6  H5  UNL     1       0.475  -1.257   0.662  1.00  0.00     0.203 HD
HETATM    7  C11 UNL     1      -1.142  -0.527  -0.392  1.00  0.00     0.707 A 
HETATM    8  N8  UNL     1      -1.668   0.510  -1.050  1.00  0.00    -0.021 N 
ATOM      9  H8  UNL     1      -2.597   0.455  -1.468  1.00  0.00     0.203 HD
ENDROOT
BRANCH   4  10
HETATM   10  N3  UNL     1       1.979   0.763   0.578  1.00  0.00    -0.196 N 
ATOM     11  H3  UNL     1       2.485   1.642   0.470  1.00  0.00     0.180 HD
BRANCH  10  12
HETATM   12  C6  UNL     1       2.620  -0.303   1.303  1.00  0.00     0.297 C 
BRANCH  12  13
HETATM   13  N4  UNL     1       2.028  -0.466   2.638  1.00  0.00    -0.058 N 
ATOM     14  H43 UNL     1       2.042   0.408   3.164  1.00  0.00     0.276 HD
ATOM     15  H42 UNL     1       1.018  -0.601   2.587  1.00  0.00     0.276 HD
ATOM     16  H41 UNL     1       2.482  -1.221   3.152  1.00  0.00     0.276 HD
ENDBRANCH  12  13
BRANCH  12  17
HETATM   17  C7  UNL     1       4.090  -0.036   1.528  1.00  0.00     0.055 C 
BRANCH  17  18
HETATM   18  C8  UNL     1       4.852   0.121   0.250  1.00  0.00     0.003 C 
BRANCH  18  19
HETATM   19  C9  UNL     1       4.765  -1.118  -0.607  1.00  0.00    -0.004 C 
HETATM   20  C10 UNL     1       5.556  -0.897  -1.889  1.00  0.00     0.005 C 
ENDBRANCH  18  19
ENDBRANCH  17  18
ENDBRANCH  12  17
ENDBRANCH  10  12
ENDBRANCH   4  10
BRANCH   1  21
HETATM   21  N1  UNL     1      -1.478   2.600  -1.792  1.00  0.00    -0.222 N 
ATOM     22  H1  UNL     1      -2.412   2.464  -2.179  1.00  0.00     0.178 HD
BRANCH  21  23
HETATM   23  C3  UNL     1      -0.810   3.856  -1.981  1.00  0.00     0.164 C 
BRANCH  23  24
HETATM   24  C2  UNL     1      -1.080   4.736  -0.829  1.00  0.00    -0.017 C 
HETATM   25  C1  UNL     1      -1.839   4.351   0.159  1.00  0.00     0.008 C 
ENDBRANCH  23  24
ENDBRANCH  21  23
ENDBRANCH   1  21
BRANCH   7  26
HETATM   26  N6  UNL     1      -1.828  -1.611  -0.289  1.00  0.00    -0.216 N 
ATOM     27  H6  UNL     1      -1.419  -2.398   0.215  1.00  0.00     0.178 HD
BRANCH  26  28
HETATM   28  C12 UNL     1      -3.132  -1.765  -0.846  1.00  0.00     0.155 C 
HETATM   29  C13 UNL     1      -3.499  -3.255  -0.881  1.00  0.00     0.260 C 
HETATM   30  N7  UNL     1      -4.926  -3.183  -1.119  1.00  0.00    -0.071 N 
HETATM   31  C14 UNL     1      -5.380  -2.178  -0.191  1.00  0.00     0.266 C 
ATOM     32  H72 UNL     1      -5.182  -3.005  -2.090  1.00  0.00     0.277 HD
ATOM     33  H71 UNL     1      -5.411  -4.077  -1.041  1.00  0.00     0.277 HD
HETATM   34  C15 UNL     1      -4.227  -1.224   0.031  1.00  0.00     0.168 C 
BRANCH  34  35
HETATM   35  O1  UNL     1      -3.823  -1.215   1.368  1.00  0.00    -0.392 OA
ATOM     36  H1  UNL     1      -4.515  -0.873   1.922  1.00  0.00     0.210 HD
ENDBRANCH  34  35
ENDBRANCH  26  28
ENDBRANCH   7  26
TORSDOF 12
