REMARK  4 active torsions:
REMARK  status: ('A' for Active; 'I' for Inactive)
REMARK    1  A    between atoms: N1_1  and  N2_4 
REMARK    2  A    between atoms: C1_6  and  C2_7 
REMARK    3  A    between atoms: C1_6  and  C3_14 
REMARK       I    between atoms: C2_7  and  N3_9 
REMARK    4  A    between atoms: N3_9  and  N4_11 
ROOT
HETATM    1  N2  UNL     1      -0.363  -1.547   0.202  1.00  0.00    -0.300 N 
ATOM      2  H2  UNL     1      -1.359  -1.515   0.417  1.00  0.00     0.186 HD
HETATM    3  C1  UNL     1       0.107  -0.402   0.018  1.00  0.00     0.151 C 
ENDROOT
BRANCH   3   4
HETATM    4  C2  UNL     1       1.492  -0.116  -0.304  1.00  0.00     0.290 C 
HETATM    5  O1  UNL     1       1.799   1.132  -0.460  1.00  0.00    -0.264 OA
HETATM    6  N3  UNL     1       2.514  -1.060  -0.461  1.00  0.00    -0.271 N 
ATOM      7  H3  UNL     1       2.308  -2.052  -0.347  1.00  0.00     0.189 HD
BRANCH   6   8
HETATM    8  N4  UNL     1       3.827  -0.649  -0.776  1.00  0.00    -0.342 N 
ATOM      9  H42 UNL     1       4.016   0.347  -0.887  1.00  0.00     0.176 HD
ATOM     10  H41 UNL     1       4.572  -1.337  -0.890  1.00  0.00     0.176 HD
ENDBRANCH   6   8
ENDBRANCH   3   4
BRANCH   3  11
HETATM   11  C3  UNL     1      -0.836   0.713   0.145  1.00  0.00     0.150 A 
HETATM   12  N5  UNL     1      -0.466   1.983  -0.025  1.00  0.00    -0.293 N 
HETATM   13  N6  UNL     1      -1.366   2.977   0.101  1.00  0.00    -0.295 N 
ATOM     14  H5  UNL     1       0.504   2.203  -0.252  1.00  0.00     0.187 HD
HETATM   15  C4  UNL     1      -2.656   2.744   0.399  1.00  0.00     0.200 A 
ATOM     16  H6  UNL     1      -1.058   3.940  -0.034  1.00  0.00     0.187 HD
HETATM   17  N7  UNL     1      -3.050   1.473   0.575  1.00  0.00    -0.317 N 
HETATM   18  C5  UNL     1      -2.145   0.473   0.448  1.00  0.00     0.277 A 
ATOM     19  H7  UNL     1      -4.022   1.262   0.802  1.00  0.00     0.170 HD
HETATM   20  O2  UNL     1      -2.554  -0.724   0.622  1.00  0.00    -0.266 OA
ENDBRANCH   3  11
BRANCH   1  21
HETATM   21  N1  UNL     1       0.103  -2.811   0.190  1.00  0.00    -0.344 N 
ATOM     22  H12 UNL     1       1.100  -2.818  -0.027  1.00  0.00     0.176 HD
ATOM     23  H11 UNL     1      -0.280  -3.744   0.340  1.00  0.00     0.176 HD
ENDBRANCH   1  21
TORSDOF 4
