REMARK  11 active torsions:
REMARK  status: ('A' for Active; 'I' for Inactive)
REMARK    1  A    between atoms: C2_2  and  C4_5 
REMARK    2  A    between atoms: C4_5  and  C5_6 
REMARK    3  A    between atoms: C5_6  and  N1_7 
REMARK    4  A    between atoms: C5_6  and  C6_11 
REMARK    5  A    between atoms: C6_11  and  O1_14 
REMARK    6  A    between atoms: O1_14  and  C9_15 
REMARK    7  A    between atoms: C14_22  and  N3_23 
REMARK    8  A    between atoms: N3_23  and  C15_25 
REMARK    9  A    between atoms: C15_25  and  C16_26 
REMARK   10  A    between atoms: C15_25  and  C22_34 
REMARK   11  A    between atoms: C20_30  and  O2_31 
ROOT
HETATM    1  C9  UNL     1       2.173  -0.443   0.395  1.00  0.00     0.072 A 
HETATM    2  C10 UNL     1       2.133  -1.060   1.628  1.00  0.00     0.038 A 
HETATM    3  C11 UNL     1       0.936  -1.295   2.256  1.00  0.00     0.018 A 
HETATM    4  C12 UNL     1      -0.263  -0.918   1.665  1.00  0.00     0.007 A 
HETATM    5  C13 UNL     1      -1.460  -1.155   2.298  1.00  0.00     0.119 A 
HETATM    6  N2  UNL     1      -2.600  -0.781   1.706  1.00  0.00    -0.201 N 
ATOM      7  H2  UNL     1      -3.494  -0.952   2.166  1.00  0.00     0.183 HD
HETATM    8  C14 UNL     1      -2.566  -0.180   0.506  1.00  0.00     0.679 A 
HETATM    9  N4  UNL     1      -1.407   0.066  -0.139  1.00  0.00    -0.191 N 
ATOM     10  H4  UNL     1      -1.416   0.524  -1.050  1.00  0.00     0.184 HD
HETATM   11  C28 UNL     1      -0.242  -0.293   0.421  1.00  0.00     0.063 A 
HETATM   12  C29 UNL     1       0.978  -0.073  -0.181  1.00  0.00     0.067 A 
ENDROOT
BRANCH   8  13
HETATM   13  N3  UNL     1      -3.639   0.180  -0.070  1.00  0.00    -0.213 N 
ATOM     14  H3  UNL     1      -3.510   0.628  -0.977  1.00  0.00     0.178 HD
BRANCH  13  15
HETATM   15  C15 UNL     1      -4.992   0.057   0.349  1.00  0.00     0.169 C 
BRANCH  15  16
HETATM   16  C16 UNL     1      -5.817   1.164  -0.260  1.00  0.00    -0.028 A 
HETATM   17  C17 UNL     1      -5.355   2.457  -0.275  1.00  0.00     0.010 A 
HETATM   18  C18 UNL     1      -6.114   3.491  -0.838  1.00  0.00     0.003 A 
HETATM   19  C19 UNL     1      -7.343   3.193  -1.384  1.00  0.00     0.036 A 
HETATM   20  C20 UNL     1      -7.822   1.905  -1.378  1.00  0.00     0.066 A 
HETATM   21  C21 UNL     1      -7.043   0.890  -0.809  1.00  0.00     0.046 A 
BRANCH  20  22
HETATM   22  O2  UNL     1      -9.063   1.614  -1.931  1.00  0.00    -0.361 OA
ATOM     23  H2  UNL     1      -9.394   0.724  -1.927  1.00  0.00     0.217 HD
ENDBRANCH  20  22
ENDBRANCH  15  16
BRANCH  15  24
HETATM   24  C22 UNL     1      -5.589  -1.262   0.015  1.00  0.00     0.013 A 
HETATM   25  C23 UNL     1      -5.404  -1.834  -1.244  1.00  0.00     0.044 A 
HETATM   26 CL2  UNL     1      -4.448  -0.997  -2.445  1.00  0.00    -0.084 Cl
HETATM   27  C24 UNL     1      -5.970  -3.055  -1.543  1.00  0.00     0.024 A 
HETATM   28  C25 UNL     1      -6.731  -3.758  -0.638  1.00  0.00     0.003 A 
HETATM   29  C26 UNL     1      -6.920  -3.204   0.604  1.00  0.00     0.024 A 
HETATM   30  C27 UNL     1      -6.349  -1.964   0.916  1.00  0.00     0.044 A 
HETATM   31 CL3  UNL     1      -6.631  -1.291   2.503  1.00  0.00    -0.084 Cl
ENDBRANCH  15  24
ENDBRANCH  13  15
ENDBRANCH   8  13
BRANCH   1  32
HETATM   32  O1  UNL     1       3.410  -0.234  -0.186  1.00  0.00    -0.339 OA
BRANCH  32  33
HETATM   33  C6  UNL     1       4.186   0.935   0.015  1.00  0.00     0.088 C 
HETATM   34  C7  UNL     1       3.365   2.123  -0.470  1.00  0.00     0.048 C 
HETATM   35  C8  UNL     1       4.429   1.129   1.485  1.00  0.00     0.048 C 
BRANCH  33  36
HETATM   36  C5  UNL     1       5.476   0.836  -0.764  1.00  0.00     0.219 C 
BRANCH  36  37
HETATM   37  C4  UNL     1       6.204  -0.410  -0.331  1.00  0.00     0.061 C 
BRANCH  37  38
HETATM   38  C2  UNL     1       7.499  -0.635  -1.043  1.00  0.00     0.032 C 
HETATM   39  C1  UNL     1       8.514   0.447  -0.878  1.00  0.00     0.032 C 
HETATM   40  C3  UNL     1       8.107  -1.912  -0.454  1.00  0.00     0.032 C 
HETATM   41 CL1  UNL     1       7.225  -0.924  -2.774  1.00  0.00    -0.120 Cl
ENDBRANCH  37  38
ENDBRANCH  36  37
BRANCH  36  42
HETATM   42  N1  UNL     1       6.240   2.027  -0.544  1.00  0.00    -0.072 N 
ATOM     43  H13 UNL     1       6.537   2.096   0.429  1.00  0.00     0.274 HD
ATOM     44  H12 UNL     1       7.154   1.963  -0.992  1.00  0.00     0.274 HD
ATOM     45  H11 UNL     1       5.747   2.871  -0.837  1.00  0.00     0.274 HD
ENDBRANCH  36  42
ENDBRANCH  33  36
ENDBRANCH  32  33
ENDBRANCH   1  32
TORSDOF 11
