REMARK  7 active torsions:
REMARK  status: ('A' for Active; 'I' for Inactive)
REMARK    1  A    between atoms: N1_2  and  C2_3 
REMARK    2  A    between atoms: N1_2  and  C10_12 
REMARK    3  A    between atoms: C2_3  and  C3_4 
REMARK    4  A    between atoms: C3_4  and  C4_5 
REMARK    5  A    between atoms: C10_12  and  O1_13 
REMARK    6  A    between atoms: C10_12  and  N2_15 
REMARK    7  A    between atoms: C13_18  and  C14_19 
ROOT
HETATM    1  C10 UNL     1       1.314  -1.214   1.688  1.00  0.00     0.216 C 
ENDROOT
BRANCH   1   2
HETATM    2  N1  UNL     1       0.243  -1.988   1.261  1.00  0.00    -0.352 N 
HETATM    3  C1  UNL     1      -0.034  -3.201   2.098  1.00  0.00     0.153 C 
BRANCH   2   4
HETATM    4  C2  UNL     1      -0.630  -1.735   0.153  1.00  0.00     0.126 C 
BRANCH   4   5
HETATM    5  C3  UNL     1      -1.819  -0.947   0.685  1.00  0.00     0.027 C 
BRANCH   5   6
HETATM    6  C4  UNL     1      -2.819  -0.623  -0.396  1.00  0.00     0.021 C 
HETATM    7  C5  UNL     1      -2.246   0.201  -1.511  1.00  0.00     0.007 C 
HETATM    8  C6  UNL     1      -3.293   0.731  -2.417  1.00  0.00     0.001 C 
HETATM    9  C7  UNL     1      -4.685   0.307  -2.112  1.00  0.00     0.003 C 
HETATM   10  C8  UNL     1      -5.053   0.298  -0.674  1.00  0.00     0.037 C 
HETATM   11  C9  UNL     1      -3.889   0.250   0.272  1.00  0.00     0.174 C 
HETATM   12  F1  UNL     1      -3.345   1.530   0.312  1.00  0.00    -0.249 F 
ENDBRANCH   5   6
ENDBRANCH   4   5
ENDBRANCH   2   4
ENDBRANCH   1   2
BRANCH   1  13
HETATM   13  O1  UNL     1       1.874  -1.662   2.802  1.00  0.00    -0.333 OA
ATOM     14  H1  UNL     1       2.607  -1.133   3.094  1.00  0.00     0.220 HD
ENDBRANCH   1  13
BRANCH   1  15
HETATM   15  N2  UNL     1       1.863  -0.075   1.129  1.00  0.00    -0.347 N 
HETATM   16  C11 UNL     1       1.502   0.609  -0.053  1.00  0.00     0.127 C 
HETATM   17  C12 UNL     1       2.261   1.947  -0.169  1.00  0.00     0.034 C 
HETATM   18  C13 UNL     1       3.742   1.729  -0.126  1.00  0.00     0.078 C 
HETATM   19  C15 UNL     1       4.129   0.616   0.826  1.00  0.00     0.034 C 
HETATM   20  C16 UNL     1       3.007   0.545   1.861  1.00  0.00     0.127 C 
BRANCH  18  21
HETATM   21  C14 UNL     1       4.316   1.427  -1.457  1.00  0.00     0.235 C 
HETATM   22  N3  UNL     1       5.706   1.193  -1.593  1.00  0.00    -0.062 NA
HETATM   23  O2  UNL     1       3.602   1.371  -2.487  1.00  0.00    -0.277 OA
ENDBRANCH  18  21
ENDBRANCH   1  15
TORSDOF 7
