REMARK  3 active torsions:
REMARK  status: ('A' for Active; 'I' for Inactive)
REMARK    1  A    between atoms: N1_2  and  C3_5 
REMARK    2  A    between atoms: C3_5  and  C4_6 
REMARK    3  A    between atoms: C6_8  and  C7_9 
ROOT
HETATM    1  C4  UNL     1       1.131   0.302   0.081  1.00  0.00     0.024 C 
HETATM    2  C5  UNL     1       1.595   0.988  -1.179  1.00  0.00     0.021 C 
HETATM    3  C6  UNL     1       0.183   1.226  -1.559  1.00  0.00     0.085 C 
HETATM    4  C8  UNL     1      -0.274   0.349  -0.434  1.00  0.00    -0.016 C 
HETATM    5  C9  UNL     1      -0.854  -0.925  -0.976  1.00  0.00    -0.004 C 
HETATM    6  C10 UNL     1      -1.289  -1.937   0.018  1.00  0.00     0.010 C 
HETATM    7  C11 UNL     1      -2.209  -1.285   1.013  1.00  0.00    -0.013 C 
HETATM    8  C12 UNL     1      -3.481  -0.919   0.291  1.00  0.00     0.009 C 
HETATM    9  C13 UNL     1      -3.119   0.110  -0.769  1.00  0.00    -0.013 C 
HETATM   10  C14 UNL     1      -2.138  -0.510  -1.719  1.00  0.00     0.010 C 
HETATM   11  C15 UNL     1      -2.567   1.306  -0.031  1.00  0.00     0.010 C 
HETATM   12  C16 UNL     1      -1.222   0.942   0.543  1.00  0.00    -0.004 C 
HETATM   13  C17 UNL     1      -1.521  -0.090   1.615  1.00  0.00     0.010 C 
ENDROOT
BRANCH   1  14
HETATM   14  C3  UNL     1       1.753  -1.030   0.358  1.00  0.00     0.263 C 
BRANCH  14  15
HETATM   15  N1  UNL     1       3.186  -0.992   0.501  1.00  0.00     0.007 N 
HETATM   16  C1  UNL     1       3.560  -2.120   1.375  1.00  0.00     0.294 C 
HETATM   17  C2  UNL     1       3.670   0.197   1.166  1.00  0.00     0.294 C 
HETATM   18 CL1  UNL     1       4.039  -1.296  -0.984  1.00  0.00     0.117 Cl
ENDBRANCH  14  15
ENDBRANCH   1  14
BRANCH   3  19
HETATM   19  C7  UNL     1      -0.147   2.635  -1.594  1.00  0.00     0.236 C 
HETATM   20  N2  UNL     1       0.114   3.534  -0.529  1.00  0.00    -0.062 NA
HETATM   21  O1  UNL     1      -0.703   3.149  -2.614  1.00  0.00    -0.276 OA
ENDBRANCH   3  19
TORSDOF 3
