REMARK  11 active torsions:
REMARK  status: ('A' for Active; 'I' for Inactive)
REMARK    1  A    between atoms: C2_2  and  N1_3 
REMARK    2  A    between atoms: N1_3  and  C3_4 
REMARK    3  A    between atoms: N1_3  and  N2_8 
REMARK    4  A    between atoms: C3_4  and  C4_5 
REMARK    5  A    between atoms: C4_5  and  O1_6 
REMARK    6  A    between atoms: N2_8  and  C6_10 
REMARK    7  A    between atoms: C6_10  and  O2_11 
REMARK    8  A    between atoms: N3_13  and  C7_15 
REMARK    9  A    between atoms: C9_17  and  O3_18 
REMARK   10  A    between atoms: C11_20  and  N4_21 
REMARK   11  A    between atoms: N4_21  and  C12_22 
ROOT
HETATM    1  C7  UNL     1      -0.295   0.261  -0.426  1.00  0.00     0.060 A 
HETATM    2  C8  UNL     1       0.542  -0.826  -0.195  1.00  0.00     0.071 A 
HETATM    3  C9  UNL     1       1.885  -0.639   0.039  1.00  0.00     0.111 A 
HETATM    4  C11 UNL     1       2.434   0.631   0.052  1.00  0.00     0.142 A 
HETATM    5  C21 UNL     1       1.569   1.736  -0.200  1.00  0.00     0.073 A 
HETATM    6  C22 UNL     1       0.254   1.511  -0.429  1.00  0.00     0.064 A 
HETATM    7 CL3  UNL     1      -0.802   2.882  -0.794  1.00  0.00    -0.082 Cl
ENDROOT
BRANCH   1   8
HETATM    8  N3  UNL     1      -1.680   0.086  -0.409  1.00  0.00    -0.320 N 
HETATM    9  C6  UNL     1      -2.609  -0.876  -0.591  1.00  0.00     0.236 C 
ATOM     10  H3  UNL     1      -2.137   0.970  -0.188  1.00  0.00     0.169 HD
BRANCH   9  11
HETATM   11  N2  UNL     1      -3.982  -0.598  -0.381  1.00  0.00    -0.267 N 
ATOM     12  H2  UNL     1      -4.066   0.383  -0.115  1.00  0.00     0.190 HD
BRANCH  11  13
HETATM   13  N1  UNL     1      -5.175  -1.111  -0.397  1.00  0.00    -0.323 N 
BRANCH  13  14
HETATM   14  C2  UNL     1      -5.909  -1.329  -1.598  1.00  0.00     0.138 C 
HETATM   15  C1  UNL     1      -6.725  -2.605  -1.481  1.00  0.00     0.028 C 
ENDBRANCH  13  14
BRANCH  13  16
HETATM   16  C3  UNL     1      -6.039  -0.789   0.738  1.00  0.00     0.168 C 
BRANCH  16  17
HETATM   17  C4  UNL     1      -6.770   0.495   0.675  1.00  0.00     0.188 C 
BRANCH  17  18
HETATM   18  O1  UNL     1      -5.915   1.574   0.574  1.00  0.00    -0.394 OA
HETATM   19  C5  UNL     1      -6.503   2.824   0.544  1.00  0.00     0.201 C 
ENDBRANCH  17  18
ENDBRANCH  16  17
ENDBRANCH  13  16
ENDBRANCH  11  13
ENDBRANCH   9  11
BRANCH   9  20
HETATM   20  O2  UNL     1      -2.289  -2.097  -0.933  1.00  0.00    -0.331 OA
ATOM     21  H2  UNL     1      -1.368  -2.283  -1.074  1.00  0.00     0.221 HD
ENDBRANCH   9  20
ENDBRANCH   1   8
BRANCH   3  22
HETATM   22  O3  UNL     1       2.718  -1.709   0.278  1.00  0.00    -0.352 OA
HETATM   23  C10 UNL     1       2.406  -3.056   0.282  1.00  0.00     0.210 C 
ENDBRANCH   3  22
BRANCH   4  24
HETATM   24  N4  UNL     1       3.687   0.885   0.471  1.00  0.00    -0.402 NA
BRANCH  24  25
HETATM   25  C12 UNL     1       4.786   1.086   0.809  1.00  0.00     0.121 A 
HETATM   26  C13 UNL     1       4.977   1.942   1.921  1.00  0.00     0.062 A 
HETATM   27  C14 UNL     1       6.247   2.241   2.369  1.00  0.00     0.092 A 
HETATM   28  N5  UNL     1       7.315   1.762   1.792  1.00  0.00    -0.364 N 
HETATM   29  C15 UNL     1       7.204   0.934   0.706  1.00  0.00     0.067 A 
ATOM     30  H5  UNL     1       8.238   2.005   2.152  1.00  0.00     0.165 HD
HETATM   31  C16 UNL     1       8.358   0.469   0.110  1.00  0.00     0.063 A 
HETATM   32  C20 UNL     1       5.947   0.612   0.242  1.00  0.00     0.035 A 
HETATM   33 CL1  UNL     1       9.945   0.892   0.705  1.00  0.00    -0.082 Cl
HETATM   34  C17 UNL     1       8.250  -0.340  -0.991  1.00  0.00     0.050 A 
HETATM   35  C18 UNL     1       7.003  -0.686  -1.487  1.00  0.00     0.036 A 
HETATM   36 CL2  UNL     1       6.867  -1.734  -2.887  1.00  0.00    -0.084 Cl
HETATM   37  C19 UNL     1       5.889  -0.211  -0.872  1.00  0.00     0.041 A 
ENDBRANCH  24  25
ENDBRANCH   4  24
TORSDOF 11
