REMARK  5 active torsions:
REMARK  status: ('A' for Active; 'I' for Inactive)
REMARK    1  A    between atoms: N1_1  and  N2_4 
REMARK    2  A    between atoms: C1_6  and  C2_7 
REMARK    3  A    between atoms: C1_6  and  C7_22 
REMARK    4  A    between atoms: C7_22  and  N7_23 
REMARK    5  A    between atoms: C7_22  and  C8_27 
ROOT
HETATM    1  C2  UNL     1       0.087  -0.243  -0.065  1.00  0.00     0.094 A 
HETATM    2  N3  UNL     1       0.053  -1.618  -0.196  1.00  0.00    -0.296 N 
ATOM      3  H3  UNL     1      -0.795  -2.185  -0.194  1.00  0.00     0.187 HD
HETATM    4  N4  UNL     1       1.264  -2.085  -0.322  1.00  0.00    -0.284 N 
ATOM      5  H4  UNL     1       1.516  -3.067  -0.434  1.00  0.00     0.188 HD
HETATM    6  C3  UNL     1       2.124  -1.054  -0.279  1.00  0.00     0.142 A 
HETATM    7  N5  UNL     1       3.465  -0.938  -0.358  1.00  0.00    -0.292 N 
ATOM      8  H5  UNL     1       4.011  -1.791  -0.478  1.00  0.00     0.172 HD
HETATM    9  C4  UNL     1       4.129   0.230  -0.289  1.00  0.00     0.328 A 
HETATM   10  O1  UNL     1       5.385   0.282  -0.368  1.00  0.00    -0.247 OA
HETATM   11  N6  UNL     1       3.463   1.388  -0.133  1.00  0.00    -0.275 N 
ATOM     12  H6  UNL     1       3.951   2.282  -0.080  1.00  0.00     0.173 HD
HETATM   13  C5  UNL     1       2.109   1.310  -0.050  1.00  0.00     0.265 A 
HETATM   14  O2  UNL     1       1.526   2.408   0.096  1.00  0.00    -0.267 OA
HETATM   15  C6  UNL     1       1.409   0.127  -0.117  1.00  0.00     0.107 A 
ENDROOT
BRANCH   1  16
HETATM   16  C1  UNL     1      -1.076   0.598   0.094  1.00  0.00     0.095 C 
HETATM   17  N2  UNL     1      -1.071   1.843   0.215  1.00  0.00    -0.306 N 
ATOM     18  H2  UNL     1      -0.158   2.297   0.199  1.00  0.00     0.186 HD
BRANCH  17  19
HETATM   19  N1  UNL     1      -2.164   2.669   0.367  1.00  0.00    -0.345 N 
ATOM     20  H12 UNL     1      -3.068   2.197   0.380  1.00  0.00     0.176 HD
ATOM     21  H11 UNL     1      -2.160   3.684   0.466  1.00  0.00     0.176 HD
ENDBRANCH  17  19
BRANCH  16  22
HETATM   22  C7  UNL     1      -2.411  -0.102   0.116  1.00  0.00     0.336 C 
BRANCH  22  23
HETATM   23  N7  UNL     1      -2.683  -0.733  -1.144  1.00  0.00    -0.059 N 
ATOM     24  H73 UNL     1      -2.618  -0.071  -1.918  1.00  0.00     0.275 HD
ATOM     25  H72 UNL     1      -1.931  -1.366  -1.418  1.00  0.00     0.275 HD
ATOM     26  H71 UNL     1      -3.586  -1.207  -1.129  1.00  0.00     0.275 HD
ENDBRANCH  22  23
BRANCH  22  27
HETATM   27  C8  UNL     1      -2.476  -1.073   1.236  1.00  0.00     0.211 C 
HETATM   28  O3  UNL     1      -2.273  -0.750   2.432  1.00  0.00    -0.646 OA
HETATM   29  O4  UNL     1      -2.771  -2.407   0.994  1.00  0.00    -0.646 OA
ENDBRANCH  22  27
ENDBRANCH  16  22
ENDBRANCH   1  16
TORSDOF 5
