REMARK  9 active torsions:
REMARK  status: ('A' for Active; 'I' for Inactive)
REMARK    1  A    between atoms: C2_2  and  O1_3 
REMARK    2  A    between atoms: O1_3  and  C3_4 
REMARK    3  A    between atoms: C3_4  and  C4_6 
REMARK    4  A    between atoms: C4_6  and  N1_7 
REMARK    5  A    between atoms: N1_7  and  C5_9 
REMARK    6  A    between atoms: C7_11  and  N2_12 
REMARK    7  A    between atoms: N2_12  and  C8_14 
REMARK    8  A    between atoms: C10_16  and  C11_17 
REMARK    9  A    between atoms: N3_20  and  C14_21 
ROOT
HETATM    1  C8  UNL     1       0.428  -0.873   0.684  1.00  0.00     0.122 A 
HETATM    2  C9  UNL     1      -0.737  -0.420   1.315  1.00  0.00     0.076 A 
HETATM    3  C10 UNL     1      -1.707  -0.229   0.354  1.00  0.00     0.034 A 
HETATM    4  N4  UNL     1      -1.126  -0.562  -0.811  1.00  0.00    -0.303 N 
ATOM      5  H4  UNL     1      -1.587  -0.529  -1.720  1.00  0.00     0.186 HD
HETATM    6  N5  UNL     1       0.136  -0.942  -0.614  1.00  0.00    -0.285 N 
ATOM      7  H5  UNL     1       0.781  -1.240  -1.346  1.00  0.00     0.188 HD
ENDROOT
BRANCH   1   8
HETATM    8  N2  UNL     1       1.481  -1.127   1.348  1.00  0.00    -0.340 N 
ATOM      9  H2  UNL     1       1.426  -0.982   2.356  1.00  0.00     0.167 HD
BRANCH   8  10
HETATM   10  C7  UNL     1       2.707  -1.583   0.854  1.00  0.00     0.056 A 
HETATM   11  C6  UNL     1       3.837  -0.780   0.835  1.00  0.00     0.079 A 
HETATM   12  C5  UNL     1       5.044  -1.242   0.344  1.00  0.00     0.103 A 
HETATM   13  N6  UNL     1       5.110  -2.484  -0.115  1.00  0.00    -0.351 N 
HETATM   14  C21 UNL     1       4.018  -3.291  -0.108  1.00  0.00     0.111 A 
ATOM     15  H6  UNL     1       5.994  -2.839  -0.479  1.00  0.00     0.166 HD
HETATM   16  C20 UNL     1       2.799  -2.873   0.370  1.00  0.00     0.053 A 
HETATM   17 BR1  UNL     1       1.266  -4.037   0.369  1.00  0.00    -0.047 Br
BRANCH  12  18
HETATM   18  N1  UNL     1       6.037  -0.421   0.369  1.00  0.00    -0.367 N 
ATOM     19  H1  UNL     1       5.865   0.510   0.748  1.00  0.00     0.161 HD
BRANCH  18  20
HETATM   20  C4  UNL     1       7.360  -0.708  -0.090  1.00  0.00     0.232 C 
BRANCH  20  21
HETATM   21  C3  UNL     1       8.040   0.570  -0.426  1.00  0.00     0.276 C 
HETATM   22  O2  UNL     1       7.454   1.687  -0.287  1.00  0.00    -0.263 OA
BRANCH  21  23
HETATM   23  O1  UNL     1       9.346   0.617  -0.907  1.00  0.00    -0.321 OA
BRANCH  23  24
HETATM   24  C2  UNL     1      10.002   1.813  -1.229  1.00  0.00     0.174 C 
HETATM   25  C1  UNL     1      10.122   2.746  -0.052  1.00  0.00     0.034 C 
ENDBRANCH  23  24
ENDBRANCH  21  23
ENDBRANCH  20  21
ENDBRANCH  18  20
ENDBRANCH  12  18
ENDBRANCH   8  10
ENDBRANCH   1   8
BRANCH   3  26
HETATM   26  C11 UNL     1      -3.090   0.240   0.573  1.00  0.00     0.046 C 
HETATM   27  C12 UNL     1      -4.102  -0.841   0.218  1.00  0.00     0.056 C 
HETATM   28  C13 UNL     1      -5.441  -0.353   0.772  1.00  0.00     0.064 C 
HETATM   29  N3  UNL     1      -5.785   0.935   0.350  1.00  0.00    -0.367 N 
HETATM   30  C18 UNL     1      -4.807   1.931   0.268  1.00  0.00     0.064 C 
HETATM   31  C19 UNL     1      -3.431   1.485  -0.173  1.00  0.00     0.056 C 
BRANCH  29  32
HETATM   32  C14 UNL     1      -7.054   1.170  -0.182  1.00  0.00     0.114 C 
HETATM   33  C15 UNL     1      -7.386   0.435  -1.449  1.00  0.00     0.054 C 
HETATM   34  C16 UNL     1      -8.341  -0.624  -1.003  1.00  0.00     0.169 C 
HETATM   35  O3  UNL     1      -8.784  -0.340   0.250  1.00  0.00    -0.389 OA
HETATM   36  C17 UNL     1      -8.113   0.714   0.780  1.00  0.00     0.193 C 
ENDBRANCH  29  32
ENDBRANCH   3  26
TORSDOF 9
