REMARK  9 active torsions:
REMARK  status: ('A' for Active; 'I' for Inactive)
REMARK    1  A    between atoms: C2_3  and  C3_4 
REMARK    2  A    between atoms: C3_4  and  C4_5 
REMARK    3  A    between atoms: C4_5  and  C5_6 
REMARK    4  A    between atoms: C5_6  and  C6_7 
REMARK    5  A    between atoms: C6_7  and  C7_8 
REMARK    6  A    between atoms: C7_8  and  C8_9 
REMARK    7  A    between atoms: C8_9  and  C9_10 
REMARK    8  A    between atoms: C9_10  and  C10_11 
REMARK    9  A    between atoms: C10_11  and  C11_12 
ROOT
HETATM    1  N1  UNL     1       4.968   3.396   1.664  1.00  0.00    -0.197 NA
HETATM    2  C1  UNL     1       5.244   2.307   1.410  1.00  0.00     0.059 C 
HETATM    3  C2  UNL     1       5.610   0.944   1.089  1.00  0.00     0.124 C 
ENDROOT
BRANCH   3   4
HETATM    4  C3  UNL     1       4.444   0.224   0.436  1.00  0.00     0.014 C 
BRANCH   4   5
HETATM    5  C4  UNL     1       3.250   0.178   1.331  1.00  0.00     0.001 C 
BRANCH   5   6
HETATM    6  C5  UNL     1       2.127  -0.549   0.646  1.00  0.00     0.000 C 
BRANCH   6   7
HETATM    7  C6  UNL     1       1.672   0.075  -0.635  1.00  0.00     0.000 C 
BRANCH   7   8
HETATM    8  C7  UNL     1       0.552  -0.718  -1.260  1.00  0.00     0.000 C 
BRANCH   8   9
HETATM    9  C8  UNL     1      -0.669  -0.823  -0.385  1.00  0.00     0.000 C 
BRANCH   9  10
HETATM   10  C9  UNL     1      -1.694  -1.630  -1.167  1.00  0.00     0.006 C 
BRANCH  10  11
HETATM   11  C10 UNL     1      -2.972  -1.803  -0.383  1.00  0.00     0.056 C 
BRANCH  11  12
HETATM   12  C11 UNL     1      -3.612  -0.511  -0.044  1.00  0.00     0.001 C 
HETATM   13  C12 UNL     1      -3.835  -0.117   1.198  1.00  0.00    -0.001 C 
HETATM   14  C13 UNL     1      -4.483   1.208   1.203  1.00  0.00     0.048 C 
HETATM   15  C14 UNL     1      -4.921   1.409  -0.232  1.00  0.00     0.123 C 
HETATM   16  N2  UNL     1      -4.084   0.499  -0.959  1.00  0.00    -0.393 N 
ATOM     17  H2  UNL     1      -3.861   0.556  -1.953  1.00  0.00     0.159 HD
ENDBRANCH  11  12
ENDBRANCH  10  11
ENDBRANCH   9  10
ENDBRANCH   8   9
ENDBRANCH   7   8
ENDBRANCH   6   7
ENDBRANCH   5   6
ENDBRANCH   4   5
ENDBRANCH   3   4
TORSDOF 9
