REMARK  10 active torsions:
REMARK  status: ('A' for Active; 'I' for Inactive)
REMARK    1  A    between atoms: C2_2  and  C3_3 
REMARK    2  A    between atoms: C3_3  and  O2_5 
REMARK    3  A    between atoms: O2_5  and  C4_6 
REMARK    4  A    between atoms: C9_11  and  N1_12 
REMARK    5  A    between atoms: N1_12  and  C10_14 
REMARK    6  A    between atoms: C10_14  and  C11_15 
REMARK    7  A    between atoms: C12_17  and  O4_18 
REMARK    8  A    between atoms: O4_18  and  C13_19 
REMARK    9  A    between atoms: C16_22  and  O5_23 
REMARK   10  A    between atoms: C17_25  and  O6_26 
ROOT
HETATM    1  C10 UNL     1       0.452  -0.672  -0.337  1.00  0.00     0.149 C 
ENDROOT
BRANCH   1   2
HETATM    2  N1  UNL     1       1.056  -0.751   0.917  1.00  0.00    -0.412 N 
ATOM      3  H1  UNL     1       0.561  -0.373   1.725  1.00  0.00     0.153 HD
BRANCH   2   4
HETATM    4  C9  UNL     1       2.316  -1.329   1.110  1.00  0.00     0.106 C 
HETATM    5  C4  UNL     1       3.434  -0.618   0.394  1.00  0.00     0.154 C 
HETATM    6  C5  UNL     1       3.691  -0.995  -1.003  1.00  0.00     0.035 C 
HETATM    7  C6  UNL     1       3.187  -2.285  -1.496  1.00  0.00     0.003 C 
HETATM    8  C7  UNL     1       2.592  -3.216  -0.526  1.00  0.00     0.002 C 
HETATM    9  C8  UNL     1       2.499  -2.779   0.880  1.00  0.00     0.027 C 
BRANCH   5  10
HETATM   10  O2  UNL     1       3.263   0.811   0.487  1.00  0.00    -0.311 OA
BRANCH  10  11
HETATM   11  C3  UNL     1       4.121   1.616   1.188  1.00  0.00     0.282 C 
HETATM   12  O1  UNL     1       5.093   1.081   1.771  1.00  0.00    -0.260 OA
BRANCH  11  13
HETATM   13  C2  UNL     1       3.966   3.066   1.295  1.00  0.00     0.072 C 
HETATM   14  C1  UNL     1       2.994   3.726   0.730  1.00  0.00     0.017 C 
ENDBRANCH  11  13
ENDBRANCH  10  11
ENDBRANCH   5  10
ENDBRANCH   2   4
ENDBRANCH   1   2
BRANCH   1  15
HETATM   15  C11 UNL     1      -0.924   0.033  -0.286  1.00  0.00     0.173 C 
HETATM   16  O3  UNL     1      -1.790  -0.641   0.540  1.00  0.00    -0.349 OA
HETATM   17  C12 UNL     1      -3.071  -0.388   0.051  1.00  0.00     0.291 C 
HETATM   18  C16 UNL     1      -2.909  -0.708  -1.417  1.00  0.00     0.204 C 
HETATM   19  C17 UNL     1      -1.512  -0.153  -1.668  1.00  0.00     0.182 C 
BRANCH  17  20
HETATM   20  O4  UNL     1      -3.336   0.971   0.147  1.00  0.00    -0.354 OA
BRANCH  20  21
HETATM   21  C13 UNL     1      -4.522   1.254   0.774  1.00  0.00     0.116 C 
HETATM   22  C14 UNL     1      -5.409   2.032  -0.194  1.00  0.00     0.039 C 
HETATM   23  C15 UNL     1      -4.329   2.154   1.993  1.00  0.00     0.039 C 
ENDBRANCH  20  21
ENDBRANCH  17  20
BRANCH  18  24
HETATM   24  O5  UNL     1      -2.992  -2.053  -1.690  1.00  0.00    -0.388 OA
ATOM     25  H5  UNL     1      -2.890  -2.254  -2.613  1.00  0.00     0.210 HD
ENDBRANCH  18  24
BRANCH  19  26
HETATM   26  O6  UNL     1      -1.567   1.067  -2.333  1.00  0.00    -0.390 OA
ATOM     27  H6  UNL     1      -1.936   0.950  -3.201  1.00  0.00     0.210 HD
ENDBRANCH  19  26
ENDBRANCH   1  15
TORSDOF 10
