REMARK  8 active torsions:
REMARK  status: ('A' for Active; 'I' for Inactive)
REMARK    1  A    between atoms: O1_2  and  C2_3 
REMARK    2  A    between atoms: C3_4  and  O2_5 
REMARK    3  A    between atoms: O2_5  and  C4_6 
REMARK    4  A    between atoms: C9_11  and  O3_12 
REMARK    5  A    between atoms: O3_12  and  C10_13 
REMARK    6  A    between atoms: C10_13  and  C11_14 
REMARK    7  A    between atoms: C19_26  and  N2_27 
REMARK    8  A    between atoms: C26_35  and  O6_37 
ROOT
HETATM    1  C4  UNL     1       0.589  -0.115  -0.230  1.00  0.00     0.103 A 
HETATM    2  C5  UNL     1       0.919  -1.412   0.101  1.00  0.00     0.049 A 
HETATM    3  C6  UNL     1       2.202  -1.816   0.448  1.00  0.00    -0.031 A 
HETATM    4  C7  UNL     1       3.187  -0.854   0.458  1.00  0.00    -0.042 A 
HETATM    5  C8  UNL     1       2.857   0.453   0.125  1.00  0.00     0.047 A 
HETATM    6  C9  UNL     1       1.591   0.863  -0.220  1.00  0.00     0.102 A 
HETATM    7  C14 UNL     1       4.626  -0.940   0.773  1.00  0.00     0.043 C 
HETATM    8  C15 UNL     1       5.110   0.353   1.400  1.00  0.00     0.017 C 
HETATM    9  C16 UNL     1       5.009  -2.046   1.696  1.00  0.00     0.182 C 
HETATM   10 CL1  UNL     1       6.751  -1.894   2.048  1.00  0.00    -0.114 Cl
HETATM   11  C17 UNL     1       4.778  -3.402   1.092  1.00  0.00     0.237 C 
HETATM   12  O4  UNL     1       5.775  -4.164   1.022  1.00  0.00    -0.272 OA
HETATM   13  N1  UNL     1       3.535  -3.857   0.612  1.00  0.00    -0.355 N 
ATOM     14  H1  UNL     1       3.564  -4.735   0.094  1.00  0.00     0.162 HD
HETATM   15  C18 UNL     1       2.237  -3.268   0.745  1.00  0.00     0.161 C 
ENDROOT
BRANCH   1  16
HETATM   16  O2  UNL     1      -0.662   0.300  -0.573  1.00  0.00    -0.338 OA
BRANCH  16  17
HETATM   17  C3  UNL     1      -1.845  -0.457  -0.655  1.00  0.00     0.183 C 
HETATM   18  C2  UNL     1      -2.252  -0.457  -2.104  1.00  0.00     0.186 C 
HETATM   19  C26 UNL     1      -3.635  -0.963  -2.357  1.00  0.00     0.083 C 
HETATM   20  C25 UNL     1      -4.662  -0.455  -1.386  1.00  0.00     0.042 C 
HETATM   21  C27 UNL     1      -3.668  -2.469  -2.349  1.00  0.00     0.049 C 
HETATM   22  C24 UNL     1      -4.161  -0.776   0.012  1.00  0.00     0.031 C 
HETATM   23  C19 UNL     1      -2.955   0.111   0.222  1.00  0.00     0.115 C 
BRANCH  18  24
HETATM   24  O1  UNL     1      -1.378  -1.303  -2.785  1.00  0.00    -0.385 OA
HETATM   25  C1  UNL     1      -0.644  -0.611  -3.750  1.00  0.00     0.202 C 
ENDBRANCH  18  24
BRANCH  19  26
HETATM   26  O6  UNL     1      -4.017  -0.518  -3.631  1.00  0.00    -0.388 OA
ATOM     27  H6  UNL     1      -4.896  -0.840  -3.792  1.00  0.00     0.210 HD
ENDBRANCH  19  26
BRANCH  23  28
HETATM   28  N2  UNL     1      -2.574   0.294   1.563  1.00  0.00    -0.382 N 
HETATM   29  C20 UNL     1      -2.212  -0.829   2.333  1.00  0.00     0.084 C 
HETATM   30  C21 UNL     1      -2.839  -0.942   3.685  1.00  0.00     0.212 C 
HETATM   31  O5  UNL     1      -3.151   0.286   4.258  1.00  0.00    -0.385 OA
HETATM   32  C22 UNL     1      -3.896   1.089   3.402  1.00  0.00     0.187 C 
HETATM   33  C23 UNL     1      -3.038   1.450   2.239  1.00  0.00     0.148 C 
ENDBRANCH  23  28
ENDBRANCH  16  17
ENDBRANCH   1  16
BRANCH   6  34
HETATM   34  O3  UNL     1       1.297   2.189  -0.549  1.00  0.00    -0.348 OA
BRANCH  34  35
HETATM   35  C10 UNL     1       2.368   3.112  -0.513  1.00  0.00     0.180 C 
BRANCH  35  36
HETATM   36  C11 UNL     1       1.912   4.503  -0.890  1.00  0.00     0.010 A 
HETATM   37  C12 UNL     1       2.916   5.580  -0.899  1.00  0.00     0.007 A 
HETATM   38  C13 UNL     1       2.304   5.116  -2.185  1.00  0.00     0.007 A 
ENDBRANCH  35  36
ENDBRANCH  34  35
ENDBRANCH   6  34
TORSDOF 8
