REMARK  1 active torsions:
REMARK  status: ('A' for Active; 'I' for Inactive)
REMARK    1  A    between atoms: C2_2  and  C3_3 
ROOT
HETATM    1  C1  UNL     1       0.167  -1.020  -1.511  1.00  0.00     0.057 C 
HETATM    2  C2  UNL     1       0.329  -0.606  -0.042  1.00  0.00     0.225 C 
HETATM    3  C4  UNL     1       1.739  -0.054   0.073  1.00  0.00     0.075 C 
HETATM    4  C5  UNL     1       1.884   1.320  -0.479  1.00  0.00     0.172 C 
HETATM    5  O1  UNL     1       0.892   2.096   0.117  1.00  0.00    -0.364 OA
HETATM    6  C6  UNL     1      -0.365   1.674  -0.196  1.00  0.00     0.405 C 
HETATM    7  N1  UNL     1      -0.686   0.337   0.264  1.00  0.00    -0.037 N 
HETATM    8  C7  UNL     1      -1.036   0.436   1.657  1.00  0.00     0.276 C 
HETATM    9  C8  UNL     1      -1.928   0.008  -0.456  1.00  0.00     0.276 C 
ENDROOT
BRANCH   2  10
HETATM   10  C3  UNL     1       0.327  -1.851   0.763  1.00  0.00     0.420 C 
HETATM   11  F1  UNL     1       1.413  -2.615   0.303  1.00  0.00    -0.168 F 
HETATM   12  F2  UNL     1       0.600  -1.623   2.105  1.00  0.00    -0.168 F 
HETATM   13  F3  UNL     1      -0.772  -2.626   0.672  1.00  0.00    -0.168 F 
ENDBRANCH   2  10
TORSDOF 1
