REMARK  2 active torsions:
REMARK  status: ('A' for Active; 'I' for Inactive)
REMARK    1  A    between atoms: C3_3  and  C4_4 
REMARK    2  A    between atoms: C4_4  and  C5_5 
ROOT
HETATM    1  C1  UNL     1       3.943   0.433   0.405  1.00  0.00     0.112 C 
HETATM    2  C2  UNL     1       2.537   0.011   0.312  1.00  0.00    -0.110 C 
HETATM    3  C3  UNL     1       1.379  -0.325   0.248  1.00  0.00    -0.086 C 
ENDROOT
BRANCH   3   4
HETATM    4  C4  UNL     1      -0.028  -0.719   0.160  1.00  0.00     0.148 C 
HETATM    5  C6  UNL     1      -0.843  -0.031   1.252  1.00  0.00     0.064 C 
HETATM    6  C7  UNL     1      -2.089   0.390   0.532  1.00  0.00     0.274 C 
HETATM    7  N1  UNL     1      -1.817   0.449  -0.863  1.00  0.00     0.086 N 
HETATM    8  C8  UNL     1      -1.863   1.782  -1.422  1.00  0.00     0.310 C 
HETATM    9  C9  UNL     1      -0.569  -0.206  -1.126  1.00  0.00     0.303 C 
BRANCH   4  10
HETATM   10  C5  UNL     1      -0.158  -2.238   0.274  1.00  0.00     0.407 C 
HETATM   11  F1  UNL     1      -1.462  -2.636   0.195  1.00  0.00    -0.169 F 
HETATM   12  F2  UNL     1       0.520  -2.766  -0.814  1.00  0.00    -0.169 F 
HETATM   13  F3  UNL     1       0.380  -2.699   1.433  1.00  0.00    -0.169 F 
ENDBRANCH   4  10
ENDBRANCH   3   4
TORSDOF 2
