REMARK  9 active torsions:
REMARK  status: ('A' for Active; 'I' for Inactive)
REMARK    1  A    between atoms: N1_1  and  C1_5 
REMARK    2  A    between atoms: C1_5  and  C2_6 
REMARK    3  A    between atoms: C2_6  and  C3_7 
REMARK    4  A    between atoms: C3_7  and  C4_8 
REMARK    5  A    between atoms: C4_8  and  N2_9 
REMARK    6  A    between atoms: N2_9  and  C5_11 
REMARK    7  A    between atoms: C7_13  and  C8_14 
REMARK    8  A    between atoms: C14_23  and  N4_24 
REMARK    9  A    between atoms: N4_24  and  C15_26 
ROOT
HETATM    1  C8  UNL     1      -0.893  -1.713   0.216  1.00  0.00     0.029 C 
HETATM    2  C9  UNL     1      -0.050  -0.734   0.433  1.00  0.00     0.045 A 
HETATM    3  C10 UNL     1      -0.272   0.620   0.898  1.00  0.00     0.257 A 
HETATM    4  O1  UNL     1      -1.338   1.180   1.239  1.00  0.00    -0.267 OA
HETATM    5  N3  UNL     1       0.994   1.291   0.922  1.00  0.00    -0.322 N 
ATOM      6  H3  UNL     1       1.144   2.259   1.207  1.00  0.00     0.169 HD
HETATM    7  C11 UNL     1       2.005   0.399   0.487  1.00  0.00     0.047 A 
HETATM    8  C12 UNL     1       3.386   0.543   0.322  1.00  0.00     0.046 A 
HETATM    9  C13 UNL     1       4.185  -0.485  -0.129  1.00  0.00     0.019 A 
HETATM   10  C14 UNL     1       5.546  -0.332  -0.289  1.00  0.00     0.046 A 
HETATM   11  C21 UNL     1       6.254  -1.414  -0.745  1.00  0.00     0.047 A 
HETATM   12  C22 UNL     1       5.648  -2.628  -1.040  1.00  0.00     0.090 A 
HETATM   13  N5  UNL     1       4.327  -2.726  -0.868  1.00  0.00    -0.365 N 
ATOM     14  H5  UNL     1       3.865  -3.610  -1.080  1.00  0.00     0.165 HD
HETATM   15  C23 UNL     1       3.587  -1.696  -0.424  1.00  0.00     0.045 A 
HETATM   16  C24 UNL     1       2.211  -1.819  -0.253  1.00  0.00     0.045 A 
HETATM   17  C25 UNL     1       1.419  -0.789   0.197  1.00  0.00     0.009 A 
ENDROOT
BRANCH   1  18
HETATM   18  C7  UNL     1      -2.320  -1.675   0.390  1.00  0.00    -0.030 A 
HETATM   19  C6  UNL     1      -3.110  -0.763  -0.228  1.00  0.00     0.059 A 
HETATM   20  C5  UNL     1      -4.488  -0.713  -0.043  1.00  0.00     0.101 A 
HETATM   21  N6  UNL     1      -5.049  -1.600   0.776  1.00  0.00    -0.353 N 
HETATM   22  C27 UNL     1      -4.283  -2.516   1.400  1.00  0.00     0.090 A 
ATOM     23  H6  UNL     1      -6.057  -1.586   0.931  1.00  0.00     0.166 HD
HETATM   24  C26 UNL     1      -2.923  -2.594   1.241  1.00  0.00     0.028 A 
BRANCH  20  25
HETATM   25  N2  UNL     1      -5.111   0.200  -0.694  1.00  0.00    -0.376 N 
ATOM     26  H2  UNL     1      -4.600   0.838  -1.304  1.00  0.00     0.161 HD
BRANCH  25  27
HETATM   27  C4  UNL     1      -6.566   0.316  -0.552  1.00  0.00     0.121 C 
BRANCH  27  28
HETATM   28  C3  UNL     1      -6.856   1.179   0.626  1.00  0.00     0.021 C 
BRANCH  28  29
HETATM   29  C2  UNL     1      -8.294   1.361   0.941  1.00  0.00     0.029 C 
BRANCH  29  30
HETATM   30  C1  UNL     1      -9.168   1.979  -0.075  1.00  0.00     0.229 C 
BRANCH  30  31
HETATM   31  N1  UNL     1      -9.320   1.297  -1.312  1.00  0.00    -0.079 N 
ATOM     32  H13 UNL     1      -8.400   1.125  -1.718  1.00  0.00     0.274 HD
ATOM     33  H12 UNL     1      -9.632   0.342  -1.135  1.00  0.00     0.274 HD
ATOM     34  H11 UNL     1      -9.924   1.724  -2.014  1.00  0.00     0.274 HD
ENDBRANCH  30  31
ENDBRANCH  29  30
ENDBRANCH  28  29
ENDBRANCH  27  28
ENDBRANCH  25  27
ENDBRANCH  20  25
ENDBRANCH   1  18
BRANCH  10  35
HETATM   35  N4  UNL     1       6.072   0.792  -0.011  1.00  0.00    -0.355 N 
ATOM     36  H4  UNL     1       5.427   1.511   0.318  1.00  0.00     0.166 HD
BRANCH  35  37
HETATM   37  C15 UNL     1       7.411   1.177  -0.094  1.00  0.00     0.032 A 
HETATM   38  C16 UNL     1       8.185   1.164  -1.234  1.00  0.00     0.029 A 
HETATM   39  C17 UNL     1       9.521   1.580  -1.185  1.00  0.00     0.002 A 
HETATM   40  C18 UNL     1      10.086   2.007  -0.006  1.00  0.00     0.000 A 
HETATM   41  C19 UNL     1       9.331   2.028   1.142  1.00  0.00     0.002 A 
HETATM   42  C20 UNL     1       8.006   1.614   1.089  1.00  0.00     0.029 A 
ENDBRANCH  35  37
ENDBRANCH  10  35
TORSDOF 9
