REMARK  6 active torsions:
REMARK  status: ('A' for Active; 'I' for Inactive)
REMARK    1  A    between atoms: C4_8  and  C5_9 
REMARK    2  A    between atoms: C8_12  and  N2_13 
REMARK    3  A    between atoms: N2_13  and  S1_15 
REMARK    4  A    between atoms: S1_15  and  C9_18 
REMARK    5  A    between atoms: C12_21  and  N3_22 
REMARK       I    between atoms: N3_22  and  C13_24 
REMARK    6  A    between atoms: C13_24  and  C14_26 
ROOT
HETATM    1  S1  UNL     1       0.451  -1.293   2.763  1.00  0.00     0.263 S 
HETATM    2  O3  UNL     1       0.985  -2.546   2.135  1.00  0.00    -0.200 OA
HETATM    3  O4  UNL     1       0.249  -1.605   4.222  1.00  0.00    -0.200 OA
ENDROOT
BRANCH   1   4
HETATM    4  N2  UNL     1       1.583  -0.034   2.527  1.00  0.00    -0.281 N 
ATOM      5  H2  UNL     1       1.419   0.878   2.953  1.00  0.00     0.179 HD
BRANCH   4   6
HETATM    6  C8  UNL     1       2.739  -0.242   1.752  1.00  0.00     0.042 A 
HETATM    7  C7  UNL     1       2.754  -0.892   0.542  1.00  0.00     0.031 A 
HETATM    8  C6  UNL     1       3.896  -1.084  -0.197  1.00  0.00     0.014 A 
HETATM    9  C5  UNL     1       5.137  -0.616   0.256  1.00  0.00    -0.034 A 
HETATM   10  C23 UNL     1       5.129   0.039   1.474  1.00  0.00     0.014 A 
HETATM   11  C22 UNL     1       3.970   0.223   2.202  1.00  0.00     0.031 A 
BRANCH   9  12
HETATM   12  C4  UNL     1       6.326  -0.864  -0.533  1.00  0.00     0.046 C 
HETATM   13  C3  UNL     1       7.182   0.103  -0.799  1.00  0.00     0.105 A 
HETATM   14  C2  UNL     1       8.407  -0.089  -1.591  1.00  0.00     0.276 A 
HETATM   15  N4  UNL     1       7.146   1.473  -0.456  1.00  0.00    -0.304 N 
HETATM   16  N1  UNL     1       9.041   1.177  -1.680  1.00  0.00    -0.274 N 
HETATM   17  O2  UNL     1       8.775  -1.199  -2.075  1.00  0.00    -0.266 OA
HETATM   18  C1  UNL     1       8.282   2.143  -0.990  1.00  0.00     0.327 A 
ATOM     19  H1  UNL     1       9.916   1.361  -2.171  1.00  0.00     0.173 HD
HETATM   20  O1  UNL     1       8.545   3.347  -0.868  1.00  0.00    -0.247 OA
ATOM     21  H4  UNL     1       6.412   1.918   0.095  1.00  0.00     0.171 HD
ENDBRANCH   9  12
ENDBRANCH   4   6
ENDBRANCH   1   4
BRANCH   1  22
HETATM   22  C9  UNL     1      -1.076  -0.929   1.985  1.00  0.00     0.080 A 
HETATM   23  C10 UNL     1      -2.061  -0.239   2.658  1.00  0.00     0.027 A 
HETATM   24  C11 UNL     1      -3.226   0.023   2.022  1.00  0.00     0.031 A 
HETATM   25  C12 UNL     1      -3.506  -0.363   0.707  1.00  0.00     0.035 A 
HETATM   26  C20 UNL     1      -2.522  -1.049   0.044  1.00  0.00     0.031 A 
HETATM   27  C21 UNL     1      -1.308  -1.326   0.697  1.00  0.00     0.027 A 
BRANCH  25  28
HETATM   28  N3  UNL     1      -4.770  -0.049   0.142  1.00  0.00    -0.323 N 
HETATM   29  C13 UNL     1      -5.126  -0.078  -1.200  1.00  0.00     0.256 C 
HETATM   30  O5  UNL     1      -4.330  -0.393  -2.102  1.00  0.00    -0.267 OA
ATOM     31  H3  UNL     1      -5.501   0.230   0.797  1.00  0.00     0.169 HD
BRANCH  29  32
HETATM   32  C14 UNL     1      -6.490   0.269  -1.646  1.00  0.00     0.032 A 
HETATM   33  C15 UNL     1      -6.763   0.482  -2.999  1.00  0.00     0.017 A 
HETATM   34  C16 UNL     1      -8.027   0.802  -3.422  1.00  0.00     0.001 A 
HETATM   35  C17 UNL     1      -9.073   0.927  -2.541  1.00  0.00     0.000 A 
HETATM   36  C18 UNL     1      -8.837   0.724  -1.203  1.00  0.00     0.001 A 
HETATM   37  C19 UNL     1      -7.543   0.398  -0.781  1.00  0.00     0.017 A 
ENDBRANCH  29  32
ENDBRANCH  25  28
ENDBRANCH   1  22
TORSDOF 6
