REMARK  10 active torsions:
REMARK  status: ('A' for Active; 'I' for Inactive)
REMARK    1  A    between atoms: N1_3  and  C4_5 
REMARK    2  A    between atoms: C7_8  and  N2_9 
REMARK    3  A    between atoms: N2_9  and  C8_11 
REMARK    4  A    between atoms: C9_14  and  N4_15 
REMARK    5  A    between atoms: N4_15  and  C10_17 
REMARK    6  A    between atoms: C10_17  and  C11_18 
REMARK    7  A    between atoms: C17_26  and  N6_27 
REMARK    8  A    between atoms: N6_27  and  C18_29 
REMARK    9  A    between atoms: C21_32  and  C22_33 
REMARK   10  A    between atoms: C22_33  and  N7_34 
ROOT
HETATM    1  C1  UNL     1      -6.980  -0.177   2.513  1.00  0.00     0.037 C 
HETATM    2  C2  UNL     1      -6.458  -0.255   1.429  1.00  0.00     0.002 C 
HETATM    3  N1  UNL     1      -5.846  -0.362   0.182  1.00  0.00    -0.312 N 
HETATM    4  C3  UNL     1      -6.632  -0.131  -1.007  1.00  0.00     0.167 C 
ENDROOT
BRANCH   3   5
HETATM    5  C4  UNL     1      -4.474  -0.693   0.053  1.00  0.00     0.042 A 
HETATM    6  C5  UNL     1      -3.869  -0.800  -1.177  1.00  0.00     0.032 A 
HETATM    7  C6  UNL     1      -2.540  -1.122  -1.236  1.00  0.00     0.032 A 
HETATM    8  C7  UNL     1      -1.803  -1.341  -0.100  1.00  0.00     0.049 A 
HETATM    9  C25 UNL     1      -2.402  -1.236   1.135  1.00  0.00     0.032 A 
HETATM   10  C26 UNL     1      -3.739  -0.912   1.223  1.00  0.00     0.032 A 
BRANCH   8  11
HETATM   11  N2  UNL     1      -0.415  -1.677  -0.183  1.00  0.00    -0.191 N 
ATOM     12  H2  UNL     1      -0.125  -2.654  -0.216  1.00  0.00     0.184 HD
BRANCH  11  13
HETATM   13  C8  UNL     1       0.455  -0.752  -0.215  1.00  0.00     0.711 A 
HETATM   14  N3  UNL     1       0.094   0.544  -0.172  1.00  0.00    -0.021 N 
HETATM   15  C9  UNL     1       0.996   1.537  -0.205  1.00  0.00     0.707 A 
ATOM     16  H3  UNL     1      -0.897   0.779  -0.112  1.00  0.00     0.203 HD
HETATM   17  N5  UNL     1       2.291   1.180  -0.283  1.00  0.00    -0.021 N 
HETATM   18  C17 UNL     1       2.684  -0.117  -0.327  1.00  0.00     0.711 A 
ATOM     19  H5  UNL     1       3.002   1.911  -0.310  1.00  0.00     0.203 HD
HETATM   20  N8  UNL     1       1.746  -1.076  -0.292  1.00  0.00    -0.021 N 
ATOM     21  H8  UNL     1       2.022  -2.057  -0.324  1.00  0.00     0.203 HD
BRANCH  15  22
HETATM   22  N4  UNL     1       0.689   2.769  -0.167  1.00  0.00    -0.221 N 
ATOM     23  H4  UNL     1       1.449   3.448  -0.198  1.00  0.00     0.178 HD
BRANCH  22  24
HETATM   24  C10 UNL     1      -0.654   3.273  -0.083  1.00  0.00     0.176 C 
BRANCH  24  25
HETATM   25  C11 UNL     1      -0.690   4.708   0.202  1.00  0.00    -0.040 A 
HETATM   26  C12 UNL     1      -1.885   5.371   0.319  1.00  0.00     0.009 A 
HETATM   27  C13 UNL     1      -1.903   6.734   0.590  1.00  0.00     0.001 A 
HETATM   28  C14 UNL     1      -0.734   7.421   0.741  1.00  0.00     0.000 A 
HETATM   29  C15 UNL     1       0.482   6.740   0.621  1.00  0.00     0.001 A 
HETATM   30  C16 UNL     1       0.506   5.388   0.352  1.00  0.00     0.009 A 
ENDBRANCH  24  25
ENDBRANCH  22  24
ENDBRANCH  15  22
BRANCH  18  31
HETATM   31  N6  UNL     1       3.913  -0.464  -0.402  1.00  0.00    -0.191 N 
ATOM     32  H6  UNL     1       4.637   0.254  -0.430  1.00  0.00     0.184 HD
BRANCH  31  33
HETATM   33  C18 UNL     1       4.283  -1.825  -0.446  1.00  0.00     0.049 A 
HETATM   34  C19 UNL     1       4.514  -2.559   0.699  1.00  0.00     0.030 A 
HETATM   35  C20 UNL     1       4.875  -3.889   0.645  1.00  0.00     0.011 A 
HETATM   36  C21 UNL     1       5.022  -4.550  -0.555  1.00  0.00    -0.033 A 
HETATM   37  C23 UNL     1       4.795  -3.830  -1.709  1.00  0.00     0.011 A 
HETATM   38  C24 UNL     1       4.434  -2.500  -1.658  1.00  0.00     0.030 A 
BRANCH  36  39
HETATM   39  C22 UNL     1       5.414  -5.994  -0.596  1.00  0.00     0.268 C 
BRANCH  39  40
HETATM   40  N7  UNL     1       5.586  -6.495   0.736  1.00  0.00    -0.075 N 
ATOM     41  H73 UNL     1       6.248  -5.935   1.272  1.00  0.00     0.274 HD
ATOM     42  H72 UNL     1       4.759  -6.340   1.312  1.00  0.00     0.274 HD
ATOM     43  H71 UNL     1       5.853  -7.479   0.708  1.00  0.00     0.274 HD
ENDBRANCH  39  40
ENDBRANCH  36  39
ENDBRANCH  31  33
ENDBRANCH  18  31
ENDBRANCH  11  13
ENDBRANCH   8  11
ENDBRANCH   3   5
TORSDOF 10
