REMARK  4 active torsions:
REMARK  status: ('A' for Active; 'I' for Inactive)
REMARK    1  A    between atoms: C7_9  and  N2_10 
REMARK    2  A    between atoms: N2_10  and  C8_12 
REMARK    3  A    between atoms: C8_12  and  C9_13 
REMARK    4  A    between atoms: C9_13  and  N3_14 
ROOT
HETATM    1  C1  UNL     1      -1.758   4.492  -0.143  1.00  0.00     0.010 C 
HETATM    2  C2  UNL     1      -2.022   3.091   0.319  1.00  0.00    -0.009 C 
HETATM    3  C3  UNL     1      -3.382   2.598  -0.053  1.00  0.00     0.062 C 
HETATM    4  C4  UNL     1      -3.196   1.139  -0.194  1.00  0.00     0.018 A 
HETATM    5  N1  UNL     1      -4.072   0.146  -0.159  1.00  0.00    -0.362 N 
ATOM      6  H1  UNL     1      -5.056   0.370  -0.011  1.00  0.00     0.165 HD
HETATM    7  C5  UNL     1      -3.725  -1.139  -0.309  1.00  0.00     0.018 A 
HETATM    8  C6  UNL     1      -2.410  -1.439  -0.506  1.00  0.00    -0.008 A 
HETATM    9  C7  UNL     1      -1.407  -0.463  -0.559  1.00  0.00     0.048 A 
HETATM   10  C15 UNL     1      -1.857   0.829  -0.395  1.00  0.00    -0.008 A 
HETATM   11  C16 UNL     1      -1.119   2.093  -0.393  1.00  0.00     0.047 C 
HETATM   12  C17 UNL     1      -1.840  -2.797  -0.691  1.00  0.00     0.043 C 
HETATM   13  C18 UNL     1      -2.339  -3.759   0.387  1.00  0.00     0.005 C 
HETATM   14  C19 UNL     1      -3.780  -4.141   0.148  1.00  0.00     0.001 C 
HETATM   15  C20 UNL     1      -4.733  -3.125   0.775  1.00  0.00     0.006 C 
HETATM   16  C21 UNL     1      -4.935  -2.030  -0.222  1.00  0.00     0.057 C 
ENDROOT
BRANCH   9  17
HETATM   17  N2  UNL     1      -0.245  -0.860  -0.749  1.00  0.00    -0.367 N 
ATOM     18  H2  UNL     1      -0.217  -1.876  -0.838  1.00  0.00     0.165 HD
BRANCH  17  19
HETATM   19  C8  UNL     1       1.029  -0.316  -0.875  1.00  0.00     0.080 C 
BRANCH  19  20
HETATM   20  C9  UNL     1       1.849  -0.284   0.426  1.00  0.00     0.161 C 
BRANCH  20  21
HETATM   21  N3  UNL     1       3.114   0.290   0.126  1.00  0.00    -0.405 N 
HETATM   22  C10 UNL     1       3.965  -0.491  -0.693  1.00  0.00     0.147 C 
HETATM   23  C11 UNL     1       5.324   0.134  -0.779  1.00  0.00     0.291 C 
HETATM   24  N4  UNL     1       5.937   0.435   0.477  1.00  0.00     0.087 N 
HETATM   25  C12 UNL     1       6.695   1.680   0.353  1.00  0.00     0.310 C 
HETATM   26  C13 UNL     1       5.039   0.537   1.592  1.00  0.00     0.291 C 
HETATM   27  C14 UNL     1       3.711   1.109   1.113  1.00  0.00     0.147 C 
ENDBRANCH  20  21
ENDBRANCH  19  20
ENDBRANCH  17  19
ENDBRANCH   9  17
TORSDOF 4
