REMARK  4 active torsions:
REMARK  status: ('A' for Active; 'I' for Inactive)
REMARK    1  A    between atoms: N1_2  and  C3_4 
REMARK    2  A    between atoms: C3_4  and  C4_5 
REMARK    3  A    between atoms: C4_5  and  N2_6 
REMARK    4  A    between atoms: C10_19  and  C11_20 
ROOT
HETATM    1  N2  UNL     1       1.342   0.067  -1.192  1.00  0.00    -0.373 N 
ATOM      2  H2  UNL     1       0.832  -0.810  -1.090  1.00  0.00     0.161 HD
HETATM    3  C5  UNL     1       0.757   1.158  -0.757  1.00  0.00     0.124 C 
HETATM    4  N3  UNL     1       1.410   2.415  -0.866  1.00  0.00    -0.252 N 
ATOM      5  H3  UNL     1       2.418   2.467  -1.013  1.00  0.00     0.182 HD
HETATM    6  S1  UNL     1       0.452   3.870  -0.743  1.00  0.00     0.326 S 
HETATM    7  O1  UNL     1      -0.097   4.268  -2.075  1.00  0.00    -0.182 OA
HETATM    8  O2  UNL     1       1.260   4.983  -0.154  1.00  0.00    -0.182 OA
HETATM    9  N4  UNL     1      -0.844   3.450   0.322  1.00  0.00    -0.262 N 
HETATM   10  C6  UNL     1      -1.436   4.431   1.176  1.00  0.00     0.171 C 
HETATM   11  C7  UNL     1      -1.300   2.106   0.328  1.00  0.00     0.060 A 
HETATM   12  C8  UNL     1      -2.571   1.919   0.880  1.00  0.00     0.032 A 
HETATM   13  C9  UNL     1      -3.095   0.644   0.926  1.00  0.00     0.010 A 
HETATM   14  C10 UNL     1      -2.382  -0.429   0.438  1.00  0.00    -0.050 A 
HETATM   15  C15 UNL     1      -1.128  -0.236  -0.105  1.00  0.00     0.025 A 
HETATM   16  C16 UNL     1      -0.568   1.046  -0.168  1.00  0.00     0.036 A 
ENDROOT
BRANCH   1  17
HETATM   17  C4  UNL     1       2.628   0.008  -1.793  1.00  0.00     0.151 C 
BRANCH  17  18
HETATM   18  C3  UNL     1       3.771  -0.146  -0.833  1.00  0.00     0.290 C 
BRANCH  18  19
HETATM   19  N1  UNL     1       3.677  -1.347  -0.038  1.00  0.00     0.081 N 
HETATM   20  C1  UNL     1       4.827  -1.396   0.843  1.00  0.00     0.309 C 
HETATM   21  C2  UNL     1       3.677  -2.554  -0.835  1.00  0.00     0.309 C 
ENDBRANCH  18  19
ENDBRANCH  17  18
ENDBRANCH   1  17
BRANCH  14  22
HETATM   22  C11 UNL     1      -2.894  -1.822   0.456  1.00  0.00    -0.024 C 
HETATM   23  C12 UNL     1      -2.496  -2.576   1.707  1.00  0.00     0.019 C 
HETATM   24  C13 UNL     1      -4.404  -1.791   0.386  1.00  0.00     0.019 C 
HETATM   25  C14 UNL     1      -2.409  -2.575  -0.764  1.00  0.00     0.019 C 
ENDBRANCH  14  22
TORSDOF 4
