REMARK  3 active torsions:
REMARK  status: ('A' for Active; 'I' for Inactive)
REMARK    1  A    between atoms: C4_4  and  C5_5 
REMARK       I    between atoms: C5_5  and  N1_7 
REMARK    2  A    between atoms: N1_7  and  N2_9 
REMARK       I    between atoms: N3_17  and  C12_18 
REMARK       I    between atoms: C12_18  and  N4_20 
REMARK    3  A    between atoms: N4_20  and  C13_22 
ROOT
HETATM    1  C1  UNL     1       0.870  -2.965  -0.795  1.00  0.00     0.032 C 
HETATM    2  C2  UNL     1       0.201  -1.603  -0.488  1.00  0.00     0.085 C 
HETATM    3  C3  UNL     1      -1.224  -1.902  -0.219  1.00  0.00     0.039 C 
HETATM    4  C4  UNL     1      -1.884  -1.045   0.792  1.00  0.00     0.083 C 
HETATM    5  C10 UNL     1      -1.006  -0.105   1.561  1.00  0.00     0.034 C 
HETATM    6  C11 UNL     1       0.302  -0.854   1.872  1.00  0.00     0.129 C 
HETATM    7  N3  UNL     1       0.928  -0.944   0.536  1.00  0.00    -0.330 N 
HETATM    8  C12 UNL     1       2.204  -0.354   0.395  1.00  0.00     0.319 C 
HETATM    9  O3  UNL     1       2.717   0.190   1.447  1.00  0.00    -0.247 OA
HETATM   10  N4  UNL     1       2.963  -0.306  -0.790  1.00  0.00    -0.338 N 
ATOM     11  H4  UNL     1       2.581  -0.720  -1.640  1.00  0.00     0.164 HD
ENDROOT
BRANCH   4  12
HETATM   12  C5  UNL     1      -3.060  -0.324   0.230  1.00  0.00     0.240 C 
HETATM   13  O1  UNL     1      -2.848   0.763  -0.338  1.00  0.00    -0.271 OA
HETATM   14  N1  UNL     1      -4.343  -0.855   0.343  1.00  0.00    -0.268 N 
ATOM     15  H1  UNL     1      -4.388  -1.752   0.827  1.00  0.00     0.190 HD
BRANCH  14  16
HETATM   16  N2  UNL     1      -5.548  -0.381  -0.082  1.00  0.00    -0.300 N 
HETATM   17  C6  UNL     1      -5.617   0.581  -1.104  1.00  0.00     0.109 C 
HETATM   18  C7  UNL     1      -5.904   1.990  -0.702  1.00  0.00     0.213 C 
HETATM   19  O2  UNL     1      -6.747   2.153   0.372  1.00  0.00    -0.384 OA
HETATM   20  C8  UNL     1      -6.283   1.393   1.435  1.00  0.00     0.189 C 
HETATM   21  C9  UNL     1      -6.458  -0.059   1.001  1.00  0.00     0.174 C 
ENDBRANCH  14  16
ENDBRANCH   4  12
BRANCH  10  22
HETATM   22  C13 UNL     1       4.285   0.322  -0.836  1.00  0.00     0.086 C 
HETATM   23  C14 UNL     1       5.305  -0.422  -0.015  1.00  0.00     0.025 C 
HETATM   24  C15 UNL     1       6.656   0.197  -0.227  1.00  0.00     0.002 C 
HETATM   25  C16 UNL     1       6.673   1.695  -0.076  1.00  0.00     0.000 C 
HETATM   26  C17 UNL     1       5.341   2.138   0.495  1.00  0.00     0.002 C 
HETATM   27  C18 UNL     1       4.240   1.780  -0.488  1.00  0.00     0.025 C 
ENDBRANCH  10  22
TORSDOF 3
