REMARK  14 active torsions:
REMARK  status: ('A' for Active; 'I' for Inactive)
REMARK    1  A    between atoms: C2_2  and  O1_3 
REMARK    2  A    between atoms: C2_2  and  C3_5 
REMARK    3  A    between atoms: C3_5  and  C4_6 
REMARK    4  A    between atoms: C3_5  and  N1_10 
REMARK    5  A    between atoms: C4_6  and  C5_7 
REMARK    6  A    between atoms: C5_7  and  S1_8 
REMARK       I    between atoms: N1_10  and  C6_12 
REMARK    7  A    between atoms: C6_12  and  C7_14 
REMARK    8  A    between atoms: C11_24  and  C12_25 
REMARK    9  A    between atoms: C12_25  and  O6_26 
REMARK   10  A    between atoms: C13_28  and  C14_29 
REMARK   11  A    between atoms: C14_29  and  O7_30 
REMARK   12  A    between atoms: C14_29  and  C15_32 
REMARK   13  A    between atoms: C15_32  and  O8_33 
REMARK   14  A    between atoms: C17_37  and  O10_38 
ROOT
HETATM    1  C7  UNL     1       1.360   2.832  -0.126  1.00  0.00     0.350 C 
HETATM    2  N2  UNL     1       1.442   3.983   0.814  1.00  0.00    -0.006 N 
ATOM      3  H21 UNL     1       2.055   4.744   0.523  1.00  0.00     0.284 HD
ATOM      4  H22 UNL     1       1.936   3.801   1.688  1.00  0.00     0.284 HD
HETATM    5  C8  UNL     1       0.051   4.326   0.949  1.00  0.00     0.475 C 
HETATM    6  O3  UNL     1      -0.341   4.175  -0.404  1.00  0.00    -0.294 OA
HETATM    7  C9  UNL     1      -0.057   2.759  -0.419  1.00  0.00     0.271 C 
HETATM    8  O4  UNL     1      -0.564   2.104  -1.461  1.00  0.00    -0.315 OA
HETATM    9  C10 UNL     1      -1.129   0.953  -0.946  1.00  0.00     0.308 C 
HETATM   10  O5  UNL     1      -2.266   0.491  -1.543  1.00  0.00    -0.348 OA
HETATM   11  C11 UNL     1      -2.591  -0.730  -0.925  1.00  0.00     0.179 C 
HETATM   12  C13 UNL     1      -2.684  -0.679   0.549  1.00  0.00     0.185 C 
HETATM   13  O9  UNL     1      -1.703   0.158   1.134  1.00  0.00    -0.355 OA
HETATM   14  C16 UNL     1      -1.620   1.302   0.476  1.00  0.00     0.226 C 
HETATM   15  C17 UNL     1      -2.994   1.984   0.401  1.00  0.00     0.368 C 
HETATM   16  N3  UNL     1      -2.299   3.219   0.264  1.00  0.00    -0.004 N 
ATOM     17  H31 UNL     1      -2.624   4.055   0.751  1.00  0.00     0.284 HD
ATOM     18  H32 UNL     1      -2.327   3.736  -0.615  1.00  0.00     0.284 HD
HETATM   19  C18 UNL     1      -1.051   2.522   0.698  1.00  0.00     0.332 C 
HETATM   20  O11 UNL     1      -0.509   3.242   1.670  1.00  0.00    -0.293 OA
ENDROOT
BRANCH   1  21
HETATM   21  C6  UNL     1       2.101   1.739   0.449  1.00  0.00     0.255 C 
HETATM   22  N1  UNL     1       2.447   0.607  -0.307  1.00  0.00    -0.352 N 
ATOM     23  H1  UNL     1       2.167   0.541  -1.285  1.00  0.00     0.163 HD
HETATM   24  O2  UNL     1       2.468   1.765   1.642  1.00  0.00    -0.271 OA
BRANCH  22  25
HETATM   25  C3  UNL     1       3.207  -0.472   0.309  1.00  0.00     0.113 C 
BRANCH  25  26
HETATM   26  C2  UNL     1       4.625  -0.518  -0.244  1.00  0.00     0.136 C 
HETATM   27  C1  UNL     1       5.297   0.814   0.134  1.00  0.00     0.041 C 
BRANCH  26  28
HETATM   28  O1  UNL     1       4.671  -0.735  -1.594  1.00  0.00    -0.394 OA
ATOM     29  H1  UNL     1       4.256  -1.557  -1.827  1.00  0.00     0.210 HD
ENDBRANCH  26  28
ENDBRANCH  25  26
BRANCH  25  30
HETATM   30  C4  UNL     1       2.578  -1.809   0.065  1.00  0.00     0.038 C 
BRANCH  30  31
HETATM   31  C5  UNL     1       3.299  -2.945   0.741  1.00  0.00     0.089 C 
BRANCH  31  32
HETATM   32  S1  UNL     1       2.518  -4.552   0.426  1.00  0.00    -0.085 SA
HETATM   33  S2  UNL     1       2.722  -5.059  -1.644  1.00  0.00    -0.013 SA
ENDBRANCH  31  32
ENDBRANCH  30  31
ENDBRANCH  25  30
ENDBRANCH  22  25
ENDBRANCH   1  21
BRANCH  15  34
HETATM   34  O10 UNL     1      -3.680   1.965   1.619  1.00  0.00    -0.367 OA
ATOM     35  H10 UNL     1      -4.530   2.387   1.573  1.00  0.00     0.212 HD
ENDBRANCH  15  34
BRANCH  11  36
HETATM   36  C12 UNL     1      -3.923  -1.108  -1.558  1.00  0.00     0.198 C 
BRANCH  36  37
HETATM   37  O6  UNL     1      -3.768  -1.210  -2.961  1.00  0.00    -0.398 OA
ATOM     38  H6  UNL     1      -4.599  -1.446  -3.356  1.00  0.00     0.209 HD
ENDBRANCH  36  37
ENDBRANCH  11  36
BRANCH  12  39
HETATM   39  C14 UNL     1      -2.394  -2.036   1.176  1.00  0.00     0.173 C 
BRANCH  39  40
HETATM   40  O7  UNL     1      -1.177  -2.560   0.812  1.00  0.00    -0.391 OA
ATOM     41  H7  UNL     1      -0.996  -3.407   1.203  1.00  0.00     0.210 HD
ENDBRANCH  39  40
BRANCH  39  42
HETATM   42  C15 UNL     1      -3.484  -3.031   1.142  1.00  0.00     0.198 C 
BRANCH  42  43
HETATM   43  O8  UNL     1      -4.682  -2.436   1.553  1.00  0.00    -0.398 OA
ATOM     44  H8  UNL     1      -5.383  -3.076   1.531  1.00  0.00     0.209 HD
ENDBRANCH  42  43
ENDBRANCH  39  42
ENDBRANCH  12  39
TORSDOF 14
