REMARK  3 active torsions:
REMARK  status: ('A' for Active; 'I' for Inactive)
REMARK    1  A    between atoms: C4_4  and  C6_6 
REMARK    2  A    between atoms: C6_6  and  N1_7 
REMARK    3  A    between atoms: N1_7  and  N2_9 
ROOT
HETATM    1  C1  UNL     1      -3.037   0.663  -0.103  1.00  0.00     0.040 C 
HETATM    2  C2  UNL     1      -1.841  -0.241  -0.177  1.00  0.00     0.185 C 
HETATM    3  C3  UNL     1      -0.662   0.544  -0.685  1.00  0.00     0.072 C 
HETATM    4  C4  UNL     1       0.130  -0.292   0.235  1.00  0.00     0.141 C 
HETATM    5  C5  UNL     1       0.610  -1.648  -0.243  1.00  0.00     0.048 C 
HETATM    6  N3  UNL     1      -1.091  -0.414   1.060  1.00  0.00    -0.061 N 
ATOM      7  H31 UNL     1      -1.245  -1.218   1.668  1.00  0.00     0.278 HD
ATOM      8  H32 UNL     1      -1.250   0.188   1.868  1.00  0.00     0.278 HD
ENDROOT
BRANCH   4   9
HETATM    9  C6  UNL     1       1.217   0.371   1.039  1.00  0.00     0.177 C 
BRANCH   9  10
HETATM   10  N1  UNL     1       2.143   1.070   0.164  1.00  0.00    -0.341 N 
ATOM     11  H1  UNL     1       2.045   2.066  -0.034  1.00  0.00     0.179 HD
BRANCH  10  12
HETATM   12  N2  UNL     1       3.154   0.325  -0.381  1.00  0.00    -0.349 N 
ATOM     13  H22 UNL     1       3.239  -0.670  -0.173  1.00  0.00     0.176 HD
ATOM     14  H21 UNL     1       3.804   0.816  -0.995  1.00  0.00     0.176 HD
ENDBRANCH  10  12
ENDBRANCH   9  10
ENDBRANCH   4   9
TORSDOF 3
