REMARK  12 active torsions:
REMARK  status: ('A' for Active; 'I' for Inactive)
REMARK    1  A    between atoms: N1_1  and  C1_5 
REMARK    2  A    between atoms: C4_11  and  O2_12 
REMARK    3  A    between atoms: C6_18  and  C7_19 
REMARK    4  A    between atoms: C7_19  and  O3_20 
REMARK    5  A    between atoms: O3_20  and  S1_21 
REMARK    6  A    between atoms: S1_21  and  N4_24 
REMARK       I    between atoms: N4_24  and  C8_26 
REMARK    7  A    between atoms: C8_26  and  C9_28 
REMARK    8  A    between atoms: C9_28  and  C10_29 
REMARK    9  A    between atoms: C10_29  and  C11_30 
REMARK   10  A    between atoms: C11_30  and  O8_32 
REMARK   11  A    between atoms: O8_32  and  C12_33 
REMARK   12  A    between atoms: C12_33  and  C13_34 
ROOT
HETATM    1  S1  UNL     1      -0.129   0.261  -1.961  1.00  0.00     0.364 S 
HETATM    2  O4  UNL     1       0.395   1.624  -1.594  1.00  0.00    -0.175 OA
HETATM    3  O5  UNL     1       0.085   0.002  -3.449  1.00  0.00    -0.175 OA
ENDROOT
BRANCH   1   4
HETATM    4  O3  UNL     1      -1.725   0.164  -1.555  1.00  0.00    -0.257 OA
BRANCH   4   5
HETATM    5  C7  UNL     1      -1.995  -0.493  -0.382  1.00  0.00     0.225 C 
BRANCH   5   6
HETATM    6  C6  UNL     1      -3.515  -0.500  -0.115  1.00  0.00     0.219 C 
HETATM    7  N3  UNL     1      -4.105  -1.175  -1.228  1.00  0.00    -0.066 N 
HETATM    8  C5  UNL     1      -5.055  -2.125  -0.742  1.00  0.00     0.266 C 
ATOM      9  H32 UNL     1      -3.408  -1.600  -1.840  1.00  0.00     0.277 HD
ATOM     10  H31 UNL     1      -4.512  -0.529  -1.904  1.00  0.00     0.277 HD
HETATM   11  C4  UNL     1      -6.476  -1.664  -0.764  1.00  0.00     0.168 C 
HETATM   12  C3  UNL     1      -6.756  -0.440   0.046  1.00  0.00     0.137 C 
HETATM   13  N2  UNL     1      -6.285  -0.649   1.372  1.00  0.00    -0.350 N 
HETATM   14  C21 UNL     1      -6.458   0.871  -0.539  1.00  0.00     0.143 C 
HETATM   15  C2  UNL     1      -5.432   0.150   2.165  1.00  0.00     0.249 C 
ATOM     16  H2  UNL     1      -6.613  -1.506   1.818  1.00  0.00     0.163 HD
HETATM   17  C1  UNL     1      -4.288   0.944   1.738  1.00  0.00     0.282 C 
HETATM   18  O1  UNL     1      -5.659   0.208   3.408  1.00  0.00    -0.271 OA
HETATM   19  C19 UNL     1      -4.017   0.830   0.228  1.00  0.00     0.080 C 
HETATM   20  C20 UNL     1      -5.129   1.453  -0.481  1.00  0.00     0.128 C 
HETATM   21  N9  UNL     1      -4.854   1.808  -1.889  1.00  0.00    -0.123 NA
HETATM   22  N10 UNL     1      -6.106   2.074  -2.441  1.00  0.00    -0.039 NA
HETATM   23  N11 UNL     1      -6.848   0.996  -1.927  1.00  0.00    -0.121 NA
BRANCH  11  24
HETATM   24  O2  UNL     1      -7.207  -2.706  -0.126  1.00  0.00    -0.392 OA
ATOM     25  H2  UNL     1      -7.029  -3.484  -0.641  1.00  0.00     0.210 HD
ENDBRANCH  11  24
BRANCH  17  26
HETATM   26  N1  UNL     1      -4.304   2.318   2.156  1.00  0.00    -0.066 N 
ATOM     27  H13 UNL     1      -5.171   2.765   1.858  1.00  0.00     0.275 HD
ATOM     28  H12 UNL     1      -4.411   2.375   3.169  1.00  0.00     0.275 HD
ATOM     29  H11 UNL     1      -3.503   2.874   1.857  1.00  0.00     0.275 HD
ENDBRANCH  17  26
ENDBRANCH   5   6
ENDBRANCH   4   5
ENDBRANCH   1   4
BRANCH   1  30
HETATM   30  N4  UNL     1       0.791  -0.924  -1.134  1.00  0.00    -0.231 N 
HETATM   31  C8  UNL     1       1.550  -0.539   0.005  1.00  0.00     0.233 C 
HETATM   32  O6  UNL     1       1.531   0.652   0.390  1.00  0.00    -0.273 OA
ATOM     33  H4  UNL     1       0.794  -1.892  -1.454  1.00  0.00     0.183 HD
BRANCH  31  34
HETATM   34  C9  UNL     1       2.362  -1.543   0.734  1.00  0.00     0.113 C 
BRANCH  34  35
HETATM   35  C10 UNL     1       3.126  -0.857   1.823  1.00  0.00     0.120 C 
BRANCH  35  36
HETATM   36  C11 UNL     1       4.059   0.158   1.299  1.00  0.00     0.259 C 
HETATM   37  O7  UNL     1       4.649   0.915   2.109  1.00  0.00    -0.265 OA
BRANCH  36  38
HETATM   38  O8  UNL     1       4.304   0.304  -0.035  1.00  0.00    -0.315 OA
BRANCH  38  39
HETATM   39  C12 UNL     1       5.154   1.214  -0.653  1.00  0.00     0.237 C 
BRANCH  39  40
HETATM   40  C13 UNL     1       6.560   1.099  -0.258  1.00  0.00     0.051 A 
HETATM   41  C14 UNL     1       7.146   1.976   0.635  1.00  0.00     0.116 A 
HETATM   42  N5  UNL     1       8.442   1.779   0.926  1.00  0.00    -0.356 N 
HETATM   43  C15 UNL     1       9.167   0.782   0.388  1.00  0.00     0.145 A 
ATOM     44  H5  UNL     1       8.896   2.413   1.583  1.00  0.00     0.165 HD
HETATM   45  C16 UNL     1      10.498   0.572   0.676  1.00  0.00     0.280 A 
HETATM   46  C18 UNL     1       8.568  -0.088  -0.505  1.00  0.00     0.142 A 
HETATM   47  O9  UNL     1      11.044   1.365   1.492  1.00  0.00    -0.265 OA
HETATM   48  N6  UNL     1      11.178  -0.449   0.101  1.00  0.00    -0.273 N 
HETATM   49  C17 UNL     1      10.593  -1.290  -0.764  1.00  0.00     0.328 A 
ATOM     50  H6  UNL     1      12.162  -0.582   0.333  1.00  0.00     0.173 HD
HETATM   51  O10 UNL     1      11.234  -2.233  -1.291  1.00  0.00    -0.247 OA
HETATM   52  N7  UNL     1       9.295  -1.100  -1.057  1.00  0.00    -0.292 N 
ATOM     53  H7  UNL     1       8.839  -1.734  -1.714  1.00  0.00     0.172 HD
HETATM   54  N8  UNL     1       7.275   0.086  -0.812  1.00  0.00    -0.341 N 
ATOM     55  H8  UNL     1       6.823  -0.550  -1.469  1.00  0.00     0.167 HD
ENDBRANCH  39  40
ENDBRANCH  38  39
ENDBRANCH  36  38
ENDBRANCH  35  36
ENDBRANCH  34  35
ENDBRANCH  31  34
ENDBRANCH   1  30
TORSDOF 12
