REMARK  5 active torsions:
REMARK  status: ('A' for Active; 'I' for Inactive)
REMARK       I    between atoms: C1_2  and  N2_4 
REMARK    1  A    between atoms: C4_7  and  C5_8 
REMARK    2  A    between atoms: C5_8  and  C6_9 
REMARK       I    between atoms: C6_9  and  N3_11 
REMARK    3  A    between atoms: N3_11  and  C7_13 
REMARK    4  A    between atoms: C8_18  and  C9_19 
REMARK    5  A    between atoms: C20_31  and  C21_32 
ROOT
HETATM    1  C7  UNL     1       0.414   0.988  -0.478  1.00  0.00     0.131 A 
HETATM    2  N4  UNL     1       0.031   2.207  -0.174  1.00  0.00    -0.285 N 
ATOM      3  H4  UNL     1       0.640   3.021  -0.091  1.00  0.00     0.188 HD
HETATM    4  N5  UNL     1      -1.284   2.200   0.007  1.00  0.00    -0.302 N 
ATOM      5  H5  UNL     1      -1.839   3.020   0.252  1.00  0.00     0.186 HD
HETATM    6  C8  UNL     1      -1.787   0.959  -0.178  1.00  0.00     0.045 A 
HETATM    7  C20 UNL     1      -0.743   0.164  -0.485  1.00  0.00     0.016 A 
ENDROOT
BRANCH   1   8
HETATM    8  N3  UNL     1       1.558   0.573  -0.715  1.00  0.00    -0.312 N 
HETATM    9  C6  UNL     1       2.831   1.074  -0.778  1.00  0.00     0.223 C 
HETATM   10  O2  UNL     1       3.209   2.202  -0.412  1.00  0.00    -0.273 OA
ATOM     11  H3  UNL     1       1.548  -0.426  -0.922  1.00  0.00     0.170 HD
BRANCH   9  12
HETATM   12  C5  UNL     1       3.868   0.130  -1.361  1.00  0.00     0.108 C 
BRANCH  12  13
HETATM   13  C4  UNL     1       4.394  -0.681  -0.200  1.00  0.00    -0.003 C 
HETATM   14  C3  UNL     1       5.054   0.238   0.779  1.00  0.00     0.025 C 
HETATM   15  C2  UNL     1       6.374  -0.345   1.269  1.00  0.00     0.127 C 
HETATM   16  N2  UNL     1       7.175  -0.678   0.080  1.00  0.00    -0.337 N 
HETATM   17  C1  UNL     1       8.506  -0.264  -0.055  1.00  0.00     0.330 C 
HETATM   18  C25 UNL     1       6.590  -1.465  -1.007  1.00  0.00     0.127 C 
HETATM   19  N1  UNL     1       9.142   0.471   0.961  1.00  0.00    -0.040 NA
HETATM   20  O1  UNL     1       9.186  -0.527  -1.081  1.00  0.00    -0.251 OA
HETATM   21  C24 UNL     1       5.214  -1.865  -0.601  1.00  0.00     0.025 C 
ENDBRANCH  12  13
ENDBRANCH   9  12
ENDBRANCH   1   8
BRANCH   7  22
HETATM   22  C21 UNL     1      -0.633  -1.213  -0.848  1.00  0.00     0.024 A 
HETATM   23  C22 UNL     1      -1.360  -2.427  -0.571  1.00  0.00     0.010 A 
HETATM   24  C23 UNL     1      -0.110  -2.191   0.198  1.00  0.00     0.010 A 
ENDBRANCH   7  22
BRANCH   6  25
HETATM   25  C9  UNL     1      -3.233   0.691  -0.067  1.00  0.00     0.005 C 
HETATM   26  C10 UNL     1      -3.855   0.168  -1.289  1.00  0.00     0.020 C 
HETATM   27  C11 UNL     1      -5.370   0.188  -1.328  1.00  0.00    -0.012 C 
HETATM   28  C12 UNL     1      -5.962   1.486  -0.927  1.00  0.00     0.009 C 
HETATM   29  C18 UNL     1      -5.971  -1.002  -0.661  1.00  0.00     0.025 C 
HETATM   30  C13 UNL     1      -5.338   2.048   0.287  1.00  0.00    -0.013 C 
HETATM   31  C14 UNL     1      -5.754   1.242   1.495  1.00  0.00     0.011 C 
HETATM   32  C19 UNL     1      -3.866   2.111   0.135  1.00  0.00     0.020 C 
HETATM   33  C15 UNL     1      -5.043  -0.096   1.520  1.00  0.00     0.005 C 
HETATM   34  C16 UNL     1      -3.571   0.000   1.193  1.00  0.00     0.022 C 
HETATM   35  C17 UNL     1      -5.774  -1.149   0.783  1.00  0.00     0.086 C 
HETATM   36 CL1  UNL     1      -5.133  -2.760   1.272  1.00  0.00    -0.125 Cl
ENDBRANCH   6  25
TORSDOF 5
