REMARK  7 active torsions:
REMARK  status: ('A' for Active; 'I' for Inactive)
REMARK    1  A    between atoms: C2_2  and  C3_3 
REMARK    2  A    between atoms: C3_3  and  O2_5 
REMARK    3  A    between atoms: O2_5  and  C4_6 
REMARK    4  A    between atoms: C4_6  and  C5_7 
REMARK    5  A    between atoms: C4_6  and  C11_20 
REMARK    6  A    between atoms: C5_7  and  C6_8 
REMARK    7  A    between atoms: C9_13  and  N2_14 
ROOT
HETATM    1  C5  UNL     1       0.953  -0.149   0.607  1.00  0.00     0.065 C 
ENDROOT
BRANCH   1   2
HETATM    2  C4  UNL     1      -0.296   0.091  -0.163  1.00  0.00     0.138 C 
BRANCH   2   3
HETATM    3  O2  UNL     1      -1.144   1.088   0.192  1.00  0.00    -0.316 OA
BRANCH   3   4
HETATM    4  C3  UNL     1      -1.552   2.191  -0.536  1.00  0.00     0.258 C 
HETATM    5  O1  UNL     1      -1.026   2.215  -1.682  1.00  0.00    -0.265 OA
BRANCH   4   6
HETATM    6  C2  UNL     1      -2.484   3.208  -0.032  1.00  0.00     0.106 C 
HETATM    7  C1  UNL     1      -1.768   4.491   0.348  1.00  0.00     0.015 C 
ENDBRANCH   4   6
ENDBRANCH   3   4
ENDBRANCH   2   3
BRANCH   2   8
HETATM    8  C11 UNL     1      -1.068  -1.218  -0.227  1.00  0.00     0.015 C 
HETATM    9  C12 UNL     1      -1.686  -1.569   1.083  1.00  0.00     0.007 C 
HETATM   10  C13 UNL     1      -2.604  -2.737   0.942  1.00  0.00     0.000 C 
HETATM   11  C14 UNL     1      -3.696  -2.401  -0.030  1.00  0.00     0.000 C 
HETATM   12  C15 UNL     1      -3.042  -2.230  -1.391  1.00  0.00     0.000 C 
HETATM   13  C16 UNL     1      -2.044  -1.097  -1.368  1.00  0.00     0.007 C 
ENDBRANCH   2   8
ENDBRANCH   1   2
BRANCH   1  14
HETATM   14  C6  UNL     1       1.874   1.076   0.596  1.00  0.00     0.138 C 
HETATM   15  C7  UNL     1       3.096   0.715   1.396  1.00  0.00     0.093 C 
HETATM   16  C8  UNL     1       4.062   0.112   0.397  1.00  0.00     0.054 A 
HETATM   17  N1  UNL     1       5.142  -0.630   0.436  1.00  0.00    -0.337 N 
HETATM   18  C10 UNL     1       3.594   0.507  -0.820  1.00  0.00     0.136 A 
HETATM   19  C9  UNL     1       5.723  -0.957  -0.716  1.00  0.00     0.145 A 
ATOM     20  H1  UNL     1       5.527  -0.948   1.325  1.00  0.00     0.168 HD
HETATM   21  S1  UNL     1       4.730  -0.206  -1.878  1.00  0.00    -0.028 SA
HETATM   22  O3  UNL     1       2.427   1.298  -0.680  1.00  0.00    -0.336 OA
BRANCH  19  23
HETATM   23  N2  UNL     1       6.800  -1.681  -0.927  1.00  0.00    -0.380 N 
ATOM     24  H22 UNL     1       7.395  -2.131  -0.231  1.00  0.00     0.158 HD
ATOM     25  H21 UNL     1       7.245  -1.932  -1.810  1.00  0.00     0.158 HD
ENDBRANCH  19  23
ENDBRANCH   1  14
TORSDOF 7
