REMARK  9 active torsions:
REMARK  status: ('A' for Active; 'I' for Inactive)
REMARK    1  A    between atoms: O1_2  and  C2_3 
REMARK    2  A    between atoms: C2_3  and  C3_5 
REMARK    3  A    between atoms: C3_5  and  C4_7 
REMARK    4  A    between atoms: C4_7  and  C5_8 
REMARK    5  A    between atoms: C4_7  and  C7_11 
REMARK    6  A    between atoms: C8_12  and  O5_13 
REMARK    7  A    between atoms: O5_13  and  C9_14 
REMARK    8  A    between atoms: C19_25  and  O7_26 
REMARK    9  A    between atoms: O7_26  and  C20_27 
ROOT
HETATM    1  C7  UNL     1       2.695  -0.600  -0.510  1.00  0.00     0.038 C 
HETATM    2  C8  UNL     1       1.872  -1.694   0.073  1.00  0.00     0.138 C 
HETATM    3  C11 UNL     1       0.548  -1.073   0.490  1.00  0.00     0.043 C 
HETATM    4  C12 UNL     1      -0.296  -0.543  -0.632  1.00  0.00    -0.025 C 
HETATM    5  C13 UNL     1      -0.296  -1.598  -1.779  1.00  0.00     0.016 C 
HETATM    6  C14 UNL     1       0.516   0.526  -1.328  1.00  0.00     0.002 C 
HETATM    7  C15 UNL     1       0.067   1.934  -0.978  1.00  0.00     0.033 C 
HETATM    8  C16 UNL     1      -1.389   1.936  -1.353  1.00  0.00    -0.023 C 
HETATM    9  C17 UNL     1      -2.133   0.910  -1.050  1.00  0.00    -0.071 C 
HETATM   10  C18 UNL     1      -3.571   0.937  -1.428  1.00  0.00     0.067 C 
HETATM   11  C19 UNL     1      -4.240   1.140  -0.073  1.00  0.00     0.136 C 
HETATM   12  C22 UNL     1      -3.401   0.918   1.105  1.00  0.00     0.042 C 
HETATM   13  C23 UNL     1      -2.254  -0.088   1.070  1.00  0.00    -0.033 C 
HETATM   14  C24 UNL     1      -1.351   0.376   2.176  1.00  0.00     0.016 C 
HETATM   15  C25 UNL     1      -2.862  -1.348   1.681  1.00  0.00     0.016 C 
HETATM   16  C26 UNL     1      -1.690  -0.290  -0.293  1.00  0.00    -0.006 C 
HETATM   17  C27 UNL     1      -2.546  -1.452  -0.836  1.00  0.00     0.021 C 
HETATM   18  C28 UNL     1       1.970   0.430  -1.309  1.00  0.00    -0.006 C 
HETATM   19  C29 UNL     1       2.458   0.329  -2.777  1.00  0.00     0.011 C 
ENDROOT
BRANCH   1  20
HETATM   20  C4  UNL     1       3.477   0.154   0.549  1.00  0.00     0.142 C 
BRANCH  20  21
HETATM   21  C3  UNL     1       4.308   1.268   0.059  1.00  0.00     0.235 C 
HETATM   22  O3  UNL     1       4.831   1.246  -1.110  1.00  0.00    -0.286 OA
BRANCH  21  23
HETATM   23  C2  UNL     1       4.596   2.446   0.852  1.00  0.00     0.329 C 
HETATM   24  O2  UNL     1       4.145   2.697   1.996  1.00  0.00    -0.256 OA
BRANCH  23  25
HETATM   25  O1  UNL     1       5.456   3.414   0.318  1.00  0.00    -0.320 OA
HETATM   26  C1  UNL     1       5.775   4.598   1.060  1.00  0.00     0.213 C 
ENDBRANCH  23  25
ENDBRANCH  21  23
ENDBRANCH  20  21
BRANCH  20  27
HETATM   27  C5  UNL     1       4.278  -0.643   1.470  1.00  0.00     0.135 C 
HETATM   28  C6  UNL     1       4.745  -0.258   2.814  1.00  0.00     0.091 C 
HETATM   29  O4  UNL     1       4.636  -1.786   1.122  1.00  0.00    -0.298 OA
ENDBRANCH  20  27
ENDBRANCH   1  20
BRANCH   2  30
HETATM   30  O5  UNL     1       1.695  -2.885  -0.528  1.00  0.00    -0.316 OA
BRANCH  30  31
HETATM   31  C9  UNL     1       1.912  -4.167  -0.125  1.00  0.00     0.255 C 
HETATM   32  C10 UNL     1       1.647  -5.368  -0.960  1.00  0.00     0.126 C 
HETATM   33  O6  UNL     1       2.361  -4.284   1.021  1.00  0.00    -0.266 OA
ENDBRANCH  30  31
ENDBRANCH   2  30
BRANCH  11  34
HETATM   34  O7  UNL     1      -5.546   0.602  -0.037  1.00  0.00    -0.316 OA
BRANCH  34  35
HETATM   35  C20 UNL     1      -6.715   1.317  -0.023  1.00  0.00     0.255 C 
HETATM   36  C21 UNL     1      -8.067   0.725   0.014  1.00  0.00     0.126 C 
HETATM   37  O8  UNL     1      -6.628   2.577  -0.044  1.00  0.00    -0.266 OA
ENDBRANCH  34  35
ENDBRANCH  11  34
TORSDOF 9
