REMARK  17 active torsions:
REMARK  status: ('A' for Active; 'I' for Inactive)
REMARK    1  A    between atoms: N1_1  and  O1_4 
REMARK    2  A    between atoms: O1_4  and  C1_5 
REMARK    3  A    between atoms: C1_5  and  C2_7 
REMARK    4  A    between atoms: C2_7  and  C7_24 
REMARK    5  A    between atoms: N2_8  and  O3_10 
REMARK    6  A    between atoms: O3_10  and  C3_11 
REMARK    7  A    between atoms: C3_11  and  C4_12 
REMARK    8  A    between atoms: C3_11  and  C6_17 
REMARK    9  A    between atoms: C4_12  and  C5_14 
REMARK   10  A    between atoms: C6_17  and  N3_18 
REMARK   11  A    between atoms: C6_17  and  O7_22 
REMARK   12  A    between atoms: C7_24  and  O8_25 
REMARK   13  A    between atoms: C7_24  and  C8_27 
REMARK   14  A    between atoms: C8_27  and  O9_28 
REMARK   15  A    between atoms: C10_31  and  O10_32 
REMARK   16  A    between atoms: C15_43  and  O12_44 
REMARK   17  A    between atoms: C16_46  and  O13_47 
ROOT
HETATM    1  C7  UNL     1       0.161   0.683   0.890  1.00  0.00     0.213 C 
ENDROOT
BRANCH   1   2
HETATM    2  C2  UNL     1      -1.247   0.908   0.576  1.00  0.00     0.140 C 
HETATM    3  N2  UNL     1      -2.115   0.274   1.205  1.00  0.00    -0.261 N 
ATOM      4  H2  UNL     1      -1.612  -0.289   1.891  1.00  0.00     0.194 HD
BRANCH   2   5
HETATM    5  C1  UNL     1      -1.664   1.803  -0.475  1.00  0.00     0.331 C 
HETATM    6  O2  UNL     1      -2.891   1.942  -0.810  1.00  0.00    -0.256 OA
BRANCH   5   7
HETATM    7  O1  UNL     1      -0.773   2.593  -1.207  1.00  0.00    -0.201 OA
BRANCH   7   8
HETATM    8  N1  UNL     1      -1.240   3.428  -2.190  1.00  0.00    -0.302 N 
ATOM      9  H12 UNL     1      -2.243   3.461  -2.375  1.00  0.00     0.184 HD
ATOM     10  H11 UNL     1      -0.590   4.004  -2.724  1.00  0.00     0.184 HD
ENDBRANCH   7   8
ENDBRANCH   5   7
ENDBRANCH   2   5
BRANCH   3  11
HETATM   11  O3  UNL     1      -3.352   0.015   1.374  1.00  0.00    -0.262 OA
BRANCH  11  12
HETATM   12  C3  UNL     1      -4.407  -0.512   0.634  1.00  0.00     0.288 C 
BRANCH  12  13
HETATM   13  C4  UNL     1      -5.609   0.324   0.807  1.00  0.00     0.260 C 
HETATM   14  O4  UNL     1      -5.605   1.310   1.575  1.00  0.00    -0.283 OA
BRANCH  13  15
HETATM   15  C5  UNL     1      -6.821   0.015   0.087  1.00  0.00     0.249 C 
HETATM   16  O5  UNL     1      -6.973  -0.931  -0.727  1.00  0.00    -0.642 OA
HETATM   17  O6  UNL     1      -7.980   0.801   0.262  1.00  0.00    -0.642 OA
ENDBRANCH  13  15
ENDBRANCH  12  13
BRANCH  12  18
HETATM   18  C6  UNL     1      -4.689  -1.960   1.070  1.00  0.00     0.356 C 
BRANCH  18  19
HETATM   19  N3  UNL     1      -3.500  -2.764   0.853  1.00  0.00    -0.050 N 
ATOM     20  H33 UNL     1      -3.165  -2.708  -0.109  1.00  0.00     0.277 HD
ATOM     21  H32 UNL     1      -2.679  -2.373   1.315  1.00  0.00     0.277 HD
ATOM     22  H31 UNL     1      -3.687  -3.724   1.142  1.00  0.00     0.277 HD
ENDBRANCH  18  19
BRANCH  18  23
HETATM   23  O7  UNL     1      -5.029  -2.051   2.397  1.00  0.00    -0.368 OA
ATOM     24  H7  UNL     1      -5.203  -2.945   2.666  1.00  0.00     0.212 HD
ENDBRANCH  18  23
ENDBRANCH  12  18
ENDBRANCH  11  12
ENDBRANCH   3  11
ENDBRANCH   1   2
BRANCH   1  25
HETATM   25  O8  UNL     1       0.326   0.369   2.265  1.00  0.00    -0.386 OA
ATOM     26  H8  UNL     1       1.242   0.223   2.469  1.00  0.00     0.210 HD
ENDBRANCH   1  25
BRANCH   1  27
HETATM   27  C8  UNL     1       0.958  -0.259   0.097  1.00  0.00     0.127 C 
HETATM   28  C9  UNL     1       1.110  -0.093  -1.364  1.00  0.00     0.078 C 
HETATM   29  C10 UNL     1       2.385   0.658  -1.623  1.00  0.00     0.147 C 
HETATM   30  C11 UNL     1       3.028   0.916  -0.273  1.00  0.00     0.157 C 
HETATM   31  N4  UNL     1       4.426   0.557  -0.252  1.00  0.00    -0.329 N 
HETATM   32  C16 UNL     1       2.394  -0.179   0.564  1.00  0.00     0.142 C 
HETATM   33  C12 UNL     1       5.753   0.946  -0.589  1.00  0.00     0.194 C 
HETATM   34  C14 UNL     1       4.606  -0.770   0.371  1.00  0.00     0.211 C 
HETATM   35  N5  UNL     1       6.212   2.295  -0.742  1.00  0.00    -0.063 NA
HETATM   36  N6  UNL     1       6.501  -0.123  -0.742  1.00  0.00    -0.299 N 
HETATM   37  C13 UNL     1       5.669  -1.283  -0.504  1.00  0.00     0.249 C 
ATOM     38  H6  UNL     1       7.492  -0.134  -0.985  1.00  0.00     0.171 HD
HETATM   39  O11 UNL     1       5.871  -2.437  -0.973  1.00  0.00    -0.271 OA
HETATM   40  C15 UNL     1       3.237  -1.364   0.120  1.00  0.00     0.190 C 
BRANCH  27  41
HETATM   41  O9  UNL     1       0.551  -1.604   0.385  1.00  0.00    -0.383 OA
ATOM     42  H9  UNL     1       1.067  -2.214  -0.129  1.00  0.00     0.210 HD
ENDBRANCH  27  41
BRANCH  29  43
HETATM   43  O10 UNL     1       2.263   1.788  -2.392  1.00  0.00    -0.393 OA
ATOM     44  H10 UNL     1       3.069   2.263  -2.556  1.00  0.00     0.210 HD
ENDBRANCH  29  43
BRANCH  40  45
HETATM   45  O12 UNL     1       3.026  -2.464   0.930  1.00  0.00    -0.390 OA
ATOM     46  H12 UNL     1       2.167  -2.837   0.772  1.00  0.00     0.210 HD
ENDBRANCH  40  45
BRANCH  32  47
HETATM   47  O13 UNL     1       2.574  -0.029   1.905  1.00  0.00    -0.382 OA
ATOM     48  H13 UNL     1       3.476   0.021   2.198  1.00  0.00     0.211 HD
ENDBRANCH  32  47
ENDBRANCH   1  27
TORSDOF 17
