REMARK  9 active torsions:
REMARK  status: ('A' for Active; 'I' for Inactive)
REMARK    1  A    between atoms: N1_2  and  C2_3 
REMARK    2  A    between atoms: N1_2  and  C7_17 
REMARK    3  A    between atoms: C2_3  and  C3_4 
REMARK    4  A    between atoms: C3_4  and  N2_5 
REMARK    5  A    between atoms: C5_9  and  N4_10 
REMARK    6  A    between atoms: C8_20  and  N7_21 
REMARK    7  A    between atoms: C13_28  and  N9_29 
REMARK    8  A    between atoms: N10_32  and  C16_33 
REMARK    9  A    between atoms: C18_35  and  N11_36 
ROOT
HETATM    1  C7  UNL     1       1.368  -0.094  -0.318  1.00  0.00     0.709 A 
HETATM    2  N6  UNL     1       1.743  -1.377  -0.424  1.00  0.00    -0.021 N 
ATOM      3  H6  UNL     1       2.725  -1.584  -0.606  1.00  0.00     0.203 HD
HETATM    4  C8  UNL     1       0.879  -2.406  -0.300  1.00  0.00     0.709 A 
HETATM    5  N8  UNL     1      -0.406  -2.076  -0.060  1.00  0.00    -0.021 N 
ATOM      6  H8  UNL     1      -1.082  -2.834   0.038  1.00  0.00     0.203 HD
HETATM    7  C13 UNL     1      -0.856  -0.816   0.059  1.00  0.00     0.709 A 
HETATM    8  N14 UNL     1       0.057   0.155  -0.073  1.00  0.00    -0.021 N 
ATOM      9  H14 UNL     1      -0.247   1.125   0.015  1.00  0.00     0.203 HD
ENDROOT
BRANCH   7  10
HETATM   10  N9  UNL     1      -2.250  -0.526   0.294  1.00  0.00    -0.214 N 
HETATM   11  C14 UNL     1      -3.228  -0.964  -0.682  1.00  0.00     0.161 C 
HETATM   12  C15 UNL     1      -4.355   0.046  -0.813  1.00  0.00     0.145 C 
HETATM   13  N10 UNL     1      -4.768   0.521   0.505  1.00  0.00    -0.364 N 
HETATM   14  C20 UNL     1      -4.168  -0.123   1.638  1.00  0.00     0.145 C 
HETATM   15  C21 UNL     1      -2.660   0.172   1.506  1.00  0.00     0.161 C 
BRANCH  13  16
HETATM   16  C16 UNL     1      -5.694   1.569   0.603  1.00  0.00     0.107 A 
HETATM   17  C17 UNL     1      -6.122   2.178  -0.591  1.00  0.00     0.096 A 
HETATM   18  C18 UNL     1      -7.023   3.207  -0.515  1.00  0.00     0.103 A 
HETATM   19  N12 UNL     1      -7.464   3.593   0.701  1.00  0.00    -0.339 N 
HETATM   20  C19 UNL     1      -7.046   3.000   1.821  1.00  0.00     0.183 A 
ATOM     21  H12 UNL     1      -8.135   4.359   0.766  1.00  0.00     0.168 HD
HETATM   22  N13 UNL     1      -6.153   1.977   1.786  1.00  0.00    -0.339 N 
ATOM     23  H13 UNL     1      -5.840   1.530   2.648  1.00  0.00     0.168 HD
BRANCH  18  24
HETATM   24  N11 UNL     1      -7.426   3.796  -1.606  1.00  0.00    -0.385 N 
ATOM     25 2H11 UNL     1      -7.093   3.504  -2.525  1.00  0.00     0.157 HD
ATOM     26 1H11 UNL     1      -8.097   4.562  -1.549  1.00  0.00     0.157 HD
ENDBRANCH  18  24
ENDBRANCH  13  16
ENDBRANCH   7  10
BRANCH   4  27
HETATM   27  N7  UNL     1       1.282  -3.776  -0.372  1.00  0.00    -0.217 N 
HETATM   28  C9  UNL     1       0.314  -4.856  -0.567  1.00  0.00     0.141 C 
HETATM   29  C10 UNL     1       1.068  -6.137  -0.392  1.00  0.00     0.022 C 
HETATM   30  C11 UNL     1       2.251  -5.685   0.465  1.00  0.00     0.022 C 
HETATM   31  C12 UNL     1       2.580  -4.365  -0.257  1.00  0.00     0.141 C 
ENDBRANCH   4  27
BRANCH   1  32
HETATM   32  N1  UNL     1       2.285   1.000  -0.494  1.00  0.00    -0.219 N 
HETATM   33  C1  UNL     1       2.209   2.098   0.427  1.00  0.00     0.168 C 
BRANCH  32  34
HETATM   34  C2  UNL     1       3.190   0.986  -1.584  1.00  0.00     0.161 C 
BRANCH  34  35
HETATM   35  C3  UNL     1       4.643   0.845  -1.339  1.00  0.00     0.155 C 
BRANCH  35  36
HETATM   36  N2  UNL     1       5.291   1.816  -0.528  1.00  0.00    -0.293 N 
HETATM   37  C4  UNL     1       5.640   2.997  -1.110  1.00  0.00     0.205 A 
HETATM   38  N3  UNL     1       6.222   3.962  -0.402  1.00  0.00    -0.188 N 
HETATM   39  C5  UNL     1       6.488   3.819   0.903  1.00  0.00     0.680 A 
ATOM     40  H3  UNL     1       6.473   4.835  -0.866  1.00  0.00     0.185 HD
HETATM   41  N5  UNL     1       6.154   2.658   1.511  1.00  0.00    -0.141 N 
HETATM   42  C6  UNL     1       5.558   1.673   0.773  1.00  0.00     0.341 A 
ATOM     43  H5  UNL     1       6.344   2.519   2.504  1.00  0.00     0.189 HD
HETATM   44  O1  UNL     1       5.277   0.610   1.404  1.00  0.00    -0.246 OA
BRANCH  39  45
HETATM   45  N4  UNL     1       7.062   4.796   1.561  1.00  0.00    -0.234 N 
ATOM     46  H42 UNL     1       7.314   5.672   1.102  1.00  0.00     0.174 HD
ATOM     47  H41 UNL     1       7.265   4.687   2.555  1.00  0.00     0.174 HD
ENDBRANCH  39  45
ENDBRANCH  35  36
ENDBRANCH  34  35
ENDBRANCH  32  34
ENDBRANCH   1  32
TORSDOF 9
