REMARK  17 active torsions:
REMARK  status: ('A' for Active; 'I' for Inactive)
REMARK    1  A    between atoms: C4_4  and  O1_5 
REMARK    2  A    between atoms: C6_8  and  O2_9 
REMARK    3  A    between atoms: C7_11  and  C8_12 
REMARK    4  A    between atoms: C8_12  and  N1_13 
REMARK    5  A    between atoms: C8_12  and  C10_19 
REMARK    6  A    between atoms: N1_13  and  N2_14 
REMARK    7  A    between atoms: C11_21  and  C12_22 
REMARK    8  A    between atoms: C12_22  and  O4_23 
REMARK    9  A    between atoms: C12_22  and  O5_25 
REMARK   10  A    between atoms: C14_28  and  C15_29 
REMARK   11  A    between atoms: C15_29  and  O6_30 
REMARK   12  A    between atoms: O6_30  and  C16_31 
REMARK   13  A    between atoms: C17_32  and  O7_33 
REMARK   14  A    between atoms: C19_36  and  O8_37 
REMARK   15  A    between atoms: C19_36  and  C20_39 
REMARK   16  A    between atoms: C20_39  and  C21_41 
REMARK   17  A    between atoms: C21_41  and  O10_42 
ROOT
HETATM    1  C10 UNL     1      -1.801  -1.332   0.470  1.00  0.00     0.128 A 
HETATM    2  O3  UNL     1      -2.456  -2.419   0.345  1.00  0.00    -0.306 OA
HETATM    3  C11 UNL     1      -1.807  -3.361  -0.254  1.00  0.00     0.108 A 
HETATM    4  C13 UNL     1      -0.580  -2.871  -0.574  1.00  0.00     0.050 A 
HETATM    5  C14 UNL     1      -0.555  -1.540  -0.107  1.00  0.00     0.006 A 
ENDROOT
BRANCH   5   6
HETATM    6  C15 UNL     1       0.636  -0.734  -0.276  1.00  0.00     0.217 C 
BRANCH   6   7
HETATM    7  O6  UNL     1       1.642  -1.478  -0.993  1.00  0.00    -0.340 OA
BRANCH   7   8
HETATM    8  C16 UNL     1       2.873  -0.877  -1.264  1.00  0.00     0.152 C 
HETATM    9  C17 UNL     1       3.135  -0.331  -2.435  1.00  0.00     0.084 C 
HETATM   10  C18 UNL     1       4.388   0.330  -2.837  1.00  0.00     0.122 C 
HETATM   11  C19 UNL     1       5.550   0.012  -1.960  1.00  0.00     0.194 C 
HETATM   12  C22 UNL     1       5.165  -0.223  -0.538  1.00  0.00     0.244 C 
HETATM   13  O11 UNL     1       5.956   0.137   0.363  1.00  0.00    -0.285 OA
HETATM   14  C23 UNL     1       3.877  -0.866  -0.211  1.00  0.00     0.256 C 
HETATM   15  O12 UNL     1       3.687  -1.370   0.929  1.00  0.00    -0.281 OA
BRANCH   9  16
HETATM   16  O7  UNL     1       2.058  -0.423  -3.358  1.00  0.00    -0.362 OA
ATOM     17  H7  UNL     1       2.247  -0.030  -4.202  1.00  0.00     0.217 HD
ENDBRANCH   9  16
BRANCH  11  18
HETATM   18  O8  UNL     1       6.125  -1.167  -2.494  1.00  0.00    -0.374 OA
ATOM     19  H8  UNL     1       6.866  -1.370  -1.935  1.00  0.00     0.211 HD
ENDBRANCH  11  18
BRANCH  11  20
HETATM   20  C20 UNL     1       6.590   1.066  -1.995  1.00  0.00     0.192 C 
HETATM   21  O9  UNL     1       7.678   0.793  -2.481  1.00  0.00    -0.292 OA
BRANCH  20  22
HETATM   22  C21 UNL     1       6.363   2.439  -1.463  1.00  0.00     0.246 C 
BRANCH  22  23
HETATM   23  O10 UNL     1       5.104   2.578  -0.919  1.00  0.00    -0.393 OA
ATOM     24  H10 UNL     1       4.959   3.453  -0.580  1.00  0.00     0.209 HD
ENDBRANCH  22  23
ENDBRANCH  20  22
ENDBRANCH  11  20
ENDBRANCH   7   8
ENDBRANCH   6   7
ENDBRANCH   5   6
BRANCH   1  25
HETATM   25  C8  UNL     1      -2.188  -0.045   1.099  1.00  0.00     0.179 C 
BRANCH  25  26
HETATM   26  C7  UNL     1      -3.506   0.083   1.776  1.00  0.00     0.049 A 
HETATM   27  C2  UNL     1      -3.803   1.108   2.631  1.00  0.00    -0.043 A 
HETATM   28  C1  UNL     1      -2.721   1.878   3.334  1.00  0.00     0.049 C 
HETATM   29  C3  UNL     1      -5.103   1.440   3.047  1.00  0.00     0.044 A 
HETATM   30  C4  UNL     1      -6.163   0.723   2.602  1.00  0.00     0.068 A 
HETATM   31  C5  UNL     1      -5.920  -0.309   1.754  1.00  0.00     0.074 A 
HETATM   32  C6  UNL     1      -4.620  -0.633   1.340  1.00  0.00     0.082 A 
BRANCH  30  33
HETATM   33  O1  UNL     1      -7.457   1.049   3.013  1.00  0.00    -0.361 OA
ATOM     34  H1  UNL     1      -8.200   0.546   2.701  1.00  0.00     0.217 HD
ENDBRANCH  30  33
BRANCH  32  35
HETATM   35  O2  UNL     1      -4.563  -1.670   0.492  1.00  0.00    -0.360 OA
ATOM     36  H2  UNL     1      -3.682  -1.890   0.212  1.00  0.00     0.217 HD
ENDBRANCH  32  35
ENDBRANCH  25  26
BRANCH  25  37
HETATM   37  N1  UNL     1      -1.419   0.889   1.214  1.00  0.00    -0.320 NA
BRANCH  37  38
HETATM   38  N2  UNL     1      -0.479   1.760   1.217  1.00  0.00    -0.208 N 
HETATM   39  C9  UNL     1      -0.436   2.836   0.461  1.00  0.00     0.226 C 
HETATM   40  N3  UNL     1       0.640   3.743   0.529  1.00  0.00    -0.065 NA
HETATM   41  N4  UNL     1      -1.515   3.035  -0.419  1.00  0.00    -0.065 NA
ATOM     42  H2  UNL     1       0.300   1.607   1.858  1.00  0.00     0.204 HD
ENDBRANCH  37  38
ENDBRANCH  25  37
ENDBRANCH   1  25
BRANCH   3  43
HETATM   43  C12 UNL     1      -2.369  -4.733  -0.517  1.00  0.00     0.312 C 
BRANCH  43  44
HETATM   44  O4  UNL     1      -3.650  -4.585  -1.000  1.00  0.00    -0.365 OA
ATOM     45  H4  UNL     1      -4.005  -5.451  -1.166  1.00  0.00     0.213 HD
ENDBRANCH  43  44
BRANCH  43  46
HETATM   46  O5  UNL     1      -2.456  -5.380   0.723  1.00  0.00    -0.365 OA
ATOM     47  H5  UNL     1      -2.811  -6.246   0.557  1.00  0.00     0.213 HD
ENDBRANCH  43  46
ENDBRANCH   3  43
TORSDOF 17
