REMARK  5 active torsions:
REMARK  status: ('A' for Active; 'I' for Inactive)
REMARK    1  A    between atoms: C2_2  and  C4_4 
REMARK    2  A    between atoms: C4_4  and  C5_5 
REMARK    3  A    between atoms: C5_5  and  S1_6 
REMARK    4  A    between atoms: S1_6  and  C6_7 
REMARK    5  A    between atoms: C7_10  and  O1_12 
ROOT
HETATM    1  C6  UNL     1       0.009  -1.124  -0.834  1.00  0.00     0.142 C 
HETATM    2  N1  UNL     1      -0.896  -1.976  -0.448  1.00  0.00    -0.339 N 
ATOM      3  H1  UNL     1      -0.502  -2.881  -0.190  1.00  0.00     0.164 HD
HETATM    4  C7  UNL     1      -2.304  -1.930  -0.306  1.00  0.00     0.133 C 
HETATM    5  C8  UNL     1      -2.703  -3.174   0.492  1.00  0.00     0.071 C 
HETATM    6  C9  UNL     1      -2.888  -0.760   0.388  1.00  0.00     0.101 C 
HETATM    7  C10 UNL     1      -2.526   0.561  -0.131  1.00  0.00    -0.025 A 
HETATM    8  C11 UNL     1      -3.510   1.481   0.177  1.00  0.00     0.028 A 
HETATM    9  C12 UNL     1      -3.440   2.808  -0.185  1.00  0.00     0.011 A 
HETATM   10 BR1  UNL     1      -4.836   4.048   0.268  1.00  0.00    -0.051 Br
HETATM   11  C13 UNL     1      -2.334   3.228  -0.886  1.00  0.00     0.021 A 
HETATM   12  C14 UNL     1      -1.324   2.323  -1.212  1.00  0.00     0.031 A 
HETATM   13  C15 UNL     1      -1.424   1.003  -0.836  1.00  0.00     0.040 A 
HETATM   14  N2  UNL     1      -0.323   0.199  -1.238  1.00  0.00    -0.337 N 
ATOM     15  H2  UNL     1       0.316   0.629  -1.907  1.00  0.00     0.168 HD
ENDROOT
BRANCH   1  16
HETATM   16  S1  UNL     1       1.703  -1.587  -0.868  1.00  0.00    -0.094 SA
BRANCH  16  17
HETATM   17  C5  UNL     1       2.745  -0.204  -1.364  1.00  0.00     0.082 C 
BRANCH  17  18
HETATM   18  C4  UNL     1       2.822   0.911  -0.382  1.00  0.00     0.014 C 
BRANCH  18  19
HETATM   19  C2  UNL     1       3.380   0.569   0.956  1.00  0.00    -0.022 C 
HETATM   20  C1  UNL     1       4.810   0.045   0.766  1.00  0.00     0.009 C 
HETATM   21  C3  UNL     1       2.614  -0.426   1.755  1.00  0.00     0.009 C 
ENDBRANCH  18  19
ENDBRANCH  17  18
ENDBRANCH  16  17
ENDBRANCH   1  16
BRANCH   4  22
HETATM   22  O1  UNL     1      -2.980  -2.067  -1.542  1.00  0.00    -0.371 OA
ATOM     23  H1  UNL     1      -3.925  -2.036  -1.447  1.00  0.00     0.212 HD
ENDBRANCH   4  22
TORSDOF 5
