REMARK  9 active torsions:
REMARK  status: ('A' for Active; 'I' for Inactive)
REMARK    1  A    between atoms: O1_2  and  C2_3 
REMARK    2  A    between atoms: C2_3  and  C3_5 
REMARK    3  A    between atoms: C16_18  and  O3_19 
REMARK    4  A    between atoms: O3_19  and  C17_20 
REMARK    5  A    between atoms: C21_25  and  C23_27 
REMARK    6  A    between atoms: C23_27  and  C24_29 
REMARK    7  A    between atoms: C24_29  and  O6_31 
REMARK    8  A    between atoms: C24_29  and  C26_33 
REMARK    9  A    between atoms: C35_42  and  O7_43 
ROOT
HETATM    1  C3  UNL     1      -4.644   0.736  -1.084  1.00  0.00     0.049 C 
HETATM    2  C4  UNL     1      -4.958   1.750  -2.217  1.00  0.00     0.026 C 
HETATM    3  C5  UNL     1      -5.664  -0.361  -1.328  1.00  0.00     0.020 C 
HETATM    4  C6  UNL     1      -5.287  -1.599  -0.563  1.00  0.00     0.002 C 
HETATM    5  C7  UNL     1      -4.045  -2.101  -1.246  1.00  0.00     0.012 C 
HETATM    6  C8  UNL     1      -2.921  -1.128  -1.286  1.00  0.00    -0.007 C 
HETATM    7  C9  UNL     1      -2.314  -1.410  -2.686  1.00  0.00     0.019 C 
HETATM    8  C10 UNL     1      -3.240   0.295  -1.124  1.00  0.00     0.015 C 
HETATM    9  C11 UNL     1      -2.308   0.853  -0.074  1.00  0.00     0.020 C 
HETATM   10  C12 UNL     1      -1.380  -0.227   0.430  1.00  0.00    -0.002 C 
HETATM   11  C13 UNL     1      -1.816  -0.295   1.939  1.00  0.00     0.019 C 
HETATM   12  C14 UNL     1       0.067   0.107   0.537  1.00  0.00    -0.002 C 
HETATM   13  C15 UNL     1       0.637  -0.144   1.937  1.00  0.00     0.019 C 
HETATM   14  C16 UNL     1       0.370   1.604   0.370  1.00  0.00     0.146 C 
HETATM   15  C19 UNL     1       1.888   1.676   0.085  1.00  0.00     0.028 C 
HETATM   16  C20 UNL     1       2.151   2.932  -0.718  1.00  0.00     0.014 C 
HETATM   17  C21 UNL     1       2.126   0.399  -0.709  1.00  0.00     0.030 C 
HETATM   18  C22 UNL     1       1.773   0.967  -2.149  1.00  0.00     0.024 C 
HETATM   19  C30 UNL     1       1.039  -0.534  -0.396  1.00  0.00     0.017 C 
HETATM   20  C31 UNL     1       1.382  -1.963  -0.089  1.00  0.00    -0.013 C 
HETATM   21  C32 UNL     1       2.025  -2.659  -1.288  1.00  0.00     0.010 C 
HETATM   22  C33 UNL     1       0.160  -2.823   0.166  1.00  0.00     0.007 C 
HETATM   23  C34 UNL     1      -0.983  -2.480  -0.748  1.00  0.00     0.040 C 
HETATM   24  C35 UNL     1      -1.882  -1.432  -0.201  1.00  0.00     0.073 C 
ENDROOT
BRANCH  17  25
HETATM   25  C23 UNL     1       3.520   0.050  -0.831  1.00  0.00     0.170 C 
HETATM   26  O5  UNL     1       3.920  -0.284  -1.979  1.00  0.00    -0.294 OA
BRANCH  25  27
HETATM   27  C24 UNL     1       4.662  -0.023   0.088  1.00  0.00     0.119 C 
HETATM   28  C25 UNL     1       5.715   1.060  -0.278  1.00  0.00     0.055 C 
BRANCH  27  29
HETATM   29  O6  UNL     1       4.375   0.383   1.415  1.00  0.00    -0.382 OA
ATOM     30  H6  UNL     1       5.114   0.336   2.010  1.00  0.00     0.211 HD
ENDBRANCH  27  29
BRANCH  27  31
HETATM   31  C26 UNL     1       5.325  -1.343   0.259  1.00  0.00     0.031 A 
HETATM   32  C27 UNL     1       6.489  -1.449   1.170  1.00  0.00     0.013 A 
HETATM   33  C28 UNL     1       6.510  -1.876  -0.335  1.00  0.00    -0.011 A 
HETATM   34  C29 UNL     1       7.509  -1.173  -1.171  1.00  0.00     0.010 C 
ENDBRANCH  27  31
ENDBRANCH  25  27
ENDBRANCH  17  25
BRANCH  14  35
HETATM   35  O3  UNL     1       0.174   2.228   1.581  1.00  0.00    -0.315 OA
BRANCH  35  36
HETATM   36  C17 UNL     1      -0.391   3.432   1.791  1.00  0.00     0.255 C 
HETATM   37  C18 UNL     1      -0.568   4.025   3.159  1.00  0.00     0.126 C 
HETATM   38  O4  UNL     1      -0.779   4.070   0.795  1.00  0.00    -0.266 OA
ENDBRANCH  35  36
ENDBRANCH  14  35
BRANCH  24  39
HETATM   39  O7  UNL     1      -2.666  -2.158   0.752  1.00  0.00    -0.388 OA
ATOM     40  H7  UNL     1      -2.022  -2.346   1.425  1.00  0.00     0.210 HD
ENDBRANCH  24  39
BRANCH   1  41
HETATM   41  C2  UNL     1      -5.138   1.417   0.134  1.00  0.00     0.267 C 
HETATM   42  O2  UNL     1      -5.476   2.653   0.142  1.00  0.00    -0.264 OA
BRANCH  41  43
HETATM   43  O1  UNL     1      -5.283   0.804   1.369  1.00  0.00    -0.326 OA
HETATM   44  C1  UNL     1      -5.742   1.416   2.526  1.00  0.00     0.213 C 
ENDBRANCH  41  43
ENDBRANCH   1  41
TORSDOF 9
