REMARK  13 active torsions:
REMARK  status: ('A' for Active; 'I' for Inactive)
REMARK    1  A    between atoms: C2_2  and  C3_3 
REMARK    2  A    between atoms: C3_3  and  C5_5 
REMARK    3  A    between atoms: C5_5  and  N1_6 
REMARK    4  A    between atoms: C5_5  and  C10_15 
REMARK       I    between atoms: N1_6  and  C6_8 
REMARK       I    between atoms: C6_8  and  N2_10 
REMARK    5  A    between atoms: C10_15  and  C11_17 
REMARK    6  A    between atoms: C12_18  and  N3_19 
REMARK    7  A    between atoms: N3_19  and  C13_22 
REMARK    8  A    between atoms: C13_22  and  C14_23 
REMARK    9  A    between atoms: C14_23  and  N4_24 
REMARK       I    between atoms: N4_24  and  C15_26 
REMARK   10  A    between atoms: C15_26  and  C16_28 
REMARK   11  A    between atoms: C22_34  and  C23_35 
REMARK   12  A    between atoms: C23_35  and  O5_37 
REMARK   13  A    between atoms: O5_37  and  C24_38 
ROOT
HETATM    1  C11 UNL     1       0.668  -0.867   0.068  1.00  0.00     0.102 C 
HETATM    2  C12 UNL     1       1.175  -1.675   1.280  1.00  0.00     0.199 C 
HETATM    3  C21 UNL     1       1.738  -2.697   0.316  1.00  0.00     0.049 C 
HETATM    4  C22 UNL     1       0.708  -2.181  -0.688  1.00  0.00     0.101 C 
ENDROOT
BRANCH   1   5
HETATM    5  C10 UNL     1      -0.640  -0.275   0.267  1.00  0.00     0.156 C 
HETATM    6  O2  UNL     1      -1.147  -0.493   1.408  1.00  0.00    -0.295 OA
BRANCH   5   7
HETATM    7  C5  UNL     1      -1.392   0.518  -0.705  1.00  0.00     0.160 C 
BRANCH   7   8
HETATM    8  C3  UNL     1      -0.756   1.722  -1.306  1.00  0.00     0.011 C 
HETATM    9  C4  UNL     1       0.590   1.453  -1.976  1.00  0.00     0.012 C 
BRANCH   8  10
HETATM   10  C2  UNL     1      -1.605   2.283  -2.450  1.00  0.00     0.002 C 
HETATM   11  C1  UNL     1      -1.697   1.248  -3.575  1.00  0.00     0.005 C 
ENDBRANCH   8  10
ENDBRANCH   7   8
BRANCH   7  12
HETATM   12  N1  UNL     1      -2.726   0.823  -0.167  1.00  0.00    -0.331 N 
HETATM   13  C6  UNL     1      -3.181   2.010   0.385  1.00  0.00     0.319 C 
HETATM   14  O1  UNL     1      -2.534   3.085   0.556  1.00  0.00    -0.247 OA
HETATM   15  N2  UNL     1      -4.550   2.111   0.844  1.00  0.00    -0.325 N 
HETATM   16  C7  UNL     1      -5.578   1.097   0.814  1.00  0.00     0.138 C 
HETATM   17  C9  UNL     1      -5.174   3.302   1.446  1.00  0.00     0.201 C 
HETATM   18  C8  UNL     1      -6.627   1.617  -0.185  1.00  0.00     0.095 C 
HETATM   19  S1  UNL     1      -6.694   3.361   0.406  1.00  0.00    -0.147 SA
ATOM     20  H1  UNL     1      -3.404   0.062  -0.205  1.00  0.00     0.165 HD
ENDBRANCH   7  12
ENDBRANCH   5   7
ENDBRANCH   1   5
BRANCH   2  21
HETATM   21  N3  UNL     1       2.261  -1.035   1.997  1.00  0.00    -0.069 N 
ATOM     22  H32 UNL     1       2.652  -1.656   2.706  1.00  0.00     0.277 HD
ATOM     23  H31 UNL     1       3.083  -0.929   1.403  1.00  0.00     0.277 HD
BRANCH  21  24
HETATM   24  C13 UNL     1       1.866   0.227   2.570  1.00  0.00     0.252 C 
BRANCH  24  25
HETATM   25  C14 UNL     1       3.085   0.806   3.278  1.00  0.00     0.150 C 
BRANCH  25  26
HETATM   26  N4  UNL     1       4.198   1.030   2.400  1.00  0.00    -0.359 N 
HETATM   27  C15 UNL     1       4.159   1.896   1.280  1.00  0.00     0.221 C 
HETATM   28  O3  UNL     1       3.115   2.529   0.996  1.00  0.00    -0.273 OA
ATOM     29  H4  UNL     1       5.069   0.536   2.594  1.00  0.00     0.162 HD
BRANCH  27  30
HETATM   30  C16 UNL     1       5.343   2.090   0.403  1.00  0.00     0.078 C 
HETATM   31  C17 UNL     1       5.784   0.792  -0.217  1.00  0.00     0.014 C 
HETATM   32  C18 UNL     1       6.634   1.242  -1.395  1.00  0.00     0.001 C 
HETATM   33  C19 UNL     1       6.045   2.550  -1.821  1.00  0.00     0.001 C 
HETATM   34  C20 UNL     1       5.016   2.939  -0.798  1.00  0.00     0.014 C 
ENDBRANCH  27  30
ENDBRANCH  25  26
ENDBRANCH  24  25
ENDBRANCH  21  24
ENDBRANCH   2  21
BRANCH   4  35
HETATM   35  C23 UNL     1      -0.545  -2.943  -0.709  1.00  0.00     0.264 C 
HETATM   36  O4  UNL     1      -1.085  -3.204  -1.807  1.00  0.00    -0.265 OA
BRANCH  35  37
HETATM   37  O5  UNL     1      -1.129  -3.371   0.438  1.00  0.00    -0.311 OA
BRANCH  37  38
HETATM   38  C24 UNL     1      -2.311  -4.101   0.560  1.00  0.00     0.060 C 
HETATM   39  C25 UNL     1      -2.545  -4.335   2.053  1.00  0.00     0.045 C 
HETATM   40  C26 UNL     1      -2.082  -5.455  -0.095  1.00  0.00     0.045 C 
HETATM   41  C27 UNL     1      -3.526  -3.459   0.003  1.00  0.00     0.045 C 
ENDBRANCH  37  38
ENDBRANCH  35  37
ENDBRANCH   4  35
TORSDOF 13
