REMARK  4 active torsions:
REMARK  status: ('A' for Active; 'I' for Inactive)
REMARK    1  A    between atoms: C2_2  and  O1_3 
REMARK    2  A    between atoms: O1_3  and  C3_4 
REMARK    3  A    between atoms: C3_4  and  C4_6 
REMARK    4  A    between atoms: C10_12  and  C11_13 
ROOT
HETATM    1  C4  UNL     1       0.270  -0.346  -0.149  1.00  0.00     0.091 C 
HETATM    2  C5  UNL     1       0.188   0.418  -1.454  1.00  0.00     0.020 C 
HETATM    3  C6  UNL     1      -1.181   1.115  -1.422  1.00  0.00    -0.012 C 
HETATM    4  C7  UNL     1      -0.968   2.267  -0.446  1.00  0.00     0.010 C 
HETATM    5  C8  UNL     1      -0.821   1.669   0.918  1.00  0.00    -0.007 C 
HETATM    6  C9  UNL     1      -2.254   1.325   1.365  1.00  0.00     0.022 C 
HETATM    7  C10 UNL     1      -2.019  -0.006   0.636  1.00  0.00     0.025 C 
HETATM    8  C13 UNL     1      -2.211   0.180  -0.842  1.00  0.00     0.022 C 
HETATM    9  C14 UNL     1      -0.549   0.210   0.940  1.00  0.00     0.019 C 
ENDROOT
BRANCH   1  10
HETATM   10  C3  UNL     1       1.718  -0.468   0.239  1.00  0.00     0.263 C 
HETATM   11  O2  UNL     1       2.147   0.013   1.331  1.00  0.00    -0.265 OA
BRANCH  10  12
HETATM   12  O1  UNL     1       2.647  -1.096  -0.548  1.00  0.00    -0.322 OA
BRANCH  12  13
HETATM   13  C2  UNL     1       4.006  -1.248  -0.254  1.00  0.00     0.174 C 
HETATM   14  C1  UNL     1       4.748   0.044  -0.078  1.00  0.00     0.034 C 
ENDBRANCH  12  13
ENDBRANCH  10  12
ENDBRANCH   1  10
BRANCH   7  15
HETATM   15  C11 UNL     1      -2.653  -1.161   1.259  1.00  0.00     0.132 C 
HETATM   16  C12 UNL     1      -2.524  -2.505   0.687  1.00  0.00     0.091 C 
HETATM   17  O3  UNL     1      -3.309  -1.023   2.281  1.00  0.00    -0.298 OA
ENDBRANCH   7  15
TORSDOF 4
