REMARK  12 active torsions:
REMARK  status: ('A' for Active; 'I' for Inactive)
REMARK    1  A    between atoms: C3_3  and  O1_4 
REMARK    2  A    between atoms: C5_7  and  N1_8 
REMARK       I    between atoms: N1_8  and  C6_10 
REMARK    3  A    between atoms: C6_10  and  C7_12 
REMARK    4  A    between atoms: C7_12  and  C8_13 
REMARK    5  A    between atoms: C8_13  and  N2_14 
REMARK    6  A    between atoms: C9_18  and  O3_19 
REMARK    7  A    between atoms: C10_21  and  C11_22 
REMARK    8  A    between atoms: C12_24  and  C13_25 
REMARK    9  A    between atoms: C13_25  and  S1_26 
REMARK   10  A    between atoms: S1_26  and  C14_27 
REMARK   11  A    between atoms: C20_33  and  O5_34 
REMARK   12  A    between atoms: C21_36  and  O6_37 
ROOT
HETATM    1  C1  UNL     1       0.483  -2.704  -1.874  1.00  0.00     0.017 C 
HETATM    2  C2  UNL     1       0.565  -2.326  -0.732  1.00  0.00    -0.049 C 
HETATM    3  C3  UNL     1       0.692  -1.867   0.673  1.00  0.00     0.231 C 
HETATM    4  C4  UNL     1       2.173  -1.818   0.988  1.00  0.00     0.111 C 
HETATM    5  C5  UNL     1       2.625  -0.388   0.691  1.00  0.00     0.121 C 
HETATM    6  C9  UNL     1       2.004   0.504   1.738  1.00  0.00     0.172 C 
HETATM    7  C10 UNL     1       0.535   0.173   1.767  1.00  0.00     0.188 C 
HETATM    8  O7  UNL     1       0.103  -0.627   0.734  1.00  0.00    -0.334 OA
ENDROOT
BRANCH   3   9
HETATM    9  O1  UNL     1       0.032  -2.820   1.442  1.00  0.00    -0.355 OA
ATOM     10  H1  UNL     1       0.113  -2.526   2.342  1.00  0.00     0.214 HD
ENDBRANCH   3   9
BRANCH   5  11
HETATM   11  N1  UNL     1       4.032  -0.267   0.566  1.00  0.00    -0.354 N 
HETATM   12  C6  UNL     1       4.713   0.148  -0.607  1.00  0.00     0.219 C 
HETATM   13  O2  UNL     1       4.096   0.454  -1.673  1.00  0.00    -0.274 OA
ATOM     14  H1  UNL     1       4.598  -0.496   1.383  1.00  0.00     0.163 HD
BRANCH  12  15
HETATM   15  C7  UNL     1       6.191   0.250  -0.657  1.00  0.00     0.130 C 
BRANCH  15  16
HETATM   16  C8  UNL     1       6.671   0.706  -1.999  1.00  0.00     0.238 C 
BRANCH  16  17
HETATM   17  N2  UNL     1       6.264  -0.216  -3.041  1.00  0.00    -0.079 N 
ATOM     18  H23 UNL     1       6.566  -1.169  -2.838  1.00  0.00     0.274 HD
ATOM     19  H22 UNL     1       5.255  -0.368  -3.035  1.00  0.00     0.274 HD
ATOM     20  H21 UNL     1       6.591   0.095  -3.956  1.00  0.00     0.274 HD
ENDBRANCH  16  17
ENDBRANCH  15  16
ENDBRANCH  12  15
ENDBRANCH   5  11
BRANCH   7  21
HETATM   21  C11 UNL     1      -0.319   1.427   1.779  1.00  0.00     0.185 C 
HETATM   22  O4  UNL     1      -1.627   1.085   1.989  1.00  0.00    -0.372 OA
HETATM   23  C12 UNL     1      -2.436   1.983   1.294  1.00  0.00     0.163 C 
HETATM   24  C20 UNL     1      -1.662   2.263   0.016  1.00  0.00     0.179 C 
HETATM   25  C21 UNL     1      -0.251   2.220   0.522  1.00  0.00     0.181 C 
BRANCH  23  26
HETATM   26  C13 UNL     1      -3.709   1.278   0.917  1.00  0.00     0.114 C 
BRANCH  26  27
HETATM   27  S1  UNL     1      -3.444  -0.162  -0.133  1.00  0.00    -0.127 SA
BRANCH  27  28
HETATM   28  C14 UNL     1      -4.952  -0.972  -0.562  1.00  0.00     0.000 A 
HETATM   29  C15 UNL     1      -5.463  -1.989   0.236  1.00  0.00     0.018 A 
HETATM   30  C16 UNL     1      -6.639  -2.638  -0.077  1.00  0.00     0.001 A 
HETATM   31  C17 UNL     1      -7.353  -2.291  -1.206  1.00  0.00     0.000 A 
HETATM   32  C18 UNL     1      -6.850  -1.283  -2.000  1.00  0.00     0.001 A 
HETATM   33  C19 UNL     1      -5.674  -0.631  -1.693  1.00  0.00     0.018 A 
ENDBRANCH  27  28
ENDBRANCH  26  27
ENDBRANCH  23  26
BRANCH  24  34
HETATM   34  O5  UNL     1      -2.015   3.522  -0.448  1.00  0.00    -0.390 OA
ATOM     35  H5  UNL     1      -1.531   3.697  -1.247  1.00  0.00     0.210 HD
ENDBRANCH  24  34
BRANCH  25  36
HETATM   36  O6  UNL     1       0.134   3.549   0.746  1.00  0.00    -0.390 OA
ATOM     37  H6  UNL     1       0.177   4.055  -0.057  1.00  0.00     0.210 HD
ENDBRANCH  25  36
ENDBRANCH   7  21
BRANCH   6  38
HETATM   38  O3  UNL     1       2.289   1.809   1.420  1.00  0.00    -0.391 OA
ATOM     39  H3  UNL     1       1.898   2.371   2.079  1.00  0.00     0.210 HD
ENDBRANCH   6  38
TORSDOF 12
