REMARK  8 active torsions:
REMARK  status: ('A' for Active; 'I' for Inactive)
REMARK    1  A    between atoms: O1_2  and  C2_3 
REMARK    2  A    between atoms: C2_3  and  C3_5 
REMARK    3  A    between atoms: C3_5  and  C4_6 
REMARK    4  A    between atoms: C4_6  and  C5_7 
REMARK    5  A    between atoms: C5_7  and  N1_8 
REMARK    6  A    between atoms: C8_12  and  C9_13 
REMARK    7  A    between atoms: N2_15  and  N3_17 
REMARK    8  A    between atoms: N3_17  and  C10_19 
ROOT
HETATM    1  C9  UNL     1      -1.686  -0.953   1.642  1.00  0.00     0.119 C 
HETATM    2 CL1  UNL     1      -1.242  -1.031   3.323  1.00  0.00    -0.063 Cl
HETATM    3  N2  UNL     1      -2.898  -1.162   1.323  1.00  0.00    -0.289 N 
ATOM      4  H2  UNL     1      -3.554  -1.369   2.076  1.00  0.00     0.188 HD
ENDROOT
BRANCH   3   5
HETATM    5  N3  UNL     1      -3.408  -1.129   0.001  1.00  0.00    -0.298 N 
ATOM      6  H3  UNL     1      -3.155  -1.819  -0.706  1.00  0.00     0.187 HD
BRANCH   5   7
HETATM    7  C10 UNL     1      -4.299  -0.057  -0.256  1.00  0.00     0.069 A 
HETATM    8  C11 UNL     1      -3.859   1.248  -0.356  1.00  0.00     0.106 A 
HETATM    9  C12 UNL     1      -4.698   2.319  -0.617  1.00  0.00     0.248 A 
HETATM   10  O4  UNL     1      -4.322   3.509  -0.711  1.00  0.00    -0.268 OA
HETATM   11  N4  UNL     1      -5.995   2.001  -0.770  1.00  0.00    -0.320 N 
HETATM   12  C13 UNL     1      -6.478   0.768  -0.687  1.00  0.00     0.089 A 
ATOM     13  H4  UNL     1      -6.651   2.758  -0.963  1.00  0.00     0.169 HD
HETATM   14  C14 UNL     1      -7.831   0.497  -0.873  1.00  0.00     0.144 A 
HETATM   15  C18 UNL     1      -5.640  -0.323  -0.423  1.00  0.00     0.061 A 
HETATM   16  F1  UNL     1      -8.639   1.577  -1.126  1.00  0.00    -0.204 F 
HETATM   17  C15 UNL     1      -8.376  -0.766  -0.812  1.00  0.00     0.048 A 
HETATM   18  C16 UNL     1      -7.552  -1.819  -0.554  1.00  0.00     0.046 A 
HETATM   19  C17 UNL     1      -6.188  -1.588  -0.361  1.00  0.00     0.131 A 
HETATM   20  F2  UNL     1      -5.381  -2.642  -0.094  1.00  0.00    -0.205 F 
ENDBRANCH   5   7
ENDBRANCH   3   5
BRANCH   1  21
HETATM   21  C8  UNL     1      -0.674  -0.653   0.650  1.00  0.00     0.068 C 
HETATM   22  C7  UNL     1       0.570  -0.381   0.937  1.00  0.00     0.079 C 
HETATM   23  C6  UNL     1       1.728  -0.061   0.124  1.00  0.00     0.266 C 
HETATM   24  S1  UNL     1       1.281  -0.240   2.617  1.00  0.00    -0.055 SA
HETATM   25  N1  UNL     1       2.695   0.752   0.762  1.00  0.00    -0.298 N 
HETATM   26  O3  UNL     1       1.828  -0.509  -1.085  1.00  0.00    -0.266 OA
HETATM   27  C19 UNL     1       2.387   1.127   2.094  1.00  0.00     0.148 C 
HETATM   28  S2  UNL     1       2.843   2.402   2.969  1.00  0.00    -0.052 SA
BRANCH  25  29
HETATM   29  C5  UNL     1       3.940   1.192   0.100  1.00  0.00     0.134 C 
BRANCH  29  30
HETATM   30  C4  UNL     1       5.088   0.264   0.339  1.00  0.00     0.030 C 
BRANCH  30  31
HETATM   31  C3  UNL     1       6.319   0.807  -0.394  1.00  0.00     0.113 C 
BRANCH  31  32
HETATM   32  C2  UNL     1       7.501  -0.060  -0.173  1.00  0.00     0.258 C 
HETATM   33  O2  UNL     1       8.220   0.146   0.856  1.00  0.00    -0.265 OA
BRANCH  32  34
HETATM   34  O1  UNL     1       7.864  -1.096  -1.040  1.00  0.00    -0.326 OA
HETATM   35  C1  UNL     1       9.032  -1.852  -0.694  1.00  0.00     0.213 C 
ENDBRANCH  32  34
ENDBRANCH  31  32
ENDBRANCH  30  31
ENDBRANCH  29  30
ENDBRANCH  25  29
ENDBRANCH   1  21
TORSDOF 8
