REMARK  18 active torsions:
REMARK  status: ('A' for Active; 'I' for Inactive)
REMARK    1  A    between atoms: O1_2  and  N1_3 
REMARK    2  A    between atoms: N1_3  and  C2_5 
REMARK    3  A    between atoms: C2_5  and  C3_7 
REMARK       I    between atoms: C3_7  and  N3_9 
REMARK    4  A    between atoms: N3_9  and  C4_11 
REMARK    5  A    between atoms: C4_11  and  N4_12 
REMARK    6  A    between atoms: C4_11  and  C12_31 
REMARK    7  A    between atoms: N4_12  and  N5_14 
REMARK       I    between atoms: N8_27  and  C11_28 
REMARK    8  A    between atoms: C12_31  and  N9_32 
REMARK    9  A    between atoms: C12_31  and  O11_51 
REMARK   10  A    between atoms: N9_32  and  N10_33 
REMARK   11  A    between atoms: N10_33  and  C13_34 
REMARK       I    between atoms: N10_33  and  C18_41 
REMARK   12  A    between atoms: C13_34  and  C14_35 
REMARK   13  A    between atoms: C14_35  and  C17_38 
REMARK   14  A    between atoms: C17_38  and  O7_39 
REMARK   15  A    between atoms: C18_41  and  C19_43 
REMARK   16  A    between atoms: C19_43  and  N11_44 
REMARK   17  A    between atoms: C19_43  and  C20_48 
REMARK   18  A    between atoms: O11_51  and  C21_52 
ROOT
HETATM    1  C4  UNL     1       0.752   0.774   0.317  1.00  0.00     0.294 C 
ENDROOT
BRANCH   1   2
HETATM    2  N3  UNL     1       1.581   1.852   0.764  1.00  0.00    -0.324 N 
HETATM    3  C3  UNL     1       2.960   1.935   0.935  1.00  0.00     0.286 C 
HETATM    4  O2  UNL     1       3.683   0.924   0.637  1.00  0.00    -0.265 OA
ATOM      5  H3  UNL     1       1.074   2.706   0.997  1.00  0.00     0.165 HD
BRANCH   3   6
HETATM    6  C2  UNL     1       3.674   3.117   1.446  1.00  0.00     0.204 C 
HETATM    7  N2  UNL     1       5.126   3.003   1.533  1.00  0.00    -0.075 NA
BRANCH   6   8
HETATM    8  N1  UNL     1       3.207   4.209   1.819  1.00  0.00    -0.249 N 
ATOM      9  H1  UNL     1       3.944   4.844   2.126  1.00  0.00     0.196 HD
BRANCH   8  10
HETATM   10  O1  UNL     1       2.015   4.768   1.925  1.00  0.00    -0.284 OA
HETATM   11  C1  UNL     1       1.461   5.218   3.176  1.00  0.00     0.237 C 
ENDBRANCH   8  10
ENDBRANCH   6   8
ENDBRANCH   3   6
ENDBRANCH   1   2
BRANCH   1  12
HETATM   12  N4  UNL     1       1.265  -0.085  -0.699  1.00  0.00    -0.294 N 
ATOM     13  H4  UNL     1       1.180   0.260  -1.655  1.00  0.00     0.183 HD
BRANCH  12  14
HETATM   14  N5  UNL     1       1.868  -1.336  -0.557  1.00  0.00    -0.226 N 
HETATM   15  C5  UNL     1       2.092  -2.077   0.533  1.00  0.00     0.103 A 
HETATM   16  C6  UNL     1       1.778  -1.796   1.973  1.00  0.00     0.091 C 
HETATM   17  N6  UNL     1       2.710  -3.216   0.126  1.00  0.00    -0.327 N 
HETATM   18  C7  UNL     1       2.877  -3.203  -1.192  1.00  0.00     0.163 A 
ATOM     19  H6  UNL     1       3.004  -3.973   0.744  1.00  0.00     0.169 HD
HETATM   20  C8  UNL     1       2.353  -2.022  -1.661  1.00  0.00     0.182 A 
HETATM   21  N8  UNL     1       3.402  -3.949  -2.295  1.00  0.00    -0.240 N 
HETATM   22  N7  UNL     1       2.512  -1.991  -3.078  1.00  0.00    -0.239 N 
HETATM   23  C9  UNL     1       2.078  -1.379  -4.275  1.00  0.00     0.382 C 
HETATM   24  C10 UNL     1       3.544  -3.014  -3.354  1.00  0.00     0.303 C 
HETATM   25  O3  UNL     1       1.981  -0.108  -4.374  1.00  0.00    -0.237 OA
HETATM   26  O4  UNL     1       1.789  -2.296  -5.278  1.00  0.00    -0.223 OA
HETATM   27  S1  UNL     1       2.859  -3.658  -4.939  1.00  0.00     0.049 SA
HETATM   28  C11 UNL     1       3.699  -5.311  -2.295  1.00  0.00     0.294 C 
HETATM   29  O5  UNL     1       3.512  -5.998  -1.265  1.00  0.00    -0.629 OA
HETATM   30  O6  UNL     1       4.205  -5.915  -3.437  1.00  0.00    -0.629 OA
ENDBRANCH  12  14
ENDBRANCH   1  12
BRANCH   1  31
HETATM   31  C12 UNL     1      -0.582   1.389  -0.188  1.00  0.00     0.268 C 
BRANCH  31  32
HETATM   32  N9  UNL     1      -1.588   0.910   0.177  1.00  0.00    -0.295 NA
BRANCH  32  33
HETATM   33  N10 UNL     1      -2.734   0.406   0.559  1.00  0.00    -0.189 N 
HETATM   34  C18 UNL     1      -3.225   0.588   1.867  1.00  0.00     0.290 C 
HETATM   35  O8  UNL     1      -4.323   0.098   2.193  1.00  0.00    -0.268 OA
BRANCH  33  36
HETATM   36  C13 UNL     1      -3.523  -0.412  -0.363  1.00  0.00     0.177 C 
BRANCH  36  37
HETATM   37  C14 UNL     1      -3.205  -1.854  -0.371  1.00  0.00    -0.007 C 
HETATM   38  C15 UNL     1      -3.389  -2.564   0.952  1.00  0.00     0.019 C 
HETATM   39  C16 UNL     1      -1.853  -2.200  -0.918  1.00  0.00     0.019 C 
BRANCH  37  40
HETATM   40  C17 UNL     1      -4.221  -2.508  -1.323  1.00  0.00     0.174 C 
BRANCH  40  41
HETATM   41  O7  UNL     1      -4.021  -3.875  -1.415  1.00  0.00    -0.400 OA
ATOM     42  H7  UNL     1      -4.648  -4.279  -2.003  1.00  0.00     0.209 HD
ENDBRANCH  40  41
ENDBRANCH  37  40
ENDBRANCH  36  37
ENDBRANCH  33  36
BRANCH  34  43
HETATM   43  C19 UNL     1      -2.474   1.341   2.890  1.00  0.00     0.376 C 
BRANCH  43  44
HETATM   44  N11 UNL     1      -2.860   0.895   4.238  1.00  0.00    -0.056 N 
ATOM     45 3H11 UNL     1      -3.868   0.955   4.385  1.00  0.00     0.275 HD
ATOM     46 2H11 UNL     1      -2.751  -0.113   4.351  1.00  0.00     0.275 HD
ATOM     47 1H11 UNL     1      -2.341   1.415   4.945  1.00  0.00     0.275 HD
ENDBRANCH  43  44
BRANCH  43  48
HETATM   48  C20 UNL     1      -2.795   2.806   2.886  1.00  0.00     0.214 C 
HETATM   49  O9  UNL     1      -3.274   3.359   3.940  1.00  0.00    -0.646 OA
HETATM   50  O10 UNL     1      -2.614   3.638   1.816  1.00  0.00    -0.646 OA
ENDBRANCH  43  48
ENDBRANCH  34  43
ENDBRANCH  32  33
ENDBRANCH  31  32
BRANCH  31  51
HETATM   51  O11 UNL     1      -0.454   2.474  -1.050  1.00  0.00    -0.248 OA
BRANCH  51  52
HETATM   52  C21 UNL     1      -1.506   3.155  -1.624  1.00  0.00     0.262 C 
HETATM   53  C22 UNL     1      -1.269   4.324  -2.545  1.00  0.00     0.126 C 
HETATM   54  O12 UNL     1      -2.675   2.787  -1.372  1.00  0.00    -0.265 OA
ENDBRANCH  51  52
ENDBRANCH  31  51
ENDBRANCH   1  31
TORSDOF 18
