REMARK  7 active torsions:
REMARK  status: ('A' for Active; 'I' for Inactive)
REMARK    1  A    between atoms: C2_2  and  C3_3 
REMARK    2  A    between atoms: C3_3  and  C4_4 
REMARK    3  A    between atoms: C4_4  and  N1_5 
REMARK    4  A    between atoms: N1_5  and  C5_7 
REMARK    5  A    between atoms: C6_10  and  N3_11 
REMARK    6  A    between atoms: N4_18  and  C11_19 
REMARK    7  A    between atoms: C11_19  and  C12_20 
ROOT
HETATM    1  C5  UNL     1      -2.162  -1.530  -0.081  1.00  0.00     0.680 A 
HETATM    2  N2  UNL     1      -1.949  -2.871   0.038  1.00  0.00    -0.176 N 
ATOM      3  H2  UNL     1      -2.701  -3.540   0.204  1.00  0.00     0.186 HD
HETATM    4  C6  UNL     1      -0.659  -3.233  -0.083  1.00  0.00     0.136 A 
HETATM    5  C8  UNL     1       0.342  -2.305  -0.308  1.00  0.00     0.078 A 
HETATM    6  S1  UNL     1       2.024  -2.431  -0.504  1.00  0.00    -0.082 SA
HETATM    7  C9  UNL     1       2.396  -0.767  -0.730  1.00  0.00     0.034 A 
HETATM    8  C10 UNL     1       3.591  -0.067  -0.954  1.00  0.00     0.110 A 
HETATM    9  N4  UNL     1       3.597   1.267  -1.099  1.00  0.00    -0.365 N 
HETATM   10  C14 UNL     1       2.411   1.862  -1.016  1.00  0.00     0.091 A 
HETATM   11  C15 UNL     1       1.217   1.237  -0.800  1.00  0.00     0.032 A 
HETATM   12  C16 UNL     1       1.172  -0.169  -0.642  1.00  0.00     0.012 A 
HETATM   13  C17 UNL     1       0.104  -0.969  -0.423  1.00  0.00     0.081 A 
HETATM   14  N5  UNL     1      -1.224  -0.632  -0.295  1.00  0.00    -0.190 N 
ATOM     15  H5  UNL     1      -1.491   0.350  -0.369  1.00  0.00     0.184 HD
ENDROOT
BRANCH   1  16
HETATM   16  N1  UNL     1      -3.393  -1.161   0.032  1.00  0.00    -0.226 N 
ATOM     17  H1  UNL     1      -4.085  -1.892   0.197  1.00  0.00     0.177 HD
BRANCH  16  18
HETATM   18  C4  UNL     1      -3.876   0.195  -0.054  1.00  0.00     0.138 C 
BRANCH  18  19
HETATM   19  C3  UNL     1      -3.778   0.902   1.288  1.00  0.00     0.020 C 
BRANCH  19  20
HETATM   20  C2  UNL     1      -4.296   2.314   1.135  1.00  0.00    -0.003 C 
HETATM   21  C1  UNL     1      -5.736   2.219   0.680  1.00  0.00     0.005 C 
ENDBRANCH  19  20
ENDBRANCH  18  19
ENDBRANCH  16  18
ENDBRANCH   1  16
BRANCH   4  22
HETATM   22  N3  UNL     1      -0.364  -4.483   0.016  1.00  0.00    -0.379 N 
HETATM   23  C7  UNL     1      -1.326  -5.511   0.247  1.00  0.00     0.147 C 
ATOM     24  H3  UNL     1       0.615  -4.754  -0.076  1.00  0.00     0.160 HD
ENDBRANCH   4  22
BRANCH   9  25
HETATM   25  C11 UNL     1       4.838   1.962  -1.329  1.00  0.00     0.127 C 
BRANCH  25  26
HETATM   26  C12 UNL     1       5.505   2.388  -0.040  1.00  0.00     0.016 C 
HETATM   27  C13 UNL     1       5.797   1.170   0.795  1.00  0.00     0.006 C 
ENDBRANCH  25  26
ENDBRANCH   9  25
TORSDOF 7
