REMARK  8 active torsions:
REMARK  status: ('A' for Active; 'I' for Inactive)
REMARK    1  A    between atoms: C3_4  and  O2_5 
REMARK    2  A    between atoms: O2_5  and  C4_6 
REMARK    3  A    between atoms: C6_8  and  O3_9 
REMARK    4  A    between atoms: C7_11  and  O4_12 
REMARK    5  A    between atoms: C8_14  and  O5_15 
REMARK    6  A    between atoms: C9_18  and  O7_19 
REMARK    7  A    between atoms: C10_21  and  O8_22 
REMARK    8  A    between atoms: C11_24  and  O9_25 
ROOT
HETATM    1  C1  UNL     1      -2.950   1.544   1.659  1.00  0.00     0.042 C 
HETATM    2  C2  UNL     1      -2.463   0.212   1.106  1.00  0.00     0.152 C 
HETATM    3  O1  UNL     1      -1.160   0.291   0.728  1.00  0.00    -0.351 OA
HETATM    4  C3  UNL     1      -0.869  -0.173  -0.530  1.00  0.00     0.300 C 
HETATM    5  C9  UNL     1      -1.746   0.619  -1.509  1.00  0.00     0.205 C 
HETATM    6  C10 UNL     1      -3.194   0.243  -1.299  1.00  0.00     0.183 C 
HETATM    7  C11 UNL     1      -3.418  -0.270   0.076  1.00  0.00     0.178 C 
ENDROOT
BRANCH   4   8
HETATM    8  O2  UNL     1       0.467   0.223  -0.833  1.00  0.00    -0.296 OA
BRANCH   8   9
HETATM    9  C4  UNL     1       1.561  -0.148  -0.103  1.00  0.00     0.183 C 
HETATM   10  C5  UNL     1       2.007   0.684   0.824  1.00  0.00     0.071 C 
HETATM   11  C6  UNL     1       3.204   0.284   1.627  1.00  0.00     0.179 C 
HETATM   12  C7  UNL     1       4.193  -0.328   0.676  1.00  0.00     0.206 C 
HETATM   13  C8  UNL     1       3.601  -1.524  -0.035  1.00  0.00     0.297 C 
HETATM   14  O6  UNL     1       2.225  -1.361  -0.293  1.00  0.00    -0.296 OA
BRANCH  11  15
HETATM   15  O3  UNL     1       2.866  -0.592   2.653  1.00  0.00    -0.389 OA
ATOM     16  H3  UNL     1       3.626  -0.846   3.163  1.00  0.00     0.210 HD
ENDBRANCH  11  15
BRANCH  12  17
HETATM   17  O4  UNL     1       4.566   0.611  -0.270  1.00  0.00    -0.388 OA
ATOM     18  H4  UNL     1       5.191   0.224  -0.871  1.00  0.00     0.210 HD
ENDBRANCH  12  17
BRANCH  13  19
HETATM   19  O5  UNL     1       4.338  -1.734  -1.194  1.00  0.00    -0.368 OA
ATOM     20  H5  UNL     1       3.966  -2.485  -1.641  1.00  0.00     0.212 HD
ENDBRANCH  13  19
ENDBRANCH   8   9
ENDBRANCH   4   8
BRANCH   5  21
HETATM   21  O7  UNL     1      -1.619   1.962  -1.150  1.00  0.00    -0.388 OA
ATOM     22  H7  UNL     1      -2.162   2.452  -1.756  1.00  0.00     0.210 HD
ENDBRANCH   5  21
BRANCH   6  23
HETATM   23  O8  UNL     1      -3.467  -0.786  -2.230  1.00  0.00    -0.390 OA
ATOM     24  H8  UNL     1      -4.378  -1.022  -2.098  1.00  0.00     0.210 HD
ENDBRANCH   6  23
BRANCH   7  25
HETATM   25  O9  UNL     1      -3.488  -1.667   0.050  1.00  0.00    -0.390 OA
ATOM     26  H9  UNL     1      -4.099  -1.975  -0.609  1.00  0.00     0.210 HD
ENDBRANCH   7  25
TORSDOF 8
