REMARK  7 active torsions:
REMARK  status: ('A' for Active; 'I' for Inactive)
REMARK    1  A    between atoms: N1_2  and  N2_3 
REMARK    2  A    between atoms: N1_2  and  C12_23 
REMARK       I    between atoms: N2_3  and  C2_5 
REMARK    3  A    between atoms: C2_5  and  C3_7 
REMARK    4  A    between atoms: C3_7  and  S1_8 
REMARK    5  A    between atoms: S1_8  and  C4_9 
REMARK    6  A    between atoms: C6_14  and  C7_15 
REMARK    7  A    between atoms: N4_19  and  C9_20 
ROOT
HETATM    1  C3  UNL     1       1.676  -2.488   1.484  1.00  0.00     0.186 C 
ENDROOT
BRANCH   1   2
HETATM    2  C2  UNL     1       0.626  -1.992   0.568  1.00  0.00     0.245 C 
HETATM    3  N2  UNL     1      -0.057  -0.775   0.818  1.00  0.00    -0.272 N 
ATOM      4  H2  UNL     1       0.213  -0.265   1.659  1.00  0.00     0.189 HD
HETATM    5  O1  UNL     1       0.374  -2.712  -0.444  1.00  0.00    -0.271 OA
BRANCH   3   6
HETATM    6  N1  UNL     1      -1.035  -0.215   0.055  1.00  0.00    -0.325 N 
HETATM    7  C1  UNL     1      -0.679   0.829  -0.793  1.00  0.00     0.171 C 
BRANCH   6   8
HETATM    8  C12 UNL     1      -2.367  -0.589   0.254  1.00  0.00     0.102 C 
HETATM    9  C13 UNL     1      -3.097  -1.080  -0.957  1.00  0.00     0.027 C 
HETATM   10  C14 UNL     1      -4.499  -1.503  -0.704  1.00  0.00     0.002 C 
HETATM   11  C15 UNL     1      -5.483  -0.850  -1.637  1.00  0.00     0.000 C 
HETATM   12  C16 UNL     1      -6.517  -0.017  -0.935  1.00  0.00     0.000 C 
HETATM   13  C17 UNL     1      -5.957   0.874   0.155  1.00  0.00     0.000 C 
HETATM   14  C18 UNL     1      -4.780   1.655  -0.310  1.00  0.00     0.000 C 
HETATM   15  C19 UNL     1      -3.575   1.641   0.553  1.00  0.00     0.002 C 
HETATM   16  C20 UNL     1      -3.100   0.372   1.113  1.00  0.00     0.027 C 
ENDBRANCH   6   8
ENDBRANCH   3   6
ENDBRANCH   1   2
BRANCH   1  17
HETATM   17  S1  UNL     1       3.350  -2.190   0.983  1.00  0.00    -0.084 SA
BRANCH  17  18
HETATM   18  C4  UNL     1       3.856  -0.507   0.932  1.00  0.00     0.150 A 
HETATM   19  N3  UNL     1       3.106   0.546   1.223  1.00  0.00    -0.303 N 
HETATM   20  C5  UNL     1       3.565   1.806   1.160  1.00  0.00     0.265 A 
ATOM     21  H3  UNL     1       2.138   0.393   1.507  1.00  0.00     0.171 HD
HETATM   22  O2  UNL     1       2.820   2.753   1.444  1.00  0.00    -0.267 OA
HETATM   23  C6  UNL     1       4.864   2.060   0.781  1.00  0.00     0.124 A 
HETATM   24  C8  UNL     1       5.645   0.974   0.478  1.00  0.00     0.117 A 
HETATM   25  N4  UNL     1       5.146  -0.274   0.555  1.00  0.00    -0.332 N 
BRANCH  23  26
HETATM   26  C7  UNL     1       5.368   3.436   0.707  1.00  0.00     0.216 C 
HETATM   27  O3  UNL     1       4.584   4.374   0.994  1.00  0.00    -0.644 OA
HETATM   28  O4  UNL     1       6.650   3.732   0.343  1.00  0.00    -0.644 OA
ENDBRANCH  23  26
BRANCH  25  29
HETATM   29  C9  UNL     1       6.068  -1.342   0.224  1.00  0.00     0.091 A 
HETATM   30  C10 UNL     1       7.024  -1.113  -0.890  1.00  0.00     0.028 A 
HETATM   31  C11 UNL     1       5.863  -2.076  -1.038  1.00  0.00     0.028 A 
ENDBRANCH  25  29
ENDBRANCH  17  18
ENDBRANCH   1  17
TORSDOF 7
