REMARK  15 active torsions:
REMARK  status: ('A' for Active; 'I' for Inactive)
REMARK    1  A    between atoms: C2_2  and  O1_3 
REMARK    2  A    between atoms: C7_10  and  C8_11 
REMARK    3  A    between atoms: C8_11  and  O3_12 
REMARK    4  A    between atoms: C8_11  and  C9_14 
REMARK    5  A    between atoms: C9_14  and  O4_15 
REMARK    6  A    between atoms: C10_17  and  O5_18 
REMARK    7  A    between atoms: C11_20  and  O6_21 
REMARK    8  A    between atoms: C16_27  and  O7_28 
REMARK    9  A    between atoms: C16_27  and  C17_30 
REMARK   10  A    between atoms: C17_30  and  O8_31 
REMARK   11  A    between atoms: O8_31  and  C18_32 
REMARK   12  A    between atoms: C19_35  and  O11_36 
REMARK   13  A    between atoms: C20_38  and  C21_39 
REMARK   14  A    between atoms: C21_39  and  C22_41 
REMARK   15  A    between atoms: C22_41  and  O13_42 
ROOT
HETATM    1  C1  UNL     1       0.486  -2.622  -0.365  1.00  0.00     0.047 C 
HETATM    2  C2  UNL     1       0.395  -1.330  -1.029  1.00  0.00     0.070 C 
HETATM    3  C3  UNL     1       1.790  -0.919  -1.464  1.00  0.00     0.076 C 
HETATM    4  C4  UNL     1       2.607  -0.201  -0.486  1.00  0.00    -0.035 C 
HETATM    5  C5  UNL     1       2.287   0.769   0.390  1.00  0.00     0.000 C 
HETATM    6  C6  UNL     1       3.335   1.332   1.283  1.00  0.00     0.210 C 
HETATM    7  O2  UNL     1       4.506   1.545   0.607  1.00  0.00    -0.376 OA
HETATM    8  C7  UNL     1       4.988   0.477  -0.092  1.00  0.00     0.185 C 
HETATM    9  C10 UNL     1       4.038  -0.607  -0.436  1.00  0.00     0.179 C 
HETATM   10  C11 UNL     1       1.013   1.423   0.661  1.00  0.00     0.061 C 
HETATM   11  C12 UNL     1      -0.168   0.440   0.707  1.00  0.00     0.020 C 
HETATM   12  C13 UNL     1       0.300  -0.471   1.861  1.00  0.00     0.023 C 
HETATM   13  C14 UNL     1      -1.291   1.196   1.353  1.00  0.00     0.020 C 
HETATM   14  C15 UNL     1      -2.368   1.673   0.441  1.00  0.00     0.046 C 
HETATM   15  C16 UNL     1      -2.826   0.699  -0.570  1.00  0.00     0.107 C 
HETATM   16  C20 UNL     1      -1.975  -0.499  -0.825  1.00  0.00     0.017 C 
HETATM   17  C23 UNL     1      -0.482  -0.219  -0.571  1.00  0.00     0.030 C 
HETATM   18  C24 UNL     1      -0.182   0.830  -1.679  1.00  0.00     0.025 C 
ENDROOT
BRANCH  15  19
HETATM   19  O7  UNL     1      -3.073   1.423  -1.788  1.00  0.00    -0.383 OA
ATOM     20  H7  UNL     1      -3.368   0.796  -2.438  1.00  0.00     0.211 HD
ENDBRANCH  15  19
BRANCH  15  21
HETATM   21  C17 UNL     1      -4.291   0.369  -0.239  1.00  0.00     0.214 C 
BRANCH  21  22
HETATM   22  O8  UNL     1      -4.945   1.646  -0.184  1.00  0.00    -0.351 OA
BRANCH  22  23
HETATM   23  C18 UNL     1      -6.268   1.529   0.102  1.00  0.00     0.355 C 
HETATM   24  O9  UNL     1      -6.830   2.505   0.915  1.00  0.00    -0.200 OA
HETATM   25  O10 UNL     1      -7.930   2.403   0.165  1.00  0.00    -0.200 OA
HETATM   26  C19 UNL     1      -7.099   2.267  -0.934  1.00  0.00     0.352 C 
BRANCH  26  27
HETATM   27  O11 UNL     1      -7.569   1.498  -1.971  1.00  0.00    -0.365 OA
ATOM     28  H11 UNL     1      -8.089   1.959  -2.619  1.00  0.00     0.213 HD
ENDBRANCH  26  27
ENDBRANCH  22  23
ENDBRANCH  21  22
ENDBRANCH  15  21
BRANCH  16  29
HETATM   29  C21 UNL     1      -2.488  -1.812  -0.478  1.00  0.00     0.178 C 
HETATM   30  O12 UNL     1      -2.673  -2.659  -1.406  1.00  0.00    -0.291 OA
BRANCH  29  31
HETATM   31  C22 UNL     1      -2.876  -2.433   0.801  1.00  0.00     0.247 C 
BRANCH  31  32
HETATM   32  O13 UNL     1      -3.309  -3.776   0.585  1.00  0.00    -0.393 OA
ATOM     33  H13 UNL     1      -3.559  -4.176   1.409  1.00  0.00     0.209 HD
ENDBRANCH  31  32
ENDBRANCH  29  31
ENDBRANCH  16  29
BRANCH   2  34
HETATM   34  O1  UNL     1      -0.183  -1.640  -2.317  1.00  0.00    -0.389 OA
ATOM     35  H1  UNL     1      -0.242  -0.797  -2.750  1.00  0.00     0.210 HD
ENDBRANCH   2  34
BRANCH  10  36
HETATM   36  O6  UNL     1       0.765   2.602   0.026  1.00  0.00    -0.363 OA
ATOM     37  H6  UNL     1      -0.065   3.028   0.203  1.00  0.00     0.217 HD
ENDBRANCH  10  36
BRANCH   9  38
HETATM   38  O5  UNL     1       4.340  -1.114  -1.720  1.00  0.00    -0.388 OA
ATOM     39  H5  UNL     1       5.253  -1.373  -1.688  1.00  0.00     0.210 HD
ENDBRANCH   9  38
BRANCH   8  40
HETATM   40  C8  UNL     1       6.219  -0.023   0.651  1.00  0.00     0.173 C 
BRANCH  40  41
HETATM   41  O3  UNL     1       5.904  -0.408   1.937  1.00  0.00    -0.391 OA
ATOM     42  H3  UNL     1       6.672  -0.720   2.401  1.00  0.00     0.210 HD
ENDBRANCH  40  41
BRANCH  40  43
HETATM   43  C9  UNL     1       6.866  -1.176  -0.124  1.00  0.00     0.198 C 
BRANCH  43  44
HETATM   44  O4  UNL     1       8.031  -1.598   0.484  1.00  0.00    -0.398 OA
ATOM     45  H4  UNL     1       8.432  -2.313   0.004  1.00  0.00     0.209 HD
ENDBRANCH  43  44
ENDBRANCH  40  43
ENDBRANCH   8  40
TORSDOF 15
