REMARK  3 active torsions:
REMARK  status: ('A' for Active; 'I' for Inactive)
REMARK    1  A    between atoms: C2_2  and  O1_3 
REMARK    2  A    between atoms: C4_6  and  O2_7 
REMARK    3  A    between atoms: C5_9  and  O3_11 
ROOT
HETATM    1  C1  UNL     1       2.099   0.634   0.502  1.00  0.00     0.046 C 
HETATM    2  C2  UNL     1       1.165   0.061  -0.528  1.00  0.00     0.059 C 
HETATM    3  C3  UNL     1       0.742  -1.302  -0.071  1.00  0.00     0.072 C 
HETATM    4  C4  UNL     1      -0.763  -1.269  -0.000  1.00  0.00     0.155 C 
HETATM    5  C5  UNL     1      -1.178   0.176   0.047  1.00  0.00     0.083 C 
HETATM    6  C6  UNL     1      -1.212   0.741   1.439  1.00  0.00     0.049 C 
HETATM    7  C7  UNL     1      -0.071   0.886  -0.727  1.00  0.00     0.077 C 
ENDROOT
BRANCH   2   8
HETATM    8  O1  UNL     1       1.833   0.012  -1.769  1.00  0.00    -0.390 OA
ATOM      9  H1  UNL     1       1.243  -0.350  -2.420  1.00  0.00     0.210 HD
ENDBRANCH   2   8
BRANCH   4  10
HETATM   10  O2  UNL     1      -1.224  -1.767  -1.241  1.00  0.00    -0.392 OA
ATOM     11  H2  UNL     1      -2.173  -1.746  -1.196  1.00  0.00     0.210 HD
ENDBRANCH   4  10
BRANCH   5  12
HETATM   12  O3  UNL     1      -2.351   0.385  -0.661  1.00  0.00    -0.388 OA
ATOM     13  H3  UNL     1      -2.613   1.298  -0.631  1.00  0.00     0.210 HD
ENDBRANCH   5  12
TORSDOF 3
