REMARK  3 active torsions:
REMARK  status: ('A' for Active; 'I' for Inactive)
REMARK    1  A    between atoms: N1_1  and  C1_4 
REMARK    2  A    between atoms: C2_7  and  C3_8 
REMARK       I    between atoms: C3_8  and  N3_10 
REMARK    3  A    between atoms: N3_10  and  N4_12 
ROOT
HETATM    1  C1  UNL     1      -2.015   0.504  -0.265  1.00  0.00     0.171 A 
HETATM    2  N2  UNL     1      -0.655   0.511  -0.218  1.00  0.00    -0.319 N 
ATOM      3  H2  UNL     1      -0.151   1.314  -0.595  1.00  0.00     0.169 HD
HETATM    4  C2  UNL     1       0.038  -0.499   0.305  1.00  0.00     0.192 A 
HETATM    5  N5  UNL     1      -0.673  -1.550   0.798  1.00  0.00    -0.278 N 
ATOM      6  H5  UNL     1      -0.158  -2.332   1.203  1.00  0.00     0.189 HD
HETATM    7  N6  UNL     1      -1.990  -1.613   0.781  1.00  0.00    -0.262 N 
ATOM      8  H6  UNL     1      -2.483  -2.421   1.162  1.00  0.00     0.190 HD
HETATM    9  C4  UNL     1      -2.662  -0.582   0.248  1.00  0.00     0.303 A 
HETATM   10  O2  UNL     1      -3.921  -0.600   0.211  1.00  0.00    -0.263 OA
ENDROOT
BRANCH   4  11
HETATM   11  C3  UNL     1       1.492  -0.515   0.366  1.00  0.00     0.304 C 
HETATM   12  O1  UNL     1       2.116  -1.496   0.872  1.00  0.00    -0.263 OA
HETATM   13  N3  UNL     1       2.262   0.558  -0.136  1.00  0.00    -0.270 N 
ATOM     14  H3  UNL     1       1.816   1.374  -0.556  1.00  0.00     0.189 HD
BRANCH  13  15
HETATM   15  N4  UNL     1       3.662   0.468  -0.040  1.00  0.00    -0.342 N 
ATOM     16  H42 UNL     1       4.093  -0.354   0.382  1.00  0.00     0.176 HD
ATOM     17  H41 UNL     1       4.218   1.243  -0.402  1.00  0.00     0.176 HD
ENDBRANCH  13  15
ENDBRANCH   4  11
BRANCH   1  18
HETATM   18  N1  UNL     1      -2.638   1.506  -0.781  1.00  0.00    -0.381 N 
ATOM     19  H12 UNL     1      -2.154   2.318  -1.165  1.00  0.00     0.157 HD
ATOM     20  H11 UNL     1      -3.657   1.501  -0.816  1.00  0.00     0.157 HD
ENDBRANCH   1  18
TORSDOF 3
