REMARK  3 active torsions:
REMARK  status: ('A' for Active; 'I' for Inactive)
REMARK    1  A    between atoms: C3_6  and  N2_7 
REMARK    2  A    between atoms: N2_7  and  N3_9 
REMARK    3  A    between atoms: N3_9  and  C4_11 
ROOT
HETATM    1  N2  UNL     1      -0.550  -0.965   0.036  1.00  0.00    -0.268 N 
ATOM      2  H2  UNL     1      -0.255  -1.533   0.831  1.00  0.00     0.190 HD
ENDROOT
BRANCH   1   3
HETATM    3  C3  UNL     1      -1.924  -0.625  -0.108  1.00  0.00     0.197 A 
HETATM    4  N1  UNL     1      -2.425   0.089  -1.050  1.00  0.00    -0.352 N 
HETATM    5  C2  UNL     1      -3.835   0.271  -0.948  1.00  0.00     0.225 A 
ATOM      6  H1  UNL     1      -1.865   0.489  -1.803  1.00  0.00     0.163 HD
HETATM    7  C1  UNL     1      -4.195  -0.479   0.280  1.00  0.00     0.242 A 
HETATM    8  O1  UNL     1      -5.361  -0.580   0.745  1.00  0.00    -0.271 OA
HETATM    9  N6  UNL     1      -2.970  -1.021   0.769  1.00  0.00    -0.296 N 
ATOM     10  H6  UNL     1      -2.863  -1.595   1.605  1.00  0.00     0.172 HD
ENDBRANCH   1   3
BRANCH   1  11
HETATM   11  N3  UNL     1       0.404  -0.535  -0.892  1.00  0.00    -0.269 N 
ATOM     12  H3  UNL     1       0.161  -0.512  -1.882  1.00  0.00     0.190 HD
BRANCH  11  13
HETATM   13  C4  UNL     1       1.725  -0.123  -0.481  1.00  0.00     0.190 C 
HETATM   14  N4  UNL     1       2.792  -0.835  -0.464  1.00  0.00    -0.360 N 
HETATM   15  C5  UNL     1       3.951  -0.115   0.005  1.00  0.00     0.142 C 
ATOM     16  H4  UNL     1       2.818  -1.813  -0.753  1.00  0.00     0.162 HD
HETATM   17  C6  UNL     1       3.501   1.307   0.131  1.00  0.00     0.142 C 
HETATM   18  N5  UNL     1       2.064   1.171  -0.017  1.00  0.00    -0.360 N 
ATOM     19  H5  UNL     1       1.389   1.908   0.186  1.00  0.00     0.162 HD
ENDBRANCH  11  13
ENDBRANCH   1  11
TORSDOF 3
