REMARK  9 active torsions:
REMARK  status: ('A' for Active; 'I' for Inactive)
REMARK    1  A    between atoms: N1_2  and  C2_4 
REMARK    2  A    between atoms: C3_7  and  C4_8 
REMARK    3  A    between atoms: C6_10  and  N3_11 
REMARK    4  A    between atoms: C8_23  and  S1_24 
REMARK    5  A    between atoms: S1_24  and  C9_25 
REMARK    6  A    between atoms: C9_25  and  C10_26 
REMARK    7  A    between atoms: C10_26  and  S2_27 
REMARK    8  A    between atoms: S2_27  and  C11_28 
REMARK    9  A    between atoms: C12_35  and  N12_36 
ROOT
HETATM    1  C4  UNL     1      -1.150   0.297   0.235  1.00  0.00     0.083 A 
HETATM    2  C5  UNL     1      -1.083   1.619  -0.112  1.00  0.00     0.084 A 
HETATM    3  C6  UNL     1       0.101   2.340   0.094  1.00  0.00     0.150 A 
HETATM    4  N8  UNL     1       1.142   1.691   0.634  1.00  0.00    -0.321 N 
ATOM      5  H8  UNL     1       2.011   2.202   0.790  1.00  0.00     0.169 HD
HETATM    6  C8  UNL     1       1.086   0.415   0.972  1.00  0.00     0.146 A 
HETATM    7  N10 UNL     1      -0.072  -0.277   0.767  1.00  0.00    -0.334 N 
ATOM      8  H10 UNL     1      -0.113  -1.262   1.029  1.00  0.00     0.168 HD
ENDROOT
BRANCH   1   9
HETATM    9  C3  UNL     1      -2.370  -0.470   0.031  1.00  0.00     0.163 A 
HETATM   10  N2  UNL     1      -2.417  -1.790   0.387  1.00  0.00    -0.173 N 
HETATM   11  C2  UNL     1      -3.500  -2.556   0.231  1.00  0.00     0.694 A 
ATOM     12  H2  UNL     1      -1.581  -2.211   0.793  1.00  0.00     0.186 HD
HETATM   13  N13 UNL     1      -4.599  -2.011  -0.300  1.00  0.00    -0.023 N 
HETATM   14  C12 UNL     1      -4.612  -0.722  -0.669  1.00  0.00     0.692 A 
ATOM     15  H13 UNL     1      -5.435  -2.581  -0.426  1.00  0.00     0.203 HD
HETATM   16  N11 UNL     1      -3.490   0.041  -0.498  1.00  0.00    -0.174 N 
ATOM     17  H11 UNL     1      -3.506   1.021  -0.780  1.00  0.00     0.186 HD
BRANCH  11  18
HETATM   18  N1  UNL     1      -3.440  -3.793   0.601  1.00  0.00    -0.230 N 
HETATM   19  C1  UNL     1      -4.554  -4.704   0.475  1.00  0.00     0.165 C 
ATOM     20  H1  UNL     1      -2.568  -4.141   0.999  1.00  0.00     0.177 HD
ENDBRANCH  11  18
BRANCH  14  21
HETATM   21  N12 UNL     1      -5.668  -0.179  -1.184  1.00  0.00    -0.234 N 
ATOM     22 2H12 UNL     1      -5.678   0.802  -1.465  1.00  0.00     0.174 HD
ATOM     23 1H12 UNL     1      -6.505  -0.748  -1.312  1.00  0.00     0.174 HD
ENDBRANCH  14  21
ENDBRANCH   1   9
BRANCH   3  24
HETATM   24  N3  UNL     1       0.211   3.721  -0.255  1.00  0.00    -0.056 N 
HETATM   25  N4  UNL     1       0.197   4.253  -1.457  1.00  0.00    -0.203 N 
HETATM   26  N5  UNL     1       0.325   5.562  -1.336  1.00  0.00     0.009 NA
ATOM     27  H4  UNL     1       0.103   3.742  -2.334  1.00  0.00     0.207 HD
HETATM   28  N6  UNL     1       0.421   5.870  -0.055  1.00  0.00    -0.113 N 
HETATM   29  C7  UNL     1       0.349   4.719   0.624  1.00  0.00     0.713 A 
ATOM     30  H6  UNL     1       0.529   6.804   0.340  1.00  0.00     0.203 HD
HETATM   31  N7  UNL     1       0.410   4.633   1.927  1.00  0.00    -0.232 N 
ATOM     32  H72 UNL     1       0.355   3.756   2.445  1.00  0.00     0.174 HD
ATOM     33  H71 UNL     1       0.515   5.394   2.598  1.00  0.00     0.174 HD
ENDBRANCH   3  24
BRANCH   6  34
HETATM   34  S1  UNL     1       2.444  -0.490   1.692  1.00  0.00    -0.093 SA
BRANCH  34  35
HETATM   35  C9  UNL     1       3.418  -1.204   0.321  1.00  0.00     0.093 C 
BRANCH  35  36
HETATM   36  C10 UNL     1       4.068  -0.098  -0.485  1.00  0.00     0.094 C 
BRANCH  36  37
HETATM   37  S2  UNL     1       5.047  -0.736  -1.860  1.00  0.00    -0.072 SA
BRANCH  37  38
HETATM   38  C11 UNL     1       6.444  -1.621  -1.206  1.00  0.00     0.292 C 
HETATM   39  N9  UNL     1       6.643  -1.719   0.195  1.00  0.00    -0.051 NA
HETATM   40  O1  UNL     1       7.270  -2.169  -1.959  1.00  0.00    -0.264 OA
ENDBRANCH  37  38
ENDBRANCH  36  37
ENDBRANCH  35  36
ENDBRANCH  34  35
ENDBRANCH   6  34
TORSDOF 9
