REMARK  7 active torsions:
REMARK  status: ('A' for Active; 'I' for Inactive)
REMARK    1  A    between atoms: C2_2  and  C3_3 
REMARK    2  A    between atoms: C3_3  and  N1_4 
REMARK    3  A    between atoms: C4_9  and  C5_10 
REMARK       I    between atoms: C5_10  and  N4_12 
REMARK    4  A    between atoms: N4_12  and  N5_14 
REMARK    5  A    between atoms: C6_16  and  C7_17 
REMARK    6  A    between atoms: C7_17  and  N7_21 
REMARK    7  A    between atoms: N7_21  and  N8_23 
ROOT
HETATM    1  C5  UNL     1       0.813  -0.845   0.096  1.00  0.00     0.290 C 
HETATM    2  O1  UNL     1       0.987  -1.226   1.282  1.00  0.00    -0.264 OA
HETATM    3  N4  UNL     1       1.875  -1.001  -0.828  1.00  0.00    -0.265 N 
ATOM      4  H4  UNL     1       1.738  -0.694  -1.791  1.00  0.00     0.190 HD
ENDROOT
BRANCH   3   5
HETATM    5  N5  UNL     1       3.076  -1.548  -0.477  1.00  0.00    -0.305 N 
HETATM    6  C6  UNL     1       4.224  -1.108  -0.311  1.00  0.00     0.156 C 
ATOM      7  H5  UNL     1       3.015  -2.553  -0.313  1.00  0.00     0.186 HD
BRANCH   6   8
HETATM    8  C7  UNL     1       4.634   0.264  -0.463  1.00  0.00     0.130 C 
HETATM    9  N6  UNL     1       3.902   1.255  -0.792  1.00  0.00    -0.383 N 
ATOM     10  H62 UNL     1       2.930   0.992  -0.952  1.00  0.00     0.157 HD
ATOM     11  H61 UNL     1       4.192   2.227  -0.900  1.00  0.00     0.157 HD
BRANCH   8  12
HETATM   12  N7  UNL     1       6.022   0.639  -0.234  1.00  0.00    -0.291 N 
ATOM     13  H7  UNL     1       6.538   1.166  -0.938  1.00  0.00     0.188 HD
BRANCH  12  14
HETATM   14  N8  UNL     1       6.626   0.274   0.942  1.00  0.00    -0.344 N 
ATOM     15  H82 UNL     1       6.096  -0.253   1.636  1.00  0.00     0.176 HD
ATOM     16  H81 UNL     1       7.598   0.537   1.102  1.00  0.00     0.176 HD
ENDBRANCH  12  14
ENDBRANCH   8  12
ENDBRANCH   6   8
ENDBRANCH   3   5
BRANCH   1  17
HETATM   17  C4  UNL     1      -0.477  -0.255  -0.291  1.00  0.00     0.154 A 
HETATM   18  N3  UNL     1      -0.853   0.207  -1.496  1.00  0.00    -0.278 N 
HETATM   19  N2  UNL     1      -2.111   0.660  -1.410  1.00  0.00    -0.239 N 
ATOM     20  H3  UNL     1      -0.276   0.212  -2.337  1.00  0.00     0.189 HD
HETATM   21  N1  UNL     1      -2.573   0.511  -0.194  1.00  0.00    -0.269 N 
ATOM     22  H2  UNL     1      -2.636   1.065  -2.185  1.00  0.00     0.208 HD
HETATM   23  C8  UNL     1      -1.570  -0.060   0.527  1.00  0.00     0.132 A 
HETATM   24 BR1  UNL     1      -1.612  -0.535   2.371  1.00  0.00    -0.027 Br
BRANCH  21  25
HETATM   25  C3  UNL     1      -3.877   0.862   0.338  1.00  0.00     0.151 C 
BRANCH  25  26
HETATM   26  C2  UNL     1      -4.873  -0.253   0.216  1.00  0.00     0.017 C 
HETATM   27  C1  UNL     1      -6.181   0.233   0.800  1.00  0.00     0.007 C 
ENDBRANCH  25  26
ENDBRANCH  21  25
ENDBRANCH   1  17
TORSDOF 7
