REMARK  9 active torsions:
REMARK  status: ('A' for Active; 'I' for Inactive)
REMARK    1  A    between atoms: N1_1  and  C1_5 
REMARK    2  A    between atoms: N2_7  and  C3_8 
REMARK    3  A    between atoms: C3_8  and  C4_9 
REMARK    4  A    between atoms: C4_9  and  C5_10 
REMARK    5  A    between atoms: C5_10  and  C6_11 
REMARK    6  A    between atoms: C6_11  and  N3_12 
REMARK    7  A    between atoms: N3_12  and  C7_15 
REMARK    8  A    between atoms: C7_15  and  C8_16 
REMARK    9  A    between atoms: C8_16  and  C9_17 
ROOT
HETATM    1  C5  UNL     1      -0.415  -0.444   0.171  1.00  0.00     0.029 C 
ENDROOT
BRANCH   1   2
HETATM    2  C4  UNL     1      -0.998   0.938   0.002  1.00  0.00     0.032 C 
BRANCH   2   3
HETATM    3  C3  UNL     1      -2.270   1.035   0.821  1.00  0.00     0.273 C 
BRANCH   3   4
HETATM    4  N2  UNL     1      -3.183   0.060   0.353  1.00  0.00     0.098 N 
HETATM    5  C2  UNL     1      -3.721   0.270  -0.944  1.00  0.00     0.313 C 
HETATM    6  C1  UNL     1      -4.647  -0.916  -1.094  1.00  0.00     0.282 C 
HETATM    7  C13 UNL     1      -5.077  -1.166   0.304  1.00  0.00     0.187 C 
HETATM    8  C12 UNL     1      -4.333  -0.173   1.171  1.00  0.00     0.352 C 
HETATM    9  O1  UNL     1      -5.868  -2.003   0.661  1.00  0.00    -0.294 OA
BRANCH   6  10
HETATM   10  N1  UNL     1      -3.837  -2.018  -1.575  1.00  0.00    -0.067 N 
ATOM     11  H13 UNL     1      -3.323  -1.798  -2.428  1.00  0.00     0.275 HD
ATOM     12  H12 UNL     1      -3.028  -2.211  -0.985  1.00  0.00     0.275 HD
ATOM     13  H11 UNL     1      -4.462  -2.818  -1.676  1.00  0.00     0.275 HD
ENDBRANCH   6  10
ENDBRANCH   3   4
ENDBRANCH   2   3
ENDBRANCH   1   2
BRANCH   1  14
HETATM   14  C6  UNL     1       0.849  -0.619  -0.615  1.00  0.00     0.232 C 
BRANCH  14  15
HETATM   15  N3  UNL     1       1.907   0.283  -0.264  1.00  0.00    -0.075 N 
ATOM     16  H32 UNL     1       2.654   0.273  -0.959  1.00  0.00     0.277 HD
ATOM     17  H31 UNL     1       1.617   1.256  -0.360  1.00  0.00     0.277 HD
BRANCH  15  18
HETATM   18  C7  UNL     1       2.407   0.010   1.049  1.00  0.00     0.238 C 
BRANCH  18  19
HETATM   19  C8  UNL     1       3.549   0.966   1.396  1.00  0.00     0.086 C 
BRANCH  19  20
HETATM   20  C9  UNL     1       4.606   0.734   0.376  1.00  0.00     0.027 A 
HETATM   21  C10 UNL     1       5.648  -0.172   0.436  1.00  0.00     0.114 A 
HETATM   22  N4  UNL     1       6.370  -0.053  -0.693  1.00  0.00    -0.360 N 
HETATM   23  C11 UNL     1       5.830   0.895  -1.474  1.00  0.00     0.180 A 
ATOM     24  H4  UNL     1       7.201  -0.600  -0.920  1.00  0.00     0.166 HD
HETATM   25  N5  UNL     1       4.743   1.370  -0.800  1.00  0.00    -0.355 N 
ATOM     26  H5  UNL     1       4.122   2.104  -1.141  1.00  0.00     0.166 HD
ENDBRANCH  19  20
ENDBRANCH  18  19
ENDBRANCH  15  18
ENDBRANCH  14  15
ENDBRANCH   1  14
TORSDOF 9
