REMARK  6 active torsions:
REMARK  status: ('A' for Active; 'I' for Inactive)
REMARK    1  A    between atoms: N2_5  and  C3_6 
REMARK    2  A    between atoms: C3_6  and  C4_7 
REMARK    3  A    between atoms: C4_7  and  C5_8 
REMARK    4  A    between atoms: C5_8  and  N3_9 
REMARK    5  A    between atoms: N3_9  and  C6_12 
REMARK    6  A    between atoms: C6_12  and  C7_13 
ROOT
HETATM    1  C5  UNL     1       0.737  -1.492  -0.460  1.00  0.00     0.234 C 
ENDROOT
BRANCH   1   2
HETATM    2  C4  UNL     1       1.332  -1.438   0.923  1.00  0.00     0.049 C 
BRANCH   2   3
HETATM    3  C3  UNL     1       1.869  -0.094   1.310  1.00  0.00     0.151 C 
BRANCH   3   4
HETATM    4  N2  UNL     1       2.929   0.389   0.479  1.00  0.00    -0.287 N 
HETATM    5  C2  UNL     1       2.796   1.130  -0.625  1.00  0.00     0.201 A 
HETATM    6  N1  UNL     1       4.023   1.378  -1.122  1.00  0.00    -0.346 N 
HETATM    7  C1  UNL     1       4.920   0.796  -0.335  1.00  0.00     0.198 A 
ATOM      8  H1  UNL     1       4.228   1.921  -1.961  1.00  0.00     0.167 HD
HETATM    9  N5  UNL     1       4.223   0.192   0.645  1.00  0.00    -0.293 N 
ATOM     10  H5  UNL     1       4.637  -0.343   1.409  1.00  0.00     0.188 HD
ENDBRANCH   3   4
ENDBRANCH   2   3
ENDBRANCH   1   2
BRANCH   1  11
HETATM   11  N3  UNL     1      -0.383  -0.615  -0.634  1.00  0.00    -0.071 N 
ATOM     12  H32 UNL     1      -0.131   0.348  -0.412  1.00  0.00     0.277 HD
ATOM     13  H31 UNL     1      -0.609  -0.504  -1.622  1.00  0.00     0.277 HD
BRANCH  11  14
HETATM   14  C6  UNL     1      -1.547  -1.033   0.121  1.00  0.00     0.272 C 
BRANCH  14  15
HETATM   15  C7  UNL     1      -2.627  -0.024  -0.151  1.00  0.00    -0.016 A 
HETATM   16  C8  UNL     1      -2.941   1.064   0.648  1.00  0.00     0.027 A 
HETATM   17  C9  UNL     1      -3.984   1.735   0.036  1.00  0.00     0.088 A 
HETATM   18  N4  UNL     1      -4.317   1.094  -1.111  1.00  0.00    -0.375 N 
HETATM   19  C10 UNL     1      -3.493   0.022  -1.229  1.00  0.00     0.096 A 
ATOM     20  H4  UNL     1      -5.051   1.367  -1.765  1.00  0.00     0.164 HD
ENDBRANCH  14  15
ENDBRANCH  11  14
ENDBRANCH   1  11
TORSDOF 6
