REMARK  6 active torsions:
REMARK  status: ('A' for Active; 'I' for Inactive)
REMARK    1  A    between atoms: C2_2  and  C3_3 
REMARK    2  A    between atoms: C3_3  and  N1_4 
REMARK    3  A    between atoms: N1_4  and  C4_6 
REMARK    4  A    between atoms: C4_6  and  C5_7 
REMARK    5  A    between atoms: C4_6  and  C7_17 
REMARK    6  A    between atoms: C5_7  and  C6_8 
ROOT
HETATM    1  C4  UNL     1       0.070   0.055   0.686  1.00  0.00     0.091 C 
ENDROOT
BRANCH   1   2
HETATM    2  N1  UNL     1       1.460  -0.199   0.499  1.00  0.00    -0.413 N 
ATOM      3  H1  UNL     1       1.996  -0.499   1.314  1.00  0.00     0.153 HD
BRANCH   2   4
HETATM    4  C3  UNL     1       2.134  -0.073  -0.686  1.00  0.00     0.141 C 
BRANCH   4   5
HETATM    5  C2  UNL     1       3.627  -0.259  -0.386  1.00  0.00    -0.018 C 
HETATM    6  C1  UNL     1       4.477   0.702  -0.649  1.00  0.00     0.008 C 
ENDBRANCH   4   5
ENDBRANCH   2   4
ENDBRANCH   1   2
BRANCH   1   7
HETATM    7  C5  UNL     1      -0.257   1.479   0.381  1.00  0.00     0.104 C 
BRANCH   7   8
HETATM    8  C6  UNL     1      -1.603   1.941   0.527  1.00  0.00     0.114 A 
HETATM    9  N2  UNL     1      -2.176   2.451   1.663  1.00  0.00    -0.272 N 
HETATM   10  N3  UNL     1      -3.422   2.812   1.424  1.00  0.00    -0.227 N 
ATOM     11  H2  UNL     1      -1.706   2.539   2.564  1.00  0.00     0.190 HD
HETATM   12  N4  UNL     1      -3.664   2.544   0.152  1.00  0.00    -0.227 N 
ATOM     13  H3  UNL     1      -4.075   3.220   2.093  1.00  0.00     0.210 HD
HETATM   14  N5  UNL     1      -2.580   2.022  -0.390  1.00  0.00    -0.272 N 
ATOM     15  H4  UNL     1      -4.546   2.713  -0.332  1.00  0.00     0.210 HD
ATOM     16  H5  UNL     1      -2.497   1.724  -1.362  1.00  0.00     0.190 HD
ENDBRANCH   7   8
ENDBRANCH   1   7
BRANCH   1  17
HETATM   17  C7  UNL     1      -0.717  -1.002  -0.006  1.00  0.00    -0.031 C 
HETATM   18  C8  UNL     1      -0.171  -2.328   0.605  1.00  0.00     0.016 C 
HETATM   19  C9  UNL     1      -0.636  -1.101  -1.472  1.00  0.00     0.016 C 
HETATM   20  C10 UNL     1      -2.190  -1.058   0.435  1.00  0.00     0.016 C 
ENDBRANCH   1  17
TORSDOF 6
