REMARK  10 active torsions:
REMARK  status: ('A' for Active; 'I' for Inactive)
REMARK    1  A    between atoms: C2_2  and  N1_4 
REMARK    2  A    between atoms: N1_4  and  C4_7 
REMARK    3  A    between atoms: C4_7  and  C6_9 
REMARK    4  A    between atoms: C6_9  and  N2_10 
REMARK    5  A    between atoms: N2_10  and  C7_12 
REMARK    6  A    between atoms: C7_12  and  C8_13 
REMARK    7  A    between atoms: C7_12  and  C11_16 
REMARK    8  A    between atoms: N3_19  and  C14_20 
REMARK    9  A    between atoms: C14_20  and  C15_21 
REMARK   10  A    between atoms: C15_21  and  N4_22 
REMARK       I    between atoms: N4_22  and  C16_24 
ROOT
HETATM    1  C7  UNL     1       0.606  -0.926   0.102  1.00  0.00     0.090 C 
ENDROOT
BRANCH   1   2
HETATM    2  N2  UNL     1       0.999  -0.207   1.234  1.00  0.00    -0.395 N 
ATOM      3  H2  UNL     1       0.308   0.392   1.686  1.00  0.00     0.159 HD
BRANCH   2   4
HETATM    4  C6  UNL     1       2.278  -0.259   1.782  1.00  0.00     0.088 C 
BRANCH   4   5
HETATM    5  C4  UNL     1       3.436   0.411   1.159  1.00  0.00     0.220 C 
HETATM    6  C5  UNL     1       3.305   1.921   1.341  1.00  0.00     0.046 C 
BRANCH   5   7
HETATM    7  N1  UNL     1       3.729  -0.002  -0.156  1.00  0.00    -0.063 N 
ATOM      8  H12 UNL     1       3.005   0.321  -0.798  1.00  0.00     0.278 HD
ATOM      9  H11 UNL     1       3.607  -1.011  -0.245  1.00  0.00     0.278 HD
BRANCH   7  10
HETATM   10  C2  UNL     1       5.037   0.389  -0.638  1.00  0.00     0.178 C 
HETATM   11  C1  UNL     1       5.514  -0.706  -1.568  1.00  0.00     0.039 C 
HETATM   12  C3  UNL     1       6.055   0.551   0.449  1.00  0.00     0.039 C 
ENDBRANCH   7  10
ENDBRANCH   5   7
ENDBRANCH   4   5
ENDBRANCH   2   4
ENDBRANCH   1   2
BRANCH   1  13
HETATM   13  C8  UNL     1       0.659  -2.402   0.190  1.00  0.00     0.009 A 
HETATM   14  C9  UNL     1      -0.120  -3.183   1.169  1.00  0.00     0.007 A 
HETATM   15  C10 UNL     1      -0.544  -3.178  -0.292  1.00  0.00     0.007 A 
ENDBRANCH   1  13
BRANCH   1  16
HETATM   16  C11 UNL     1      -0.753  -0.379  -0.360  1.00  0.00     0.038 C 
HETATM   17  C12 UNL     1      -0.502   1.090  -0.709  1.00  0.00     0.038 C 
HETATM   18  C13 UNL     1      -1.634   1.853  -0.070  1.00  0.00     0.273 C 
HETATM   19  N3  UNL     1      -2.526   0.888   0.490  1.00  0.00     0.090 N 
HETATM   20  C17 UNL     1      -1.758  -0.287   0.727  1.00  0.00     0.279 C 
BRANCH  19  21
HETATM   21  C14 UNL     1      -3.672   0.749  -0.348  1.00  0.00     0.292 C 
BRANCH  21  22
HETATM   22  C15 UNL     1      -4.711  -0.208   0.125  1.00  0.00     0.152 C 
BRANCH  22  23
HETATM   23  N4  UNL     1      -5.802  -0.239  -0.822  1.00  0.00    -0.363 N 
HETATM   24  C16 UNL     1      -6.707   0.819  -1.064  1.00  0.00     0.181 C 
HETATM   25  N5  UNL     1      -7.964   0.615  -0.768  1.00  0.00    -0.374 N 
HETATM   26  N6  UNL     1      -6.377   2.082  -1.602  1.00  0.00    -0.064 NA
ATOM     27  H52 UNL     1      -8.202  -0.297  -0.379  1.00  0.00     0.158 HD
ATOM     28  H51 UNL     1      -8.617   1.379  -0.943  1.00  0.00     0.158 HD
ATOM     29  H4  UNL     1      -5.929  -1.096  -1.361  1.00  0.00     0.162 HD
ENDBRANCH  22  23
ENDBRANCH  21  22
ENDBRANCH  19  21
ENDBRANCH   1  16
TORSDOF 10
