REMARK  10 active torsions:
REMARK  status: ('A' for Active; 'I' for Inactive)
REMARK    1  A    between atoms: C2_2  and  C3_3 
REMARK    2  A    between atoms: C3_3  and  C4_4 
REMARK    3  A    between atoms: C4_4  and  C5_5 
REMARK    4  A    between atoms: C4_4  and  O2_10 
REMARK    5  A    between atoms: C5_5  and  N1_6 
REMARK    6  A    between atoms: N1_6  and  C6_8 
REMARK    7  A    between atoms: O2_10  and  C7_11 
REMARK    8  A    between atoms: C11_15  and  C12_16 
REMARK    9  A    between atoms: C12_16  and  C13_17 
REMARK   10  A    between atoms: C15_21  and  N3_22 
ROOT
HETATM    1  C7  UNL     1      -0.629   0.115   1.794  1.00  0.00     0.070 A 
HETATM    2  C8  UNL     1      -0.127   0.004   3.099  1.00  0.00     0.037 A 
HETATM    3  C9  UNL     1       1.141   0.471   3.350  1.00  0.00     0.003 A 
HETATM    4  C10 UNL     1       1.924   1.036   2.370  1.00  0.00     0.007 A 
HETATM    5  C11 UNL     1       1.438   1.150   1.077  1.00  0.00    -0.051 A 
HETATM    6  C17 UNL     1       0.170   0.683   0.832  1.00  0.00     0.044 A 
ENDROOT
BRANCH   5   7
HETATM    7  C12 UNL     1       2.229   1.769   0.007  1.00  0.00     0.082 C 
BRANCH   7   8
HETATM    8  C13 UNL     1       3.293   0.946  -0.568  1.00  0.00     0.006 A 
HETATM    9  C14 UNL     1       4.597   1.103  -0.079  1.00  0.00     0.117 A 
HETATM   10  N2  UNL     1       5.632   0.374  -0.511  1.00  0.00    -0.202 N 
HETATM   11  C15 UNL     1       5.412  -0.552  -1.456  1.00  0.00     0.677 A 
ATOM     12  H2  UNL     1       6.567   0.519  -0.130  1.00  0.00     0.183 HD
HETATM   13  N4  UNL     1       4.183  -0.739  -1.954  1.00  0.00    -0.177 N 
HETATM   14  C16 UNL     1       3.104  -0.006  -1.532  1.00  0.00     0.122 A 
ATOM     15  H4  UNL     1       4.045  -1.451  -2.671  1.00  0.00     0.185 HD
HETATM   16  N5  UNL     1       1.995  -0.247  -2.108  1.00  0.00    -0.385 N 
ATOM     17  H52 UNL     1       1.192   0.298  -1.794  1.00  0.00     0.157 HD
ATOM     18  H51 UNL     1       1.854  -0.957  -2.827  1.00  0.00     0.157 HD
BRANCH  11  19
HETATM   19  N3  UNL     1       6.391  -1.275  -1.895  1.00  0.00    -0.234 N 
ATOM     20  H32 UNL     1       7.327  -1.133  -1.516  1.00  0.00     0.174 HD
ATOM     21  H31 UNL     1       6.224  -1.979  -2.614  1.00  0.00     0.174 HD
ENDBRANCH  11  19
ENDBRANCH   7   8
ENDBRANCH   5   7
BRANCH   1  22
HETATM   22  O2  UNL     1      -1.876  -0.344   1.547  1.00  0.00    -0.344 OA
BRANCH  22  23
HETATM   23  C4  UNL     1      -2.588  -0.340   0.309  1.00  0.00     0.150 C 
BRANCH  23  24
HETATM   24  C3  UNL     1      -2.916  -1.803   0.082  1.00  0.00     0.060 C 
BRANCH  24  25
HETATM   25  C2  UNL     1      -3.802  -2.120  -1.026  1.00  0.00    -0.034 C 
HETATM   26  C1  UNL     1      -3.373  -2.834  -2.044  1.00  0.00     0.007 C 
ENDBRANCH  24  25
ENDBRANCH  23  24
BRANCH  23  27
HETATM   27  C5  UNL     1      -3.805   0.513   0.575  1.00  0.00     0.154 C 
BRANCH  27  28
HETATM   28  N1  UNL     1      -4.634   0.759  -0.564  1.00  0.00    -0.366 N 
ATOM     29  H1  UNL     1      -4.362   0.392  -1.476  1.00  0.00     0.161 HD
BRANCH  28  30
HETATM   30  C6  UNL     1      -5.838   1.514  -0.435  1.00  0.00     0.348 C 
HETATM   31  O1  UNL     1      -6.136   1.948   0.701  1.00  0.00    -0.284 OA
ENDBRANCH  28  30
ENDBRANCH  27  28
ENDBRANCH  23  27
ENDBRANCH  22  23
ENDBRANCH   1  22
TORSDOF 10
