REMARK  8 active torsions:
REMARK  status: ('A' for Active; 'I' for Inactive)
REMARK       I    between atoms: C1_4  and  N3_6 
REMARK    1  A    between atoms: N3_6  and  C2_8 
REMARK    2  A    between atoms: C2_8  and  C3_9 
REMARK    3  A    between atoms: N4_10  and  C4_12 
REMARK    4  A    between atoms: C4_12  and  C5_13 
REMARK    5  A    between atoms: C4_12  and  C6_15 
REMARK    6  A    between atoms: C6_15  and  C7_16 
REMARK    7  A    between atoms: C10_19  and  C11_20 
REMARK    8  A    between atoms: C11_20  and  C12_21 
ROOT
HETATM    1  C6  UNL     1       1.483  -0.412   1.038  1.00  0.00     0.070 C 
ENDROOT
BRANCH   1   2
HETATM    2  C4  UNL     1       1.915   1.024   0.860  1.00  0.00     0.146 C 
BRANCH   2   3
HETATM    3  N4  UNL     1       3.197   1.344   1.247  1.00  0.00    -0.390 N 
HETATM    4  C3  UNL     1       4.410   1.002   0.733  1.00  0.00     0.076 C 
ATOM      5  H4  UNL     1       3.247   1.947   2.068  1.00  0.00     0.159 HD
BRANCH   4   6
HETATM    6  C2  UNL     1       4.926  -0.419   0.886  1.00  0.00     0.166 C 
BRANCH   6   7
HETATM    7  N3  UNL     1       6.267  -0.521   0.284  1.00  0.00    -0.360 N 
HETATM    8  C1  UNL     1       6.414  -0.413  -1.115  1.00  0.00     0.182 C 
HETATM    9  N1  UNL     1       5.997  -1.371  -1.903  1.00  0.00    -0.374 N 
HETATM   10  N2  UNL     1       7.022   0.751  -1.652  1.00  0.00    -0.064 NA
ATOM     11  H12 UNL     1       6.103  -1.293  -2.914  1.00  0.00     0.158 HD
ATOM     12  H11 UNL     1       5.560  -2.208  -1.517  1.00  0.00     0.158 HD
ATOM     13  H3  UNL     1       7.085  -0.669   0.876  1.00  0.00     0.162 HD
ENDBRANCH   6   7
ENDBRANCH   4   6
ENDBRANCH   2   3
BRANCH   2  14
HETATM   14  C5  UNL     1       1.553   1.518  -0.509  1.00  0.00     0.256 C 
HETATM   15  O1  UNL     1       2.402   2.098  -1.148  1.00  0.00    -0.305 OA
ENDBRANCH   2  14
ENDBRANCH   1   2
BRANCH   1  16
HETATM   16  C7  UNL     1       0.055  -0.632   0.621  1.00  0.00    -0.056 A 
HETATM   17  C8  UNL     1      -0.972  -0.437   1.508  1.00  0.00     0.007 A 
HETATM   18  C9  UNL     1      -2.308  -0.657   1.149  1.00  0.00     0.007 A 
HETATM   19  C10 UNL     1      -2.597  -1.080  -0.127  1.00  0.00    -0.056 A 
HETATM   20  C16 UNL     1      -1.566  -1.276  -1.019  1.00  0.00     0.007 A 
HETATM   21  C17 UNL     1      -0.242  -1.053  -0.646  1.00  0.00     0.007 A 
BRANCH  19  22
HETATM   22  C11 UNL     1      -3.992  -1.323  -0.557  1.00  0.00     0.071 C 
BRANCH  22  23
HETATM   23  C12 UNL     1      -4.518  -0.016  -1.120  1.00  0.00     0.190 C 
HETATM   24  C13 UNL     1      -5.930  -0.089  -1.602  1.00  0.00     0.035 C 
HETATM   25  C14 UNL     1      -6.811   0.281  -0.429  1.00  0.00     0.029 C 
HETATM   26  C15 UNL     1      -5.820   0.619   0.650  1.00  0.00     0.233 C 
HETATM   27  N5  UNL     1      -4.597   0.976  -0.061  1.00  0.00    -0.071 N 
ATOM     28  H52 UNL     1      -3.767   1.032   0.529  1.00  0.00     0.277 HD
ATOM     29  H51 UNL     1      -4.563   1.943  -0.384  1.00  0.00     0.277 HD
ENDBRANCH  22  23
ENDBRANCH  19  22
ENDBRANCH   1  16
TORSDOF 8
