REMARK  13 active torsions:
REMARK  status: ('A' for Active; 'I' for Inactive)
REMARK    1  A    between atoms: C2_2  and  C4_4 
REMARK    2  A    between atoms: C6_6  and  C21_29 
REMARK    3  A    between atoms: C8_8  and  C9_9 
REMARK    4  A    between atoms: C16_17  and  C17_18 
REMARK    5  A    between atoms: C17_18  and  N1_19 
REMARK    6  A    between atoms: C17_18  and  C18_23 
REMARK    7  A    between atoms: C18_23  and  O2_24 
REMARK    8  A    between atoms: C22_30  and  O4_31 
REMARK    9  A    between atoms: C22_30  and  C23_33 
REMARK   10  A    between atoms: C23_33  and  C25_35 
REMARK   11  A    between atoms: C25_35  and  C26_36 
REMARK   12  A    between atoms: C27_37  and  C28_38 
REMARK   13  A    between atoms: C28_38  and  O5_41 
ROOT
HETATM    1  C9  UNL     1      -0.513   2.129   1.462  1.00  0.00     0.170 A 
HETATM    2  O1  UNL     1      -0.868   1.048   2.018  1.00  0.00    -0.365 OA
HETATM    3  C10 UNL     1      -0.137   0.705   1.013  1.00  0.00     0.126 A 
HETATM    4  C11 UNL     1      -1.028  -0.133   0.203  1.00  0.00     0.065 C 
HETATM    5  C12 UNL     1      -1.136   0.513  -1.143  1.00  0.00     0.004 C 
HETATM    6  C13 UNL     1      -1.278  -0.602  -2.144  1.00  0.00     0.006 C 
HETATM    7  C14 UNL     1      -2.499  -1.363  -1.804  1.00  0.00     0.011 C 
HETATM    8  C15 UNL     1      -2.814  -1.664  -0.397  1.00  0.00     0.051 C 
HETATM    9  C16 UNL     1      -2.088  -2.745   0.284  1.00  0.00     0.162 C 
HETATM   10  O3  UNL     1      -2.040  -1.930   1.439  1.00  0.00    -0.372 OA
HETATM   11  C19 UNL     1      -2.247  -0.754   0.668  1.00  0.00     0.071 C 
HETATM   12  C20 UNL     1      -3.310   0.034   1.390  1.00  0.00     0.047 C 
HETATM   13  C21 UNL     1       0.131   1.278  -1.178  1.00  0.00     0.041 C 
HETATM   14  C22 UNL     1       0.935   0.916   0.099  1.00  0.00     0.100 C 
ENDROOT
BRANCH  14  15
HETATM   15  O4  UNL     1       1.772   2.051   0.280  1.00  0.00    -0.386 OA
ATOM     16  H4  UNL     1       2.487   2.192  -0.330  1.00  0.00     0.210 HD
ENDBRANCH  14  15
BRANCH  14  17
HETATM   17  C23 UNL     1       1.934  -0.167  -0.168  1.00  0.00     0.023 C 
HETATM   18  C24 UNL     1       2.994   0.259  -1.160  1.00  0.00     0.013 C 
BRANCH  17  19
HETATM   19  C25 UNL     1       2.702  -0.441   1.119  1.00  0.00     0.034 C 
BRANCH  19  20
HETATM   20  C26 UNL     1       3.714  -1.502   0.944  1.00  0.00    -0.027 C 
HETATM   21  C27 UNL     1       5.015  -1.328   1.137  1.00  0.00     0.006 C 
BRANCH  21  22
HETATM   22  C28 UNL     1       6.028  -2.372   0.967  1.00  0.00     0.068 C 
HETATM   23  C29 UNL     1       5.670  -3.152  -0.303  1.00  0.00     0.050 C 
HETATM   24  C30 UNL     1       7.367  -1.734   0.703  1.00  0.00     0.050 C 
BRANCH  22  25
HETATM   25  O5  UNL     1       6.135  -3.225   2.059  1.00  0.00    -0.387 OA
ATOM     26  H5  UNL     1       6.792  -3.902   1.949  1.00  0.00     0.211 HD
ENDBRANCH  22  25
ENDBRANCH  21  22
ENDBRANCH  19  20
ENDBRANCH  17  19
ENDBRANCH  14  17
BRANCH  13  27
HETATM   27  C6  UNL     1      -0.238   2.726  -0.987  1.00  0.00    -0.009 A 
HETATM   28  C5  UNL     1      -1.570   3.180  -1.327  1.00  0.00    -0.013 A 
HETATM   29  C4  UNL     1      -2.008   3.522  -0.096  1.00  0.00    -0.072 A 
HETATM   30  C8  UNL     1      -0.668   3.085   0.405  1.00  0.00     0.059 A 
HETATM   31  C7  UNL     1       0.825   3.604  -1.618  1.00  0.00     0.021 C 
BRANCH  29  32
HETATM   32  C2  UNL     1      -3.230   4.073   0.529  1.00  0.00     0.007 C 
HETATM   33  C1  UNL     1      -4.214   4.409  -0.574  1.00  0.00     0.014 C 
HETATM   34  C3  UNL     1      -2.884   5.388   1.216  1.00  0.00     0.014 C 
ENDBRANCH  29  32
ENDBRANCH  13  27
BRANCH   9  35
HETATM   35  C17 UNL     1      -2.677  -4.088   0.513  1.00  0.00     0.236 C 
BRANCH  35  36
HETATM   36  N1  UNL     1      -1.826  -4.775   1.530  1.00  0.00    -0.070 N 
ATOM     37  H13 UNL     1      -0.841  -4.810   1.269  1.00  0.00     0.274 HD
ATOM     38  H12 UNL     1      -1.715  -4.236   2.389  1.00  0.00     0.274 HD
ATOM     39  H11 UNL     1      -2.231  -5.698   1.687  1.00  0.00     0.274 HD
ENDBRANCH  35  36
BRANCH  35  40
HETATM   40  C18 UNL     1      -4.075  -4.173   0.995  1.00  0.00     0.199 C 
BRANCH  40  41
HETATM   41  O2  UNL     1      -5.045  -3.644   0.171  1.00  0.00    -0.399 OA
ATOM     42  H2  UNL     1      -5.942  -3.699   0.480  1.00  0.00     0.209 HD
ENDBRANCH  40  41
ENDBRANCH  35  40
ENDBRANCH   9  35
TORSDOF 13
