REMARK  10 active torsions:
REMARK  status: ('A' for Active; 'I' for Inactive)
REMARK    1  A    between atoms: C2_2  and  C3_3 
REMARK    2  A    between atoms: C2_2  and  C5_7 
REMARK    3  A    between atoms: C3_3  and  C4_4 
REMARK    4  A    between atoms: C6_9  and  O4_10 
REMARK    5  A    between atoms: C8_13  and  O5_14 
REMARK    6  A    between atoms: C8_13  and  C9_16 
REMARK    7  A    between atoms: C9_16  and  C11_18 
REMARK    8  A    between atoms: C11_18  and  C12_19 
REMARK    9  A    between atoms: C12_19  and  C13_20 
REMARK   10  A    between atoms: C19_27  and  O7_29 
ROOT
HETATM    1  C5  UNL     1       5.300  -1.207  -0.732  1.00  0.00     0.163 C 
HETATM    2  O3  UNL     1       4.848  -0.332  -1.756  1.00  0.00    -0.344 OA
HETATM    3  C6  UNL     1       3.571  -0.761  -2.019  1.00  0.00     0.170 C 
HETATM    4  C7  UNL     1       2.497   0.267  -1.744  1.00  0.00     0.107 C 
HETATM    5  C8  UNL     1       1.902  -0.033  -0.401  1.00  0.00     0.071 C 
HETATM    6  C25 UNL     1       2.726  -1.210   0.169  1.00  0.00     0.042 A 
HETATM    7  C26 UNL     1       3.334  -1.735  -0.910  1.00  0.00     0.067 A 
HETATM    8  C27 UNL     1       4.156  -1.203   0.190  1.00  0.00     0.002 A 
HETATM    9  C28 UNL     1       4.570  -1.564   1.508  1.00  0.00     0.019 C 
ENDROOT
BRANCH   5  10
HETATM   10  O5  UNL     1       2.006   1.081   0.395  1.00  0.00    -0.389 OA
ATOM     11  H5  UNL     1       1.629   0.891   1.246  1.00  0.00     0.210 HD
ENDBRANCH   5  10
BRANCH   5  12
HETATM   12  C9  UNL     1       0.448  -0.440  -0.440  1.00  0.00     0.016 C 
HETATM   13  C10 UNL     1       0.286  -1.692  -1.280  1.00  0.00     0.013 C 
BRANCH  12  14
HETATM   14  C11 UNL     1      -0.428   0.674  -0.963  1.00  0.00     0.007 C 
BRANCH  14  15
HETATM   15  C12 UNL     1      -1.874   0.369  -1.031  1.00  0.00     0.006 C 
BRANCH  15  16
HETATM   16  C13 UNL     1      -2.552   0.019   0.257  1.00  0.00    -0.003 C 
HETATM   17  C14 UNL     1      -2.471   1.103   1.295  1.00  0.00    -0.013 C 
HETATM   18  C15 UNL     1      -2.199   0.560   2.689  1.00  0.00     0.010 C 
HETATM   19  C16 UNL     1      -3.588   2.084   1.289  1.00  0.00     0.017 C 
HETATM   20  C17 UNL     1      -4.477   2.021   0.103  1.00  0.00     0.067 C 
HETATM   21  C18 UNL     1      -5.886   2.345   0.476  1.00  0.00     0.165 C 
HETATM   22  C21 UNL     1      -4.941   0.647  -0.272  1.00  0.00     0.047 C 
HETATM   23  O6  UNL     1      -6.555   3.354   0.613  1.00  0.00    -0.294 OA
HETATM   24  C19 UNL     1      -6.105   0.857   0.607  1.00  0.00     0.120 C 
HETATM   25  C20 UNL     1      -7.442   0.523  -0.030  1.00  0.00     0.055 C 
HETATM   26  C22 UNL     1      -3.975  -0.449   0.020  1.00  0.00    -0.036 C 
HETATM   27  C23 UNL     1      -4.437  -1.399   1.106  1.00  0.00     0.015 C 
HETATM   28  C24 UNL     1      -3.934  -1.340  -1.238  1.00  0.00     0.015 C 
BRANCH  24  29
HETATM   29  O7  UNL     1      -6.088   0.506   1.916  1.00  0.00    -0.382 OA
ATOM     30  H7  UNL     1      -6.226  -0.430   1.998  1.00  0.00     0.211 HD
ENDBRANCH  24  29
ENDBRANCH  15  16
ENDBRANCH  14  15
ENDBRANCH  12  14
ENDBRANCH   5  12
BRANCH   3  31
HETATM   31  O4  UNL     1       3.443  -1.346  -3.274  1.00  0.00    -0.365 OA
ATOM     32  H4  UNL     1       2.559  -1.643  -3.456  1.00  0.00     0.213 HD
ENDBRANCH   3  31
BRANCH   1  33
HETATM   33  C2  UNL     1       6.499  -0.472  -0.166  1.00  0.00    -0.050 C 
HETATM   34  C1  UNL     1       7.575  -1.186  -0.007  1.00  0.00     0.017 C 
BRANCH  33  35
HETATM   35  C3  UNL     1       6.375   0.947   0.159  1.00  0.00     0.149 C 
BRANCH  35  36
HETATM   36  C4  UNL     1       7.475   1.691   0.704  1.00  0.00     0.176 C 
HETATM   37  O1  UNL     1       8.631   1.319   0.980  1.00  0.00    -0.648 OA
HETATM   38  O2  UNL     1       7.219   3.067   0.976  1.00  0.00    -0.648 OA
ENDBRANCH  35  36
ENDBRANCH  33  35
ENDBRANCH   1  33
TORSDOF 10
