REMARK  9 active torsions:
REMARK  status: ('A' for Active; 'I' for Inactive)
REMARK    1  A    between atoms: C6_6  and  C7_7 
REMARK    2  A    between atoms: C7_7  and  C9_9 
REMARK    3  A    between atoms: C9_9  and  C10_10 
REMARK    4  A    between atoms: C10_10  and  N1_11 
REMARK    5  A    between atoms: C11_12  and  C12_13 
REMARK    6  A    between atoms: C15_19  and  C16_20 
REMARK    7  A    between atoms: C16_20  and  C17_21 
REMARK    8  A    between atoms: C21_28  and  C22_29 
REMARK    9  A    between atoms: C22_29  and  C23_30 
ROOT
HETATM    1  C1  UNL     1       8.792  -2.453   2.245  1.00  0.00     0.018 C 
HETATM    2  C2  UNL     1       7.809  -1.870   1.860  1.00  0.00    -0.078 C 
HETATM    3  C3  UNL     1       6.616  -1.172   1.419  1.00  0.00     0.017 A 
HETATM    4  C4  UNL     1       5.959  -1.600   0.290  1.00  0.00     0.021 A 
HETATM    5  C5  UNL     1       4.811  -0.930  -0.135  1.00  0.00     0.009 A 
HETATM    6  C6  UNL     1       4.302   0.151   0.532  1.00  0.00    -0.054 A 
HETATM    7  C26 UNL     1       4.961   0.574   1.659  1.00  0.00     0.009 A 
HETATM    8  C27 UNL     1       6.106  -0.086   2.091  1.00  0.00     0.021 A 
ENDROOT
BRANCH   6   9
HETATM    9  C7  UNL     1       3.075   0.834   0.049  1.00  0.00     0.016 C 
HETATM   10  C8  UNL     1       3.535   2.220  -0.393  1.00  0.00     0.015 C 
BRANCH   9  11
HETATM   11  C9  UNL     1       2.018   0.948   1.131  1.00  0.00     0.029 C 
BRANCH  11  12
HETATM   12  C10 UNL     1       0.825   1.621   0.583  1.00  0.00     0.126 C 
BRANCH  12  13
HETATM   13  N1  UNL     1       0.138   0.953  -0.490  1.00  0.00    -0.354 N 
HETATM   14  C11 UNL     1      -0.763   1.826  -1.160  1.00  0.00     0.105 C 
HETATM   15  N2  UNL     1      -1.880   2.271  -0.361  1.00  0.00    -0.311 N 
HETATM   16  C14 UNL     1      -2.831   1.610   0.491  1.00  0.00     0.246 C 
ATOM     17  H2  UNL     1      -2.027   3.279  -0.412  1.00  0.00     0.170 HD
HETATM   18  O1  UNL     1      -3.206   2.333   1.420  1.00  0.00    -0.271 OA
HETATM   19  C15 UNL     1      -3.378   0.268   0.412  1.00  0.00     0.177 C 
HETATM   20  N3  UNL     1      -2.434  -0.703   1.004  1.00  0.00    -0.346 N 
HETATM   21  C20 UNL     1      -1.035  -0.857   0.739  1.00  0.00     0.241 C 
ATOM     22  H3  UNL     1      -2.830  -1.346   1.690  1.00  0.00     0.163 HD
HETATM   23  O2  UNL     1      -0.537  -1.542   1.663  1.00  0.00    -0.271 OA
HETATM   24  C21 UNL     1      -0.109  -0.408  -0.326  1.00  0.00     0.178 C 
BRANCH  14  25
HETATM   25  C12 UNL     1      -1.066   1.554  -2.561  1.00  0.00     0.038 C 
HETATM   26  C13 UNL     1      -0.201   1.639  -3.560  1.00  0.00     0.015 C 
ENDBRANCH  14  25
BRANCH  19  27
HETATM   27  C16 UNL     1      -4.704   0.092   0.990  1.00  0.00     0.038 C 
BRANCH  27  28
HETATM   28  C17 UNL     1      -5.880   0.775   0.455  1.00  0.00    -0.020 C 
HETATM   29  C18 UNL     1      -7.079   0.339   1.336  1.00  0.00     0.009 C 
HETATM   30  C19 UNL     1      -5.969   2.226   0.312  1.00  0.00     0.009 C 
ENDBRANCH  27  28
ENDBRANCH  19  27
BRANCH  24  31
HETATM   31  C22 UNL     1      -0.400  -1.188  -1.622  1.00  0.00     0.038 C 
BRANCH  31  32
HETATM   32  C23 UNL     1      -0.612  -2.672  -1.268  1.00  0.00    -0.020 C 
HETATM   33  C24 UNL     1      -0.914  -3.317  -2.636  1.00  0.00     0.009 C 
HETATM   34  C25 UNL     1       0.728  -3.239  -0.862  1.00  0.00     0.009 C 
ENDBRANCH  31  32
ENDBRANCH  24  31
ENDBRANCH  12  13
ENDBRANCH  11  12
ENDBRANCH   9  11
ENDBRANCH   6   9
TORSDOF 9
