REMARK  9 active torsions:
REMARK  status: ('A' for Active; 'I' for Inactive)
REMARK    1  A    between atoms: C2_2  and  C3_3 
REMARK    2  A    between atoms: C3_3  and  C4_4 
REMARK    3  A    between atoms: N1_5  and  S1_7 
REMARK    4  A    between atoms: S1_7  and  C5_10 
REMARK    5  A    between atoms: C8_13  and  N2_14 
REMARK       I    between atoms: N2_14  and  C9_16 
REMARK    6  A    between atoms: C9_16  and  C10_18 
REMARK    7  A    between atoms: C11_19  and  C12_20 
REMARK       I    between atoms: C12_20  and  N3_22 
REMARK    8  A    between atoms: N3_22  and  C13_24 
REMARK    9  A    between atoms: C15_26  and  C16_27 
ROOT
HETATM    1  N2  UNL     1      -1.225   1.244  -2.000  1.00  0.00    -0.324 N 
ATOM      2  H2  UNL     1      -1.085   1.137  -3.005  1.00  0.00     0.169 HD
HETATM    3  C9  UNL     1      -0.065   1.287  -1.213  1.00  0.00     0.245 C 
HETATM    4  O3  UNL     1      -0.204   1.407   0.019  1.00  0.00    -0.268 OA
ENDROOT
BRANCH   3   5
HETATM    5  C10 UNL     1       1.218   1.194  -1.861  1.00  0.00     0.080 C 
HETATM    6  C11 UNL     1       2.423   1.209  -1.439  1.00  0.00     0.080 C 
BRANCH   6   7
HETATM    7  C12 UNL     1       2.935   1.329  -0.109  1.00  0.00     0.246 C 
HETATM    8  O4  UNL     1       2.213   1.439   0.897  1.00  0.00    -0.268 OA
HETATM    9  N3  UNL     1       4.384   1.327   0.111  1.00  0.00    -0.310 N 
ATOM     10  H3  UNL     1       4.856   2.202   0.340  1.00  0.00     0.170 HD
BRANCH   9  11
HETATM   11  C13 UNL     1       5.072   0.246   0.021  1.00  0.00     0.108 A 
HETATM   12  C14 UNL     1       6.454   0.256   0.233  1.00  0.00     0.056 A 
HETATM   13  C15 UNL     1       7.232  -0.849   0.149  1.00  0.00    -0.050 A 
HETATM   14  C19 UNL     1       6.647  -2.054  -0.159  1.00  0.00     0.024 A 
HETATM   15  C20 UNL     1       5.282  -2.047  -0.365  1.00  0.00     0.090 A 
HETATM   16  N4  UNL     1       4.517  -0.944  -0.280  1.00  0.00    -0.352 N 
ATOM     17  H4  UNL     1       3.512  -1.009  -0.444  1.00  0.00     0.166 HD
BRANCH  13  18
HETATM   18  C16 UNL     1       8.701  -0.847   0.381  1.00  0.00     0.010 C 
HETATM   19  C17 UNL     1       9.429   0.248  -0.324  1.00  0.00     0.015 C 
HETATM   20  C18 UNL     1       8.861  -0.597   1.891  1.00  0.00     0.015 C 
ENDBRANCH  13  18
ENDBRANCH   9  11
ENDBRANCH   6   7
ENDBRANCH   3   5
BRANCH   1  21
HETATM   21  C8  UNL     1      -2.558   1.331  -1.565  1.00  0.00     0.035 A 
HETATM   22  C7  UNL     1      -3.584   0.933  -2.454  1.00  0.00     0.031 A 
HETATM   23  C6  UNL     1      -4.901   1.015  -2.115  1.00  0.00     0.027 A 
HETATM   24  C5  UNL     1      -5.326   1.489  -0.889  1.00  0.00     0.080 A 
HETATM   25  C22 UNL     1      -4.351   1.882  -0.007  1.00  0.00     0.027 A 
HETATM   26  C21 UNL     1      -3.000   1.799  -0.352  1.00  0.00     0.031 A 
BRANCH  24  27
HETATM   27  S1  UNL     1      -7.006   1.603  -0.469  1.00  0.00     0.262 S 
HETATM   28  O1  UNL     1      -7.774   2.028  -1.690  1.00  0.00    -0.200 OA
HETATM   29  O2  UNL     1      -7.134   2.760   0.511  1.00  0.00    -0.200 OA
BRANCH  27  30
HETATM   30  N1  UNL     1      -7.645   0.214   0.248  1.00  0.00    -0.295 N 
HETATM   31  C4  UNL     1      -7.935  -0.862  -0.367  1.00  0.00     0.073 C 
ATOM     32  H1  UNL     1      -7.812   0.239   1.254  1.00  0.00     0.177 HD
BRANCH  31  33
HETATM   33  C3  UNL     1      -8.497  -2.024   0.379  1.00  0.00     0.045 C 
BRANCH  33  34
HETATM   34  C2  UNL     1      -8.468  -1.780   1.872  1.00  0.00     0.001 C 
HETATM   35  C1  UNL     1      -7.034  -1.567   2.322  1.00  0.00     0.005 C 
ENDBRANCH  33  34
ENDBRANCH  31  33
ENDBRANCH  27  30
ENDBRANCH  24  27
ENDBRANCH   1  21
TORSDOF 9
