REMARK  5 active torsions:
REMARK  status: ('A' for Active; 'I' for Inactive)
REMARK    1  A    between atoms: C3_3  and  C4_4 
REMARK    2  A    between atoms: C4_4  and  O1_5 
REMARK    3  A    between atoms: C4_4  and  N1_7 
REMARK       I    between atoms: N1_7  and  C5_9 
REMARK    4  A    between atoms: C5_9  and  C6_11 
REMARK    5  A    between atoms: C6_11  and  C7_12 
ROOT
HETATM    1  C4  UNL     1      -0.190   0.775   0.612  1.00  0.00     0.160 C 
ENDROOT
BRANCH   1   2
HETATM    2  C3  UNL     1       1.232   0.455   0.751  1.00  0.00     0.063 A 
HETATM    3  C2  UNL     1       1.982  -0.641   0.445  1.00  0.00    -0.023 A 
HETATM    4  C1  UNL     1       1.310  -1.856  -0.179  1.00  0.00     0.051 C 
HETATM    5  C11 UNL     1       3.303  -0.613   0.708  1.00  0.00     0.021 A 
HETATM    6  C10 UNL     1       3.827   0.503   1.265  1.00  0.00     0.002 A 
HETATM    7  S2  UNL     1       4.752  -1.739   0.507  1.00  0.00    -0.123 SA
HETATM    8  S1  UNL     1       2.442   1.517   1.416  1.00  0.00    -0.088 SA
HETATM    9  C14 UNL     1       5.288   0.486   1.546  1.00  0.00     0.062 C 
HETATM   10  C12 UNL     1       5.966  -0.348   0.486  1.00  0.00     0.053 C 
HETATM   11  C13 UNL     1       5.919   0.296  -0.861  1.00  0.00     0.022 C 
ENDBRANCH   1   2
BRANCH   1  12
HETATM   12  O1  UNL     1      -0.485   1.970   1.046  1.00  0.00    -0.345 OA
ATOM     13  H1  UNL     1      -1.408   2.178   0.956  1.00  0.00     0.219 HD
ENDBRANCH   1  12
BRANCH   1  14
HETATM   14  N1  UNL     1      -1.228  -0.000   0.096  1.00  0.00    -0.307 N 
HETATM   15  C5  UNL     1      -2.563   0.555   0.070  1.00  0.00     0.223 C 
HETATM   16  O2  UNL     1      -2.791   1.698   0.495  1.00  0.00    -0.273 OA
ATOM     17  H1  UNL     1      -1.049  -0.940  -0.256  1.00  0.00     0.171 HD
BRANCH  15  18
HETATM   18  C6  UNL     1      -3.650  -0.274  -0.478  1.00  0.00     0.107 C 
BRANCH  18  19
HETATM   19  C7  UNL     1      -4.935   0.481  -0.412  1.00  0.00    -0.014 C 
HETATM   20  C8  UNL     1      -6.103  -0.317  -0.962  1.00  0.00     0.010 C 
HETATM   21  C9  UNL     1      -5.205   0.946   1.002  1.00  0.00     0.010 C 
ENDBRANCH  18  19
ENDBRANCH  15  18
ENDBRANCH   1  14
TORSDOF 5
