REMARK  12 active torsions:
REMARK  status: ('A' for Active; 'I' for Inactive)
REMARK    1  A    between atoms: C4_4  and  C5_5 
REMARK    2  A    between atoms: C7_7  and  C8_8 
REMARK    3  A    between atoms: C8_8  and  O1_9 
REMARK    4  A    between atoms: C10_12  and  C11_13 
REMARK    5  A    between atoms: C11_13  and  C12_14 
REMARK    6  A    between atoms: C12_14  and  C13_15 
REMARK    7  A    between atoms: C15_17  and  C16_18 
REMARK    8  A    between atoms: C18_20  and  O2_21 
REMARK    9  A    between atoms: C19_23  and  C20_24 
REMARK   10  A    between atoms: C20_24  and  O4_26 
REMARK   11  A    between atoms: O4_26  and  C21_27 
REMARK   12  A    between atoms: C26_32  and  C27_33 
ROOT
HETATM    1  C16 UNL     1       1.432  -0.656   0.516  1.00  0.00    -0.068 C 
HETATM    2  C17 UNL     1       2.168  -1.663   1.373  1.00  0.00     0.071 C 
HETATM    3  C18 UNL     1       3.424  -1.001   1.957  1.00  0.00     0.161 C 
HETATM    4  C19 UNL     1       4.062  -0.145   0.933  1.00  0.00     0.043 C 
HETATM    5  C25 UNL     1       3.524   0.283  -0.170  1.00  0.00    -0.001 C 
HETATM    6  C26 UNL     1       2.134  -0.035  -0.586  1.00  0.00     0.045 C 
ENDROOT
BRANCH   1   7
HETATM    7  C15 UNL     1      -0.005  -0.843   0.437  1.00  0.00     0.018 C 
HETATM    8  C13 UNL     1      -0.813  -1.864   0.438  1.00  0.00    -0.021 C 
HETATM    9  C14 UNL     1      -0.188  -3.216   0.484  1.00  0.00     0.057 C 
BRANCH   8  10
HETATM   10  C12 UNL     1      -2.218  -1.687   0.349  1.00  0.00    -0.146 C 
BRANCH  10  11
HETATM   11  C11 UNL     1      -3.451  -1.532   0.270  1.00  0.00     0.117 C 
BRANCH  11  12
HETATM   12  C10 UNL     1      -4.183  -0.228   0.154  1.00  0.00     0.133 C 
HETATM   13  C9  UNL     1      -3.417   0.992   0.437  1.00  0.00     0.039 C 
HETATM   14  C7  UNL     1      -4.409   2.150   0.525  1.00  0.00     0.014 C 
HETATM   15  C6  UNL     1      -5.717   1.780  -0.143  1.00  0.00     0.042 C 
HETATM   16  C5  UNL     1      -6.296   0.558   0.534  1.00  0.00     0.145 C 
HETATM   17  O5  UNL     1      -5.277  -0.271   1.028  1.00  0.00    -0.376 OA
BRANCH  14  18
HETATM   18  C8  UNL     1      -3.821   3.385  -0.118  1.00  0.00     0.168 C 
BRANCH  18  19
HETATM   19  O1  UNL     1      -3.604   3.101  -1.447  1.00  0.00    -0.400 OA
ATOM     20  H1  UNL     1      -3.234   3.877  -1.851  1.00  0.00     0.209 HD
ENDBRANCH  18  19
ENDBRANCH  14  18
BRANCH  16  21
HETATM   21  C4  UNL     1      -7.112  -0.256  -0.398  1.00  0.00     0.007 C 
HETATM   22  C2  UNL     1      -8.339  -0.675  -0.157  1.00  0.00    -0.089 C 
HETATM   23  C1  UNL     1      -9.108  -0.404   1.085  1.00  0.00     0.042 C 
HETATM   24  C3  UNL     1      -9.059  -1.495  -1.199  1.00  0.00     0.042 C 
ENDBRANCH  16  21
ENDBRANCH  11  12
ENDBRANCH  10  11
ENDBRANCH   8  10
ENDBRANCH   1   7
BRANCH   6  25
HETATM   25  C27 UNL     1       2.191  -0.627  -1.935  1.00  0.00    -0.041 C 
HETATM   26  C28 UNL     1       2.801  -1.957  -2.120  1.00  0.00     0.015 C 
HETATM   27  C29 UNL     1       3.061   0.331  -2.778  1.00  0.00     0.015 C 
HETATM   28  C30 UNL     1       0.837  -0.631  -2.645  1.00  0.00     0.015 C 
ENDBRANCH   6  25
BRANCH   3  29
HETATM   29  O2  UNL     1       3.156  -0.329   3.140  1.00  0.00    -0.390 OA
ATOM     30  H2  UNL     1       3.933   0.081   3.501  1.00  0.00     0.210 HD
ENDBRANCH   3  29
BRANCH   4  31
HETATM   31  C20 UNL     1       5.472   0.215   1.220  1.00  0.00     0.292 C 
HETATM   32  O3  UNL     1       6.064  -0.152   2.264  1.00  0.00    -0.259 OA
BRANCH  31  33
HETATM   33  O4  UNL     1       6.228   0.984   0.349  1.00  0.00    -0.307 OA
BRANCH  33  34
HETATM   34  C21 UNL     1       7.552   1.336   0.583  1.00  0.00     0.060 C 
HETATM   35  C22 UNL     1       7.806   2.130   1.808  1.00  0.00     0.046 C 
HETATM   36  C23 UNL     1       8.003   2.194  -0.610  1.00  0.00     0.046 C 
HETATM   37  C24 UNL     1       8.511   0.152   0.583  1.00  0.00     0.046 C 
ENDBRANCH  33  34
ENDBRANCH  31  33
ENDBRANCH   4  31
TORSDOF 12
