REMARK  4 active torsions:
REMARK  status: ('A' for Active; 'I' for Inactive)
REMARK    1  A    between atoms: N1_1  and  N2_4 
REMARK    2  A    between atoms: N2_4  and  N3_5 
REMARK       I    between atoms: N3_5  and  C1_7 
REMARK    3  A    between atoms: C1_7  and  C2_9 
REMARK    4  A    between atoms: C4_14  and  N6_15 
ROOT
HETATM    1  C2  UNL     1      -0.310  -0.141   0.023  1.00  0.00     0.144 A 
HETATM    2  C3  UNL     1       0.612   0.913  -0.060  1.00  0.00     0.153 A 
HETATM    3  N4  UNL     1       0.210   2.276  -0.072  1.00  0.00    -0.081 NA
HETATM    4  N5  UNL     1       1.915   0.614  -0.129  1.00  0.00    -0.178 N 
ATOM      5  H5  UNL     1       2.583   1.383  -0.189  1.00  0.00     0.185 HD
HETATM    6  C4  UNL     1       2.390  -0.637  -0.124  1.00  0.00     0.680 A 
HETATM    7  N7  UNL     1       1.523  -1.659  -0.045  1.00  0.00    -0.155 N 
ATOM      8  H7  UNL     1       1.872  -2.617  -0.039  1.00  0.00     0.187 HD
HETATM    9  C5  UNL     1       0.174  -1.429   0.028  1.00  0.00     0.278 A 
HETATM   10  O2  UNL     1      -0.582  -2.427   0.099  1.00  0.00    -0.266 OA
ENDROOT
BRANCH   1  11
HETATM   11  C1  UNL     1      -1.707   0.189   0.096  1.00  0.00     0.290 C 
HETATM   12  N3  UNL     1      -2.808  -0.687   0.184  1.00  0.00    -0.179 N 
ATOM     13  H3  UNL     1      -2.654  -1.695   0.201  1.00  0.00     0.207 HD
HETATM   14  O1  UNL     1      -2.008   1.437   0.081  1.00  0.00    -0.265 OA
BRANCH  12  15
HETATM   15  N2  UNL     1      -4.101  -0.185   0.248  1.00  0.00    -0.241 NA
BRANCH  15  16
HETATM   16  N1  UNL     1      -5.136   0.239   0.296  1.00  0.00    -0.260 N 
ATOM     17  H12 UNL     1      -4.198   0.608   0.143  1.00  0.00     0.193 HD
ATOM     18  H11 UNL     1      -6.086   0.608   0.343  1.00  0.00     0.193 HD
ENDBRANCH  15  16
ENDBRANCH  12  15
ENDBRANCH   1  11
BRANCH   6  19
HETATM   19  N6  UNL     1       3.659  -0.885  -0.192  1.00  0.00    -0.234 N 
ATOM     20  H62 UNL     1       4.318  -0.109  -0.252  1.00  0.00     0.174 HD
ATOM     21  H61 UNL     1       4.021  -1.839  -0.188  1.00  0.00     0.174 HD
ENDBRANCH   6  19
TORSDOF 4
