MODEL 1
REMARK VINA RESULT: -7.758393760      0.000      0.000
REMARK  13 active torsions:
REMARK  status: ('A' for Active; 'I' for Inactive)
REMARK    1  A    between atoms: C2_2  and  C3_3
REMARK    2  A    between atoms: C3_3  and  C4_4
REMARK    3  A    between atoms: C4_4  and  C5_5
REMARK    4  A    between atoms: C5_5  and  C6_6
REMARK    5  A    between atoms: C6_6  and  N1_7
REMARK       I    between atoms: N1_7  and  C7_8
REMARK    6  A    between atoms: C7_8  and  C8_10
REMARK    7  A    between atoms: C13_15  and  C14_16
REMARK       I    between atoms: C14_16  and  N2_18
REMARK    8  A    between atoms: C17_21  and  N3_22
REMARK       I    between atoms: N3_22  and  C18_24
REMARK    9  A    between atoms: C18_24  and  C19_26
REMARK   10  A    between atoms: C19_26  and  C21_28
REMARK   11  A    between atoms: C21_28  and  C22_29
REMARK   12  A    between atoms: C22_29  and  C23_30
REMARK   13  A    between atoms: C23_30  and  N4_31
ROOT
HETATM    1  C14 UNL     1      11.083   7.389  26.051  1.00  0.00     0.240 C
HETATM    2  O2  UNL     1      12.030   8.159  26.397  1.00  0.00    -0.272 OA
HETATM    3  N2  UNL     1      10.730   7.292  24.687  1.00  0.00    -0.263 N
HETATM    4  C15 UNL     1       9.687   6.444  24.079  1.00  0.00     0.151 C
HETATM    5  C16 UNL     1       9.166   7.468  23.054  1.00  0.00     0.066 C
HETATM    6  C17 UNL     1      10.558   7.850  22.471  1.00  0.00     0.200 C
HETATM    7  N7  UNL     1      11.328   8.035  23.645  1.00  0.00    -0.111 NA
ENDROOT
BRANCH   1   8
HETATM    8  C13 UNL     1      10.319   6.578  27.018  1.00  0.00     0.093 C
HETATM    9  C8  UNL     1      11.057   5.426  27.616  1.00  0.00     0.106 C
HETATM   10  C9  UNL     1      10.075   4.571  28.381  1.00  0.00     0.016 C
HETATM   11  C10 UNL     1       8.733   5.259  28.565  1.00  0.00     0.001 C
HETATM   12  C11 UNL     1       8.825   6.706  28.915  1.00  0.00     0.001 C
HETATM   13  C12 UNL     1       9.915   7.451  28.218  1.00  0.00     0.015 C
BRANCH   9  14
HETATM   14  C7  UNL     1      11.776   4.577  26.598  1.00  0.00     0.295 C
HETATM   15  N1  UNL     1      11.101   3.694  25.808  1.00  0.00    -0.387 NA
HETATM   16  O1  UNL     1      13.024   4.818  26.602  1.00  0.00    -0.257 OA
BRANCH  15  17
HETATM   17  C6  UNL     1      10.423   2.807  25.016  1.00  0.00     0.159 C
BRANCH  17  18
HETATM   18  C5  UNL     1      10.627   2.860  23.522  1.00  0.00     0.059 C
BRANCH  18  19
HETATM   19  C4  UNL     1      10.919   1.539  22.901  1.00  0.00     0.006 C
BRANCH  19  20
HETATM   20  C3  UNL     1      12.305   1.483  22.321  1.00  0.00     0.000 C
BRANCH  20  21
HETATM   21  C2  UNL     1      12.364   0.684  21.038  1.00  0.00    -0.005 C
HETATM   22  C1  UNL     1      12.781  -0.748  21.337  1.00  0.00     0.005 C
ENDBRANCH  20  21
ENDBRANCH  19  20
ENDBRANCH  18  19
ENDBRANCH  17  18
ENDBRANCH  15  17
ENDBRANCH   9  14
ENDBRANCH   1   8
BRANCH   6  23
HETATM   23  N3  UNL     1      10.418   8.987  21.604  1.00  0.00    -0.341 N
HETATM   24  C18 UNL     1      10.511   8.940  20.222  1.00  0.00     0.222 C
HETATM   25  O3  UNL     1      10.733   7.821  19.645  1.00  0.00    -0.273 OA
ATOM     26  H3  UNL     1      10.237   9.893  22.036  1.00  0.00     0.164 HD
BRANCH  24  27
HETATM   27  C19 UNL     1      10.380  10.119  19.283  1.00  0.00     0.074 C
HETATM   28  C20 UNL     1       8.947  10.519  19.181  1.00  0.00     0.020 C
BRANCH  27  29
HETATM   29  C21 UNL     1      11.336  11.188  19.684  1.00  0.00     0.015 C
BRANCH  29  30
HETATM   30  C22 UNL     1      12.788  10.967  19.590  1.00  0.00     0.020 C
BRANCH  30  31
HETATM   31  C23 UNL     1      13.532  10.430  20.763  1.00  0.00     0.122 C
BRANCH  31  32
HETATM   32  N4  UNL     1      14.982  10.438  20.463  1.00  0.00    -0.367 N
HETATM   33  C24 UNL     1      15.873  10.067  21.278  1.00  0.00     0.196 C
HETATM   34  N5  UNL     1      17.254  10.103  20.919  1.00  0.00    -0.067 NA
HETATM   35  N6  UNL     1      15.548   9.602  22.579  1.00  0.00    -0.067 NA
ATOM     36  H4  UNL     1      15.280  10.763  19.543  1.00  0.00     0.161 HD
ENDBRANCH  31  32
ENDBRANCH  30  31
ENDBRANCH  29  30
ENDBRANCH  27  29
ENDBRANCH  24  27
ENDBRANCH   6  23
TORSDOF 13
ENDMDL