MODEL 1
REMARK VINA RESULT: -6.981451380      0.000      0.000
REMARK  17 active torsions:
REMARK  status: ('A' for Active; 'I' for Inactive)
REMARK    1  A    between atoms: C2_2  and  C3_3
REMARK    2  A    between atoms: C3_3  and  C4_4
REMARK    3  A    between atoms: C4_4  and  C5_5
REMARK    4  A    between atoms: C4_4  and  N3_14
REMARK    5  A    between atoms: C5_5  and  N1_6
REMARK    6  A    between atoms: N1_6  and  C6_8
REMARK    7  A    between atoms: C6_8  and  N2_10
REMARK    8  A    between atoms: N2_10  and  C7_12
REMARK    9  A    between atoms: N3_14  and  C9_16
REMARK   10  A    between atoms: C9_16  and  C10_17
REMARK   11  A    between atoms: C9_16  and  C14_21
REMARK   12  A    between atoms: C10_17  and  C11_18
REMARK   13  A    between atoms: C14_21  and  N4_22
REMARK   14  A    between atoms: C14_21  and  C15_26
REMARK   15  A    between atoms: C15_26  and  C16_27
REMARK       I    between atoms: C16_27  and  N5_29
REMARK   16  A    between atoms: N5_29  and  S2_31
REMARK   17  A    between atoms: S2_31  and  N6_34
ROOT
HETATM    1  C9  UNL     1       9.581   6.079  27.443  1.00  0.00     0.112 C
ENDROOT
BRANCH   1   2
HETATM    2  N3  UNL     1      10.175   4.812  27.387  1.00  0.00    -0.388 N
ATOM      3  H3  UNL     1      11.191   4.764  27.307  1.00  0.00     0.159 HD
BRANCH   2   4
HETATM    4  C4  UNL     1       9.462   3.612  27.434  1.00  0.00     0.000 C
BRANCH   4   5
HETATM    5  C3  UNL     1       8.939   3.096  28.721  1.00  0.00     0.053 C
BRANCH   5   6
HETATM    6  C2  UNL     1       8.674   1.636  28.865  1.00  0.00     0.001 C
HETATM    7  C1  UNL     1       7.838   1.359  30.122  1.00  0.00     0.005 C
ENDBRANCH   5   6
ENDBRANCH   4   5
BRANCH   4   8
HETATM    8  C5  UNL     1       9.992   2.557  26.509  1.00  0.00     0.174 C
BRANCH   8   9
HETATM    9  N1  UNL     1      11.130   2.907  25.737  1.00  0.00    -0.362 N
ATOM     10  H1  UNL     1      12.021   3.039  26.218  1.00  0.00     0.162 HD
BRANCH   9  11
HETATM   11  C6  UNL     1      11.090   3.081  24.330  1.00  0.00     0.167 C
HETATM   12  S1  UNL     1      10.077   4.159  23.623  1.00  0.00    -0.041 SA
BRANCH  11  13
HETATM   13  N2  UNL     1      11.932   2.317  23.489  1.00  0.00    -0.368 N
ATOM     14  H2  UNL     1      12.941   2.462  23.542  1.00  0.00     0.161 HD
BRANCH  13  15
HETATM   15  C7  UNL     1      11.419   1.340  22.558  1.00  0.00     0.117 C
HETATM   16  C8  UNL     1      12.481   0.919  21.555  1.00  0.00     0.026 C
ENDBRANCH  13  15
ENDBRANCH  11  13
ENDBRANCH   9  11
ENDBRANCH   8   9
ENDBRANCH   4   8
ENDBRANCH   2   4
ENDBRANCH   1   2
BRANCH   1  17
HETATM   17  C10 UNL     1       9.044   6.487  28.740  1.00  0.00     0.031 C
BRANCH  17  18
HETATM   18  C11 UNL     1       9.476   7.881  29.185  1.00  0.00    -0.013 A
HETATM   19  C12 UNL     1       8.514   8.598  30.122  1.00  0.00     0.005 A
HETATM   20  C13 UNL     1       9.728   7.996  30.674  1.00  0.00     0.005 A
ENDBRANCH  17  18
ENDBRANCH   1  17
BRANCH   1  21
HETATM   21  C14 UNL     1      10.432   7.135  26.746  1.00  0.00     0.214 C
BRANCH  21  22
HETATM   22  N4  UNL     1       9.636   7.829  25.786  1.00  0.00    -0.073 N
ATOM     23  H43 UNL     1      10.158   8.567  25.313  1.00  0.00     0.274 HD
ATOM     24  H42 UNL     1       9.426   7.253  24.971  1.00  0.00     0.274 HD
ATOM     25  H41 UNL     1       8.792   8.182  26.236  1.00  0.00     0.274 HD
ENDBRANCH  21  22
BRANCH  21  26
HETATM   26  C15 UNL     1      11.686   6.610  26.143  1.00  0.00     0.138 C
BRANCH  26  27
HETATM   27  C16 UNL     1      12.670   7.710  25.973  1.00  0.00     0.234 C
HETATM   28  O1  UNL     1      12.259   8.828  25.577  1.00  0.00    -0.273 OA
HETATM   29  N5  UNL     1      14.064   7.588  26.226  1.00  0.00    -0.237 N
ATOM     30  H5  UNL     1      14.433   6.694  26.552  1.00  0.00     0.183 HD
BRANCH  29  31
HETATM   31  S2  UNL     1      15.149   8.911  25.998  1.00  0.00     0.323 S
HETATM   32  O2  UNL     1      16.548   8.316  25.849  1.00  0.00    -0.182 OA
HETATM   33  O3  UNL     1      14.867   9.533  24.637  1.00  0.00    -0.182 OA
BRANCH  31  34
HETATM   34  N6  UNL     1      15.181  10.071  27.163  1.00  0.00    -0.294 N
HETATM   35  C17 UNL     1      15.492   9.852  28.490  1.00  0.00     0.137 C
HETATM   36  C18 UNL     1      16.079  11.218  28.915  1.00  0.00     0.022 C
HETATM   37  C19 UNL     1      15.694  12.191  27.833  1.00  0.00     0.022 C
HETATM   38  C20 UNL     1      14.735  11.374  26.961  1.00  0.00     0.137 C
ENDBRANCH  31  34
ENDBRANCH  29  31
ENDBRANCH  26  27
ENDBRANCH  21  26
ENDBRANCH   1  21
TORSDOF 17
ENDMDL