MODEL 3
REMARK VINA RESULT: -6.696997403      3.439      7.695
REMARK  16 active torsions:
REMARK  status: ('A' for Active; 'I' for Inactive)
REMARK    1  A    between atoms: N1_2  and  C2_3
REMARK    2  A    between atoms: N1_2  and  C11_22
REMARK    3  A    between atoms: C2_3  and  N2_5
REMARK    4  A    between atoms: N2_5  and  C3_7
REMARK    5  A    between atoms: C3_7  and  C4_8
REMARK    6  A    between atoms: C4_8  and  C5_9
REMARK    7  A    between atoms: C5_9  and  C6_10
REMARK       I    between atoms: C6_10  and  N3_12
REMARK    8  A    between atoms: N3_12  and  C7_14
REMARK    9  A    between atoms: C7_14  and  C8_15
REMARK   10  A    between atoms: C8_15  and  C9_16
REMARK   11  A    between atoms: C9_16  and  C10_17
REMARK   12  A    between atoms: C10_17  and  N4_18
REMARK   13  A    between atoms: C11_22  and  C12_23
REMARK   14  A    between atoms: C11_22  and  C19_30
REMARK   15  A    between atoms: C12_23  and  C13_24
REMARK       I    between atoms: C19_30  and  N5_32
REMARK   16  A    between atoms: N5_32  and  C20_34
ROOT
HETATM    1  C1  UNL     1      11.659   7.436  26.383  1.00  0.00     0.159 C
HETATM    2  N1  UNL     1      10.407   6.705  26.585  1.00  0.00    -0.324 N
ENDROOT
BRANCH   2   3
HETATM    3  C2  UNL     1      10.101   6.279  27.877  1.00  0.00     0.174 C
HETATM    4  S1  UNL     1      10.117   7.408  29.146  1.00  0.00    -0.041 SA
BRANCH   3   5
HETATM    5  N2  UNL     1       9.731   5.003  28.340  1.00  0.00    -0.367 N
ATOM      6  H2  UNL     1      10.515   4.403  28.597  1.00  0.00     0.161 HD
BRANCH   5   7
HETATM    7  C3  UNL     1       8.439   4.399  28.513  1.00  0.00     0.122 C
BRANCH   7   8
HETATM    8  C4  UNL     1       8.519   2.890  28.306  1.00  0.00     0.029 C
BRANCH   8   9
HETATM    9  C5  UNL     1       9.887   2.458  27.940  1.00  0.00     0.105 C
BRANCH   9  10
HETATM   10  C6  UNL     1       9.989   1.626  26.736  1.00  0.00     0.221 C
HETATM   11  O1  UNL     1       9.584   0.452  26.707  1.00  0.00    -0.273 OA
HETATM   12  N3  UNL     1      10.588   2.184  25.526  1.00  0.00    -0.341 N
ATOM     13  H3  UNL     1      10.933   3.143  25.495  1.00  0.00     0.167 HD
BRANCH  12  14
HETATM   14  C7  UNL     1      10.665   1.336  24.405  1.00  0.00     0.064 C
BRANCH  14  15
HETATM   15  C8  UNL     1      10.910   1.870  23.065  1.00  0.00     0.046 C
BRANCH  15  16
HETATM   16  C9  UNL     1      12.155   1.501  22.366  1.00  0.00     0.032 C
BRANCH  16  17
HETATM   17  C10 UNL     1      12.081   0.560  21.209  1.00  0.00     0.230 C
BRANCH  17  18
HETATM   18  N4  UNL     1      12.453  -0.795  21.574  1.00  0.00    -0.079 N
ATOM     19  H43 UNL     1      11.796  -1.473  21.189  1.00  0.00     0.274 HD
ATOM     20  H42 UNL     1      13.297  -1.089  21.084  1.00  0.00     0.274 HD
ATOM     21  H41 UNL     1      12.553  -0.913  22.583  1.00  0.00     0.274 HD
ENDBRANCH  17  18
ENDBRANCH  16  17
ENDBRANCH  15  16
ENDBRANCH  14  15
ENDBRANCH  12  14
ENDBRANCH   9  10
ENDBRANCH   8   9
ENDBRANCH   7   8
ENDBRANCH   5   7
ENDBRANCH   3   5
ENDBRANCH   2   3
BRANCH   2  22
HETATM   22  C11 UNL     1       9.610   6.474  25.432  1.00  0.00     0.101 C
BRANCH  22  23
HETATM   23  C12 UNL     1       8.153   6.583  25.558  1.00  0.00     0.013 C
BRANCH  23  24
HETATM   24  C13 UNL     1       7.211   5.592  25.036  1.00  0.00     0.010 C
HETATM   25  C14 UNL     1       6.063   5.141  25.836  1.00  0.00     0.008 C
HETATM   26  C15 UNL     1       4.767   5.895  25.643  1.00  0.00     0.001 C
HETATM   27  C16 UNL     1       4.452   6.238  24.226  1.00  0.00     0.000 C
HETATM   28  C17 UNL     1       5.645   7.071  23.730  1.00  0.00     0.001 C
HETATM   29  C18 UNL     1       6.783   6.104  23.637  1.00  0.00     0.008 C
ENDBRANCH  23  24
ENDBRANCH  22  23
BRANCH  22  30
HETATM   30  C19 UNL     1      10.203   6.645  24.102  1.00  0.00     0.268 C
HETATM   31  O2  UNL     1      10.946   5.736  23.585  1.00  0.00    -0.266 OA
HETATM   32  N5  UNL     1      10.032   7.777  23.266  1.00  0.00    -0.342 N
ATOM     33  H5  UNL     1       9.456   8.551  23.597  1.00  0.00     0.163 HD
BRANCH  32  34
HETATM   34  C20 UNL     1      10.650   7.873  21.946  1.00  0.00     0.178 C
HETATM   35  C21 UNL     1       9.625   8.247  20.901  1.00  0.00     0.054 C
HETATM   36  C22 UNL     1       9.590   9.759  20.939  1.00  0.00     0.125 C
HETATM   37  N6  UNL     1      10.976  10.105  21.232  1.00  0.00    -0.359 N
HETATM   38  C23 UNL     1      11.567   9.033  21.952  1.00  0.00     0.240 C
ATOM     39  H6  UNL     1      11.444  10.971  20.965  1.00  0.00     0.162 HD
HETATM   40  O3  UNL     1      12.695   9.115  22.488  1.00  0.00    -0.271 OA
ENDBRANCH  32  34
ENDBRANCH  22  30
ENDBRANCH   2  22
TORSDOF 16
ENDMDL