MODEL 5
REMARK VINA RESULT: -7.081083026      4.633      8.535
REMARK  14 active torsions:
REMARK  status: ('A' for Active; 'I' for Inactive)
REMARK    1  A    between atoms: C2_2  and  N1_3
REMARK    2  A    between atoms: N1_3  and  C3_4
REMARK       I    between atoms: N1_3  and  C5_6
REMARK    3  A    between atoms: C5_6  and  C6_8
REMARK    4  A    between atoms: C6_8  and  C7_9
REMARK    5  A    between atoms: C6_8  and  N5_20
REMARK    6  A    between atoms: C7_9  and  C8_10
REMARK    7  A    between atoms: C8_10  and  C9_11
REMARK    8  A    between atoms: C9_11  and  C10_12
REMARK    9  A    between atoms: C10_12  and  N2_13
REMARK       I    between atoms: N2_13  and  C11_15
REMARK       I    between atoms: N5_20  and  C12_22
REMARK   10  A    between atoms: C12_22  and  C13_24
REMARK   11  A    between atoms: C19_30  and  C20_31
REMARK   12  A    between atoms: C20_31  and  N6_32
REMARK   13  A    between atoms: N6_32  and  O3_33
REMARK   14  A    between atoms: N6_32  and  C21_35
ROOT
HETATM    1  N5  UNL     1      11.627   9.058  23.140  1.00  0.00    -0.347 N
ATOM      2  H5  UNL     1      11.408   9.015  24.135  1.00  0.00     0.163 HD
HETATM    3  C12 UNL     1      11.105   8.069  22.291  1.00  0.00     0.222 C
HETATM    4  O2  UNL     1      11.362   8.099  21.033  1.00  0.00    -0.273 OA
ENDROOT
BRANCH   1   5
HETATM    5  C6  UNL     1      12.471  10.149  22.652  1.00  0.00     0.176 C
BRANCH   5   6
HETATM    6  C5  UNL     1      11.617  11.356  22.675  1.00  0.00     0.242 C
HETATM    7  N1  UNL     1      11.120  12.005  21.538  1.00  0.00    -0.351 N
HETATM    8  O1  UNL     1      11.328  11.814  23.819  1.00  0.00    -0.271 OA
BRANCH   7   9
HETATM    9  C2  UNL     1      10.324  13.231  21.716  1.00  0.00     0.121 C
HETATM   10  C1  UNL     1      10.180  13.945  20.375  1.00  0.00     0.026 C
ENDBRANCH   7   9
BRANCH   7  11
HETATM   11  C3  UNL     1      11.336  11.488  20.232  1.00  0.00     0.121 C
HETATM   12  C4  UNL     1      10.169  10.673  19.712  1.00  0.00     0.026 C
ENDBRANCH   7  11
ENDBRANCH   5   6
BRANCH   5  13
HETATM   13  C7  UNL     1      13.546  10.298  23.729  1.00  0.00     0.035 C
BRANCH  13  14
HETATM   14  C8  UNL     1      14.859   9.713  23.362  1.00  0.00     0.004 C
BRANCH  14  15
HETATM   15  C9  UNL     1      15.476   8.985  24.524  1.00  0.00     0.020 C
BRANCH  15  16
HETATM   16  C10 UNL     1      14.571   8.968  25.720  1.00  0.00     0.122 C
BRANCH  16  17
HETATM   17  N2  UNL     1      15.337   9.028  26.936  1.00  0.00    -0.365 N
HETATM   18  C11 UNL     1      15.382  10.200  27.726  1.00  0.00     0.181 C
HETATM   19  N3  UNL     1      15.866  10.156  28.939  1.00  0.00    -0.374 N
HETATM   20  N4  UNL     1      14.926  11.471  27.281  1.00  0.00    -0.064 NA
ATOM     21  H32 UNL     1      16.192   9.244  29.258  1.00  0.00     0.158 HD
ATOM     22  H31 UNL     1      15.898  11.001  29.509  1.00  0.00     0.158 HD
ATOM     23  H2  UNL     1      15.860   8.205  27.236  1.00  0.00     0.162 HD
ENDBRANCH  16  17
ENDBRANCH  15  16
ENDBRANCH  14  15
ENDBRANCH  13  14
ENDBRANCH   5  13
ENDBRANCH   1   5
BRANCH   3  24
HETATM   24  C13 UNL     1      10.253   6.960  22.766  1.00  0.00     0.080 C
HETATM   25  C14 UNL     1       8.862   7.416  23.159  1.00  0.00     0.017 C
HETATM   26  C15 UNL     1       8.463   6.628  24.384  1.00  0.00     0.042 C
HETATM   27  C16 UNL     1       9.623   5.717  24.734  1.00  0.00     0.161 C
HETATM   28  C17 UNL     1       9.302   4.348  24.218  1.00  0.00     0.044 C
HETATM   29  N7  UNL     1       9.785   5.699  26.143  1.00  0.00     0.100 N
HETATM   30  C23 UNL     1      10.824   6.303  24.009  1.00  0.00     0.055 C
HETATM   31  C18 UNL     1       9.770   3.475  25.413  1.00  0.00     0.040 C
HETATM   32  C19 UNL     1       9.432   4.385  26.576  1.00  0.00     0.243 C
HETATM   33  C22 UNL     1      11.043   6.175  26.626  1.00  0.00     0.311 C
BRANCH  32  34
HETATM   34  C20 UNL     1       9.972   3.957  27.890  1.00  0.00     0.194 C
BRANCH  34  35
HETATM   35  N6  UNL     1       8.999   3.159  28.588  1.00  0.00    -0.234 N
BRANCH  35  36
HETATM   36  O3  UNL     1       7.984   3.821  29.189  1.00  0.00    -0.285 OA
ATOM     37  H3  UNL     1       7.482   3.339  29.836  1.00  0.00     0.245 HD
ENDBRANCH  35  36
BRANCH  35  38
HETATM   38  C21 UNL     1       9.092   1.760  28.644  1.00  0.00     0.376 C
HETATM   39  O4  UNL     1       8.909   0.973  27.677  1.00  0.00    -0.281 OA
ENDBRANCH  35  38
ENDBRANCH  34  35
ENDBRANCH  32  34
ENDBRANCH   3  24
TORSDOF 14
ENDMDL