MODEL 2
REMARK VINA RESULT: -7.556364347      2.961      3.973
REMARK  14 active torsions:
REMARK  status: ('A' for Active; 'I' for Inactive)
REMARK    1  A    between atoms: C3_5  and  N2_6
REMARK    2  A    between atoms: C6_9  and  N3_10
REMARK       I    between atoms: N3_10  and  C7_12
REMARK    3  A    between atoms: C7_12  and  C8_14
REMARK    4  A    between atoms: C8_14  and  N4_16
REMARK    5  A    between atoms: N6_24  and  C13_25
REMARK    6  A    between atoms: C13_25  and  C14_26
REMARK    7  A    between atoms: C14_26  and  C15_27
REMARK    8  A    between atoms: C15_27  and  C16_28
REMARK    9  A    between atoms: C16_28  and  C17_29
REMARK   10  A    between atoms: C17_29  and  C18_30
REMARK   11  A    between atoms: C18_30  and  C19_31
REMARK   12  A    between atoms: C19_31  and  C20_32
REMARK   13  A    between atoms: C20_32  and  C21_33
REMARK   14  A    between atoms: C21_33  and  C22_34
REMARK       I    between atoms: C22_34  and  N7_36
ROOT
HETATM    1  C1  UNL     1      10.742   7.252  28.715  1.00  0.00     0.089 C
HETATM    2  C2  UNL     1      10.987   7.293  27.265  1.00  0.00     0.082 A
HETATM    3  N1  UNL     1      12.048   7.983  26.788  1.00  0.00    -0.332 N
ATOM      4  H1  UNL     1      12.650   8.456  27.461  1.00  0.00     0.168 HD
HETATM    5  C3  UNL     1      12.356   8.084  25.487  1.00  0.00     0.107 A
HETATM    6  C11 UNL     1      11.503   7.423  24.634  1.00  0.00     0.093 A
HETATM    7  C12 UNL     1      10.403   6.709  25.134  1.00  0.00     0.123 A
HETATM    8  N5  UNL     1       9.563   6.049  24.207  1.00  0.00    -0.082 NA
HETATM    9  N6  UNL     1      10.131   6.633  26.441  1.00  0.00    -0.325 N
ENDROOT
BRANCH   9  10
HETATM   10  C13 UNL     1       9.015   5.889  26.994  1.00  0.00     0.131 C
BRANCH  10  11
HETATM   11  C14 UNL     1       9.147   4.414  26.905  1.00  0.00     0.020 C
BRANCH  11  12
HETATM   12  C15 UNL     1       9.293   3.828  28.274  1.00  0.00     0.002 C
BRANCH  12  13
HETATM   13  C16 UNL     1       9.747   2.400  28.216  1.00  0.00     0.000 C
BRANCH  13  14
HETATM   14  C17 UNL     1       8.844   1.539  29.046  1.00  0.00     0.000 C
BRANCH  14  15
HETATM   15  C18 UNL     1       7.562   2.266  29.364  1.00  0.00     0.000 C
BRANCH  15  16
HETATM   16  C19 UNL     1       7.099   1.930  30.737  1.00  0.00     0.000 C
BRANCH  16  17
HETATM   17  C20 UNL     1       6.770   3.167  31.551  1.00  0.00     0.009 C
BRANCH  17  18
HETATM   18  C21 UNL     1       6.650   4.413  30.760  1.00  0.00     0.103 C
BRANCH  18  19
HETATM   19  C22 UNL     1       6.076   5.573  31.464  1.00  0.00     0.223 C
HETATM   20  O2  UNL     1       6.496   6.746  31.301  1.00  0.00    -0.273 OA
HETATM   21  N7  UNL     1       4.989   5.425  32.387  1.00  0.00    -0.304 N
HETATM   22  C23 UNL     1       3.780   5.463  31.973  1.00  0.00     0.203 C
ATOM     23  H7  UNL     1       5.181   5.290  33.379  1.00  0.00     0.171 HD
HETATM   24  N8  UNL     1       3.515   5.651  30.601  1.00  0.00    -0.066 NA
HETATM   25  N9  UNL     1       2.710   5.309  32.899  1.00  0.00    -0.066 NA
ENDBRANCH  18  19
ENDBRANCH  17  18
ENDBRANCH  16  17
ENDBRANCH  15  16
ENDBRANCH  14  15
ENDBRANCH  13  14
ENDBRANCH  12  13
ENDBRANCH  11  12
ENDBRANCH  10  11
ENDBRANCH   9  10
BRANCH   5  26
HETATM   26  N2  UNL     1      13.480   8.848  25.043  1.00  0.00    -0.365 N
HETATM   27  C4  UNL     1      14.764   8.935  25.706  1.00  0.00     0.126 C
HETATM   28  C5  UNL     1      15.704   9.563  24.711  1.00  0.00     0.046 C
HETATM   29  C6  UNL     1      14.978   9.417  23.374  1.00  0.00     0.104 C
HETATM   30  C10 UNL     1      13.561   9.656  23.840  1.00  0.00     0.149 C
BRANCH  29  31
HETATM   31  N3  UNL     1      15.383  10.501  22.528  1.00  0.00    -0.353 N
HETATM   32  C7  UNL     1      16.314  10.333  21.467  1.00  0.00     0.248 C
HETATM   33  O1  UNL     1      16.789   9.178  21.287  1.00  0.00    -0.271 OA
ATOM     34  H3  UNL     1      14.990  11.427  22.694  1.00  0.00     0.163 HD
BRANCH  32  35
HETATM   35  C8  UNL     1      16.666  11.513  20.641  1.00  0.00     0.270 C
HETATM   36  C9  UNL     1      17.916  11.117  19.842  1.00  0.00     0.050 C
BRANCH  35  37
HETATM   37  N4  UNL     1      17.057  12.558  21.578  1.00  0.00    -0.067 N
ATOM     38  H43 UNL     1      16.527  13.423  21.469  1.00  0.00     0.275 HD
ATOM     39  H42 UNL     1      16.781  12.365  22.541  1.00  0.00     0.275 HD
ATOM     40  H41 UNL     1      18.064  12.681  21.461  1.00  0.00     0.275 HD
ENDBRANCH  35  37
ENDBRANCH  32  35
ENDBRANCH  29  31
ENDBRANCH   5  26
TORSDOF 14
ENDMDL