MODEL 4
REMARK VINA RESULT: -7.104300301      2.960      6.375
REMARK  15 active torsions:
REMARK  status: ('A' for Active; 'I' for Inactive)
REMARK    1  A    between atoms: N1_1  and  C1_5
REMARK    2  A    between atoms: C1_5  and  C2_6
REMARK    3  A    between atoms: C2_6  and  C3_7
REMARK    4  A    between atoms: C3_7  and  C4_8
REMARK    5  A    between atoms: C4_8  and  C5_9
REMARK    6  A    between atoms: C4_8  and  N8_36
REMARK       I    between atoms: C5_9  and  N2_11
REMARK    7  A    between atoms: N2_11  and  C6_13
REMARK    8  A    between atoms: C6_13  and  C7_14
REMARK    9  A    between atoms: C6_13  and  C12_23
REMARK   10  A    between atoms: C7_14  and  C8_15
REMARK   11  A    between atoms: C8_15  and  C9_16
REMARK   12  A    between atoms: C9_16  and  C10_17
REMARK   13  A    between atoms: C10_17  and  N3_18
REMARK       I    between atoms: C12_23  and  N6_25
REMARK   14  A    between atoms: C15_28  and  C16_29
REMARK   15  A    between atoms: C16_29  and  N7_30
ROOT
HETATM    1  C6  UNL     1      11.078   8.443  23.720  1.00  0.00     0.176 C
ENDROOT
BRANCH   1   2
HETATM    2  N2  UNL     1      10.987   7.080  24.140  1.00  0.00    -0.346 N
HETATM    3  C5  UNL     1       9.818   6.369  24.446  1.00  0.00     0.252 C
HETATM    4  O1  UNL     1       8.717   7.000  24.340  1.00  0.00    -0.271 OA
ATOM      5  H2  UNL     1      11.866   6.570  24.226  1.00  0.00     0.163 HD
BRANCH   3   6
HETATM    6  C4  UNL     1       9.800   4.947  24.877  1.00  0.00     0.314 C
BRANCH   6   7
HETATM    7  C3  UNL     1      10.921   4.233  24.251  1.00  0.00     0.047 C
BRANCH   7   8
HETATM    8  C2  UNL     1      10.665   3.001  23.469  1.00  0.00     0.030 C
BRANCH   8   9
HETATM    9  C1  UNL     1      10.931   1.825  24.440  1.00  0.00     0.230 C
BRANCH   9  10
HETATM   10  N1  UNL     1      10.207   0.659  24.028  1.00  0.00    -0.079 N
ATOM     11  H13 UNL     1       9.468   0.419  24.689  1.00  0.00     0.274 HD
ATOM     12  H12 UNL     1       9.626   0.843  23.210  1.00  0.00     0.274 HD
ATOM     13  H11 UNL     1      10.845  -0.121  23.872  1.00  0.00     0.274 HD
ENDBRANCH   9  10
ENDBRANCH   8   9
ENDBRANCH   7   8
ENDBRANCH   6   7
BRANCH   6  14
HETATM   14  N8  UNL     1       9.601   4.865  26.277  1.00  0.00     0.102 N
HETATM   15  C19 UNL     1       8.699   3.828  26.725  1.00  0.00     0.273 C
HETATM   16  C20 UNL     1       7.623   4.409  27.651  1.00  0.00     0.030 C
HETATM   17  C21 UNL     1       8.251   4.923  28.930  1.00  0.00     0.002 C
HETATM   18  C22 UNL     1       9.194   6.014  28.556  1.00  0.00     0.002 C
HETATM   19  C23 UNL     1      10.604   5.601  28.312  1.00  0.00     0.030 C
HETATM   20  C24 UNL     1      10.834   4.829  27.042  1.00  0.00     0.273 C
ENDBRANCH   6  14
ENDBRANCH   3   6
ENDBRANCH   1   2
BRANCH   1  21
HETATM   21  C7  UNL     1      12.299   9.055  24.319  1.00  0.00     0.035 C
BRANCH  21  22
HETATM   22  C8  UNL     1      12.793   8.223  25.513  1.00  0.00     0.004 C
BRANCH  22  23
HETATM   23  C9  UNL     1      14.233   8.613  25.745  1.00  0.00     0.020 C
BRANCH  23  24
HETATM   24  C10 UNL     1      14.625   9.717  24.762  1.00  0.00     0.122 C
BRANCH  24  25
HETATM   25  N3  UNL     1      15.945   9.351  24.267  1.00  0.00    -0.367 N
HETATM   26  C11 UNL     1      16.122   9.354  22.994  1.00  0.00     0.196 C
HETATM   27  N4  UNL     1      15.139   9.681  22.048  1.00  0.00    -0.067 NA
HETATM   28  N5  UNL     1      17.419   8.993  22.500  1.00  0.00    -0.067 NA
ATOM     29  H3  UNL     1      16.700   9.104  24.907  1.00  0.00     0.161 HD
ENDBRANCH  24  25
ENDBRANCH  23  24
ENDBRANCH  22  23
ENDBRANCH  21  22
ENDBRANCH   1  21
BRANCH   1  30
HETATM   30  C12 UNL     1      10.924   8.617  22.265  1.00  0.00     0.242 C
HETATM   31  O2  UNL     1      11.297   7.641  21.515  1.00  0.00    -0.271 OA
HETATM   32  N6  UNL     1      10.409   9.737  21.597  1.00  0.00    -0.350 N
HETATM   33  C13 UNL     1      10.337   9.742  20.150  1.00  0.00     0.126 C
HETATM   34  C18 UNL     1       9.913  10.924  22.253  1.00  0.00     0.126 C
HETATM   35  C14 UNL     1      10.534  11.133  19.609  1.00  0.00     0.026 C
HETATM   36  C15 UNL     1       9.457  12.071  20.076  1.00  0.00     0.014 C
HETATM   37  C17 UNL     1       8.833  11.536  21.346  1.00  0.00     0.026 C
BRANCH  36  38
HETATM   38  C16 UNL     1      10.057  13.460  20.289  1.00  0.00     0.234 C
BRANCH  38  39
HETATM   39  N7  UNL     1      11.368  13.456  19.668  1.00  0.00    -0.079 N
ATOM     40  H73 UNL     1      11.525  12.645  19.068  1.00  0.00     0.274 HD
ATOM     41  H72 UNL     1      11.472  14.171  18.948  1.00  0.00     0.274 HD
ATOM     42  H71 UNL     1      12.054  13.538  20.417  1.00  0.00     0.274 HD
ENDBRANCH  38  39
ENDBRANCH  36  38
ENDBRANCH   1  30
TORSDOF 15
ENDMDL