MODEL 4
REMARK VINA RESULT: -6.669591343      3.651      8.031
REMARK  16 active torsions:
REMARK  status: ('A' for Active; 'I' for Inactive)
REMARK    1  A    between atoms: C2_2  and  C3_3
REMARK    2  A    between atoms: C3_3  and  C4_4
REMARK    3  A    between atoms: C3_3  and  N1_6
REMARK    4  A    between atoms: N1_6  and  C5_8
REMARK    5  A    between atoms: C5_8  and  O2_9
REMARK    6  A    between atoms: C5_8  and  C6_11
REMARK    7  A    between atoms: C6_11  and  C8_13
REMARK    8  A    between atoms: C8_13  and  C9_14
REMARK    9  A    between atoms: C9_14  and  C10_15
REMARK   10  A    between atoms: C10_15  and  C11_16
REMARK   11  A    between atoms: C12_17  and  C13_18
REMARK   12  A    between atoms: C13_18  and  C14_19
REMARK   13  A    between atoms: C18_27  and  C19_28
REMARK   14  A    between atoms: C19_28  and  C20_29
REMARK   15  A    between atoms: C20_29  and  C21_30
REMARK   16  A    between atoms: C21_30  and  N3_31
ROOT
HETATM    1  C14 UNL     1       8.275   6.812  27.926  1.00  0.00     0.083 C
HETATM    2  S1  UNL     1       6.792   6.679  26.824  1.00  0.00    -0.160 SA
HETATM    3  C15 UNL     1       7.538   5.639  25.518  1.00  0.00     0.101 C
HETATM    4  C16 UNL     1       8.740   5.081  26.287  1.00  0.00     0.125 C
HETATM    5  N2  UNL     1       9.713   4.506  25.425  1.00  0.00    -0.352 N
ATOM      6  H2  UNL     1       9.419   4.035  24.569  1.00  0.00     0.163 HD
HETATM    7  C17 UNL     1      11.089   4.586  25.751  1.00  0.00     0.248 C
HETATM    8  O3  UNL     1      11.891   3.628  25.487  1.00  0.00    -0.271 OA
HETATM    9  C18 UNL     1      11.551   5.845  26.421  1.00  0.00     0.277 C
HETATM   10  N6  UNL     1      10.623   6.186  27.445  1.00  0.00    -0.055 N
ATOM     11  H61 UNL     1      10.915   7.028  27.941  1.00  0.00     0.278 HD
ATOM     12  H62 UNL     1      10.665   5.520  28.216  1.00  0.00     0.278 HD
HETATM   13  C23 UNL     1       9.304   6.314  26.952  1.00  0.00     0.224 C
ENDROOT
BRANCH   1  14
HETATM   14  C13 UNL     1       8.009   5.945  29.109  1.00  0.00     0.044 C
BRANCH  14  15
HETATM   15  C12 UNL     1       7.526   6.640  30.310  1.00  0.00    -0.029 C
HETATM   16  C11 UNL     1       6.691   6.125  31.153  1.00  0.00    -0.030 C
BRANCH  16  17
HETATM   17  C10 UNL     1       6.100   4.806  31.063  1.00  0.00     0.030 C
BRANCH  17  18
HETATM   18  C9  UNL     1       5.875   4.172  32.448  1.00  0.00     0.031 C
BRANCH  18  19
HETATM   19  C8  UNL     1       6.353   2.808  32.503  1.00  0.00    -0.015 C
BRANCH  19  20
HETATM   20  C6  UNL     1       6.209   1.759  31.757  1.00  0.00    -0.015 C
HETATM   21  C7  UNL     1       4.733   1.395  31.429  1.00  0.00     0.052 C
BRANCH  20  22
HETATM   22  C5  UNL     1       7.191   0.894  31.195  1.00  0.00     0.142 C
BRANCH  22  23
HETATM   23  N1  UNL     1       7.977   0.956  30.056  1.00  0.00    -0.357 N
ATOM     24  H1  UNL     1       8.514   0.143  29.754  1.00  0.00     0.162 HD
BRANCH  23  25
HETATM   25  C3  UNL     1       8.027   2.227  29.278  1.00  0.00     0.167 C
BRANCH  25  26
HETATM   26  C2  UNL     1       9.346   2.402  28.666  1.00  0.00    -0.005 C
HETATM   27  C1  UNL     1       9.727   1.694  27.613  1.00  0.00     0.009 C
ENDBRANCH  25  26
BRANCH  25  28
HETATM   28  C4  UNL     1       6.917   2.153  28.305  1.00  0.00     0.260 C
HETATM   29  O1  UNL     1       6.261   3.113  27.949  1.00  0.00    -0.304 OA
ENDBRANCH  25  28
ENDBRANCH  23  25
ENDBRANCH  22  23
BRANCH  22  30
HETATM   30  O2  UNL     1       7.403  -0.197  31.903  1.00  0.00    -0.346 OA
ATOM     31  H2  UNL     1       6.678  -0.408  32.481  1.00  0.00     0.219 HD
ENDBRANCH  22  30
ENDBRANCH  20  22
ENDBRANCH  19  20
ENDBRANCH  18  19
ENDBRANCH  17  18
ENDBRANCH  16  17
ENDBRANCH  14  15
ENDBRANCH   1  14
BRANCH   9  32
HETATM   32  C19 UNL     1      11.715   6.874  25.334  1.00  0.00     0.044 C
BRANCH  32  33
HETATM   33  C20 UNL     1      12.269   8.147  25.935  1.00  0.00     0.022 C
BRANCH  33  34
HETATM   34  C21 UNL     1      13.591   8.564  25.384  1.00  0.00     0.122 C
BRANCH  34  35
HETATM   35  N3  UNL     1      14.451   8.842  26.543  1.00  0.00    -0.367 N
HETATM   36  C22 UNL     1      15.730   8.823  26.381  1.00  0.00     0.196 C
HETATM   37  N4  UNL     1      16.563   9.089  27.491  1.00  0.00    -0.067 NA
HETATM   38  N5  UNL     1      16.329   8.540  25.103  1.00  0.00    -0.067 NA
ATOM     39  H3  UNL     1      14.044   9.045  27.456  1.00  0.00     0.161 HD
ENDBRANCH  34  35
ENDBRANCH  33  34
ENDBRANCH  32  33
ENDBRANCH   9  32
TORSDOF 16
ENDMDL