MODEL 5
REMARK VINA RESULT: -7.108679045      1.457      2.098
REMARK  16 active torsions:
REMARK  status: ('A' for Active; 'I' for Inactive)
REMARK    1  A    between atoms: C2_2  and  N1_3
REMARK    2  A    between atoms: N1_3  and  C3_5
REMARK    3  A    between atoms: C3_5  and  N2_7
REMARK    4  A    between atoms: C4_9  and  C5_10
REMARK    5  A    between atoms: C5_10  and  C6_11
REMARK    6  A    between atoms: N3_19  and  C13_20
REMARK    7  A    between atoms: C13_20  and  C14_21
REMARK    8  A    between atoms: C14_21  and  C15_22
REMARK    9  A    between atoms: C15_22  and  C16_23
REMARK   10  A    between atoms: C16_23  and  C17_24
REMARK   11  A    between atoms: C17_24  and  C18_25
REMARK   12  A    between atoms: C18_25  and  N4_26
REMARK       I    between atoms: N4_26  and  C19_28
REMARK   13  A    between atoms: N6_30  and  C20_32
REMARK   14  A    between atoms: C20_32  and  C21_33
REMARK   15  A    between atoms: C21_33  and  C22_34
REMARK   16  A    between atoms: C22_34  and  N7_35
ROOT
HETATM    1  C6  UNL     1       6.910   0.551  32.132  1.00  0.00    -0.052 A
HETATM    2  C7  UNL     1       6.377   1.712  32.651  1.00  0.00     0.008 A
HETATM    3  C8  UNL     1       6.466   2.920  31.995  1.00  0.00     0.018 A
HETATM    4  C9  UNL     1       7.111   3.013  30.756  1.00  0.00     0.048 A
HETATM    5  C10 UNL     1       7.637   1.853  30.250  1.00  0.00     0.048 A
HETATM    6  C11 UNL     1       7.547   0.637  30.912  1.00  0.00     0.025 A
HETATM    7  C12 UNL     1       8.247   2.242  28.948  1.00  0.00     0.262 A
HETATM    8  O1  UNL     1       8.818   1.383  28.239  1.00  0.00    -0.267 OA
HETATM    9  N3  UNL     1       8.059   3.599  28.737  1.00  0.00    -0.276 N
HETATM   10  C23 UNL     1       7.335   4.142  29.871  1.00  0.00     0.262 A
HETATM   11  O2  UNL     1       6.982   5.354  30.031  1.00  0.00    -0.267 OA
ENDROOT
BRANCH   9  12
HETATM   12  C13 UNL     1       8.437   4.458  27.619  1.00  0.00     0.163 C
BRANCH  12  13
HETATM   13  C14 UNL     1       9.852   4.859  27.653  1.00  0.00    -0.007 C
BRANCH  13  14
HETATM   14  C15 UNL     1      10.414   5.812  26.713  1.00  0.00    -0.006 C
BRANCH  14  15
HETATM   15  C16 UNL     1      11.295   5.414  25.598  1.00  0.00    -0.022 C
BRANCH  15  16
HETATM   16  C17 UNL     1      10.904   5.447  24.204  1.00  0.00     0.071 C
BRANCH  16  17
HETATM   17  C18 UNL     1      10.232   4.174  23.745  1.00  0.00     0.067 C
BRANCH  17  18
HETATM   18  N4  UNL     1      11.028   3.056  23.473  1.00  0.00    -0.344 N
HETATM   19  C19 UNL     1      10.930   1.727  23.948  1.00  0.00     0.187 C
HETATM   20  N5  UNL     1      10.653   1.430  25.298  1.00  0.00    -0.064 NA
HETATM   21  N6  UNL     1      11.106   0.700  23.165  1.00  0.00    -0.364 N
ATOM     22  H6  UNL     1      11.024  -0.235  23.565  1.00  0.00     0.162 HD
ATOM     23  H4  UNL     1      11.802   3.226  22.830  1.00  0.00     0.167 HD
BRANCH  21  24
HETATM   24  C20 UNL     1      11.409   0.820  21.774  1.00  0.00     0.124 C
BRANCH  24  25
HETATM   25  C21 UNL     1      12.779   0.285  21.405  1.00  0.00     0.047 C
BRANCH  25  26
HETATM   26  C22 UNL     1      12.715  -1.214  21.216  1.00  0.00     0.231 C
BRANCH  26  27
HETATM   27  N7  UNL     1      13.927  -1.866  21.631  1.00  0.00    -0.079 N
ATOM     28  H73 UNL     1      13.758  -2.495  22.416  1.00  0.00     0.274 HD
ATOM     29  H72 UNL     1      14.234  -2.549  20.939  1.00  0.00     0.274 HD
ATOM     30  H71 UNL     1      14.669  -1.200  21.847  1.00  0.00     0.274 HD
ENDBRANCH  26  27
ENDBRANCH  25  26
ENDBRANCH  24  25
ENDBRANCH  21  24
ENDBRANCH  17  18
ENDBRANCH  16  17
ENDBRANCH  15  16
ENDBRANCH  14  15
ENDBRANCH  13  14
ENDBRANCH  12  13
ENDBRANCH   9  12
BRANCH   1  31
HETATM   31  C5  UNL     1       6.793  -0.754  32.862  1.00  0.00     0.083 C
BRANCH  31  32
HETATM   32  C4  UNL     1       6.603  -1.887  31.934  1.00  0.00     0.068 C
HETATM   33  N2  UNL     1       5.439  -2.283  31.574  1.00  0.00    -0.347 N
ATOM     34  H2  UNL     1       5.375  -3.071  30.930  1.00  0.00     0.167 HD
BRANCH  33  35
HETATM   35  C3  UNL     1       4.249  -1.692  32.018  1.00  0.00     0.171 C
HETATM   36  S1  UNL     1       3.509  -2.282  33.342  1.00  0.00    -0.041 SA
BRANCH  35  37
HETATM   37  N1  UNL     1       3.667  -0.589  31.345  1.00  0.00    -0.367 N
ATOM     38  H1  UNL     1       4.152  -0.211  30.531  1.00  0.00     0.161 HD
BRANCH  37  39
HETATM   39  C2  UNL     1       2.433   0.024  31.745  1.00  0.00     0.117 C
HETATM   40  C1  UNL     1       2.413   1.523  31.543  1.00  0.00     0.026 C
ENDBRANCH  37  39
ENDBRANCH  35  37
ENDBRANCH  33  35
ENDBRANCH  31  32
ENDBRANCH   1  31
TORSDOF 16
ENDMDL