MODEL 5
REMARK VINA RESULT: -7.546111503      4.590      7.935
REMARK  13 active torsions:
REMARK  status: ('A' for Active; 'I' for Inactive)
REMARK    1  A    between atoms: C2_2  and  C3_3
REMARK       I    between atoms: C3_3  and  N1_5
REMARK    2  A    between atoms: N1_5  and  C4_7
REMARK    3  A    between atoms: C4_7  and  C5_8
REMARK    4  A    between atoms: C5_8  and  N2_9
REMARK    5  A    between atoms: N2_9  and  C6_12
REMARK    6  A    between atoms: C6_12  and  C7_13
REMARK    7  A    between atoms: C7_13  and  C8_14
REMARK    8  A    between atoms: C8_14  and  C9_15
REMARK    9  A    between atoms: C9_15  and  C10_16
REMARK   10  A    between atoms: C10_16  and  C11_17
REMARK   11  A    between atoms: C10_16  and  N4_29
REMARK   12  A    between atoms: C11_17  and  N3_18
REMARK   13  A    between atoms: N4_29  and  C22_31
ROOT
HETATM    1  C10 UNL     1       9.457   5.305  25.602  1.00  0.00     0.034 C
ENDROOT
BRANCH   1   2
HETATM    2  C9  UNL     1       9.341   6.518  24.773  1.00  0.00     0.058 C
BRANCH   2   3
HETATM    3  C8  UNL     1      10.655   6.820  24.020  1.00  0.00     0.008 C
BRANCH   3   4
HETATM    4  C7  UNL     1      11.454   7.889  24.727  1.00  0.00     0.028 C
BRANCH   4   5
HETATM    5  C6  UNL     1      11.451   9.165  23.898  1.00  0.00     0.232 C
BRANCH   5   6
HETATM    6  N2  UNL     1      12.598   9.242  23.046  1.00  0.00    -0.074 N
ATOM      7  H22 UNL     1      12.333   9.464  22.087  1.00  0.00     0.277 HD
ATOM      8  H21 UNL     1      13.006   8.320  22.891  1.00  0.00     0.277 HD
BRANCH   6   9
HETATM    9  C5  UNL     1      13.590  10.180  23.548  1.00  0.00     0.251 C
BRANCH   9  10
HETATM   10  C4  UNL     1      14.764   9.464  24.134  1.00  0.00     0.150 C
BRANCH  10  11
HETATM   11  N1  UNL     1      15.421  10.113  25.217  1.00  0.00    -0.356 N
HETATM   12  C3  UNL     1      14.913  10.058  26.533  1.00  0.00     0.240 C
HETATM   13  O1  UNL     1      13.856   9.434  26.802  1.00  0.00    -0.269 OA
ATOM     14  H1  UNL     1      16.281  10.630  25.038  1.00  0.00     0.162 HD
BRANCH  12  15
HETATM   15  C2  UNL     1      15.626  10.739  27.601  1.00  0.00     0.064 C
HETATM   16  C1  UNL     1      15.320  11.982  27.911  1.00  0.00     0.017 C
ENDBRANCH  12  15
ENDBRANCH  10  11
ENDBRANCH   9  10
ENDBRANCH   6   9
ENDBRANCH   5   6
ENDBRANCH   4   5
ENDBRANCH   3   4
ENDBRANCH   2   3
ENDBRANCH   1   2
BRANCH   1  17
HETATM   17  C11 UNL     1       9.192   5.444  27.063  1.00  0.00     0.227 C
BRANCH  17  18
HETATM   18  N3  UNL     1       7.999   5.022  27.677  1.00  0.00    -0.049 N
HETATM   19  C12 UNL     1       6.776   5.629  27.348  1.00  0.00     0.278 C
HETATM   20  C13 UNL     1       8.212   5.185  29.124  1.00  0.00     0.243 C
HETATM   21  C14 UNL     1       7.060   5.143  30.004  1.00  0.00     0.033 C
HETATM   22  C15 UNL     1       6.338   3.901  30.271  1.00  0.00    -0.009 C
HETATM   23  C16 UNL     1       6.565   3.434  31.726  1.00  0.00     0.011 C
HETATM   24  C17 UNL     1       6.530   2.722  29.433  1.00  0.00    -0.043 C
HETATM   25  C18 UNL     1       5.244   1.869  29.543  1.00  0.00     0.015 C
HETATM   26  C19 UNL     1       7.604   1.759  29.957  1.00  0.00     0.015 C
HETATM   27  C20 UNL     1       6.732   2.900  27.973  1.00  0.00     0.037 C
HETATM   28  C21 UNL     1       7.972   3.564  27.541  1.00  0.00     0.243 C
ENDBRANCH  17  18
ENDBRANCH   1  17
BRANCH   1  29
HETATM   29  N4  UNL     1      10.569   4.479  25.291  1.00  0.00    -0.348 N
ATOM     30  H4  UNL     1      11.516   4.847  25.390  1.00  0.00     0.167 HD
BRANCH  29  31
HETATM   31  C22 UNL     1      10.378   3.156  24.848  1.00  0.00     0.094 C
HETATM   32  C23 UNL     1      11.102   2.855  23.539  1.00  0.00     0.179 C
HETATM   33  C24 UNL     1      10.593   1.559  23.040  1.00  0.00     0.232 C
HETATM   34  O2  UNL     1      10.324   1.401  21.845  1.00  0.00    -0.273 OA
HETATM   35  N5  UNL     1      10.408   0.467  23.966  1.00  0.00    -0.279 N
HETATM   36  C25 UNL     1      10.313   0.754  25.357  1.00  0.00     0.328 C
ATOM     37  H5  UNL     1      10.347  -0.493  23.629  1.00  0.00     0.173 HD
HETATM   38  O3  UNL     1      10.153  -0.200  26.164  1.00  0.00    -0.247 OA
HETATM   39  N6  UNL     1      10.402   2.101  25.795  1.00  0.00    -0.297 N
ATOM     40  H6  UNL     1      10.482   2.310  26.791  1.00  0.00     0.172 HD
ENDBRANCH  29  31
ENDBRANCH   1  29
TORSDOF 13
ENDMDL