MODEL 1
REMARK VINA RESULT: -8.518449525      0.000      0.000
REMARK  13 active torsions:
REMARK  status: ('A' for Active; 'I' for Inactive)
REMARK    1  A    between atoms: C2_2  and  N1_3
REMARK    2  A    between atoms: N1_3  and  C3_4
REMARK    3  A    between atoms: N1_3  and  C5_6
REMARK    4  A    between atoms: C5_6  and  C6_7
REMARK    5  A    between atoms: C6_7  and  C7_8
REMARK    6  A    between atoms: C7_8  and  C8_9
REMARK    7  A    between atoms: C10_14  and  C11_15
REMARK    8  A    between atoms: C11_15  and  C12_16
REMARK    9  A    between atoms: C12_16  and  C13_17
REMARK   10  A    between atoms: C13_17  and  N3_18
REMARK       I    between atoms: N3_18  and  C14_20
REMARK       I    between atoms: C14_20  and  N6_25
REMARK   11  A    between atoms: N6_25  and  C16_27
REMARK   12  A    between atoms: C16_27  and  C17_28
REMARK   13  A    between atoms: C17_28  and  C18_29
ROOT
HETATM    1  N3  UNL     1      12.070   6.877  26.954  1.00  0.00    -0.226 N
ATOM      2  H3  UNL     1      12.102   7.023  27.962  1.00  0.00     0.177 HD
HETATM    3  C14 UNL     1      11.529   5.682  26.445  1.00  0.00     0.682 C
HETATM    4  N4  UNL     1      11.359   5.521  25.189  1.00  0.00    -0.126 N
ATOM      5  H4  UNL     1      11.621   6.272  24.550  1.00  0.00     0.197 HD
HETATM    6  C15 UNL     1      10.825   4.345  24.675  1.00  0.00     0.196 C
HETATM    7  N5  UNL     1      10.384   3.366  24.272  1.00  0.00    -0.171 NA
HETATM    8  N6  UNL     1      11.149   4.546  27.269  1.00  0.00    -0.225 N
ATOM      9  H6  UNL     1      11.774   3.745  27.358  1.00  0.00     0.177 HD
ENDROOT
BRANCH   1  10
HETATM   10  C13 UNL     1      12.577   7.898  26.071  1.00  0.00     0.138 C
BRANCH  10  11
HETATM   11  C12 UNL     1      14.063   7.990  25.986  1.00  0.00     0.023 C
BRANCH  11  12
HETATM   12  C11 UNL     1      14.582   9.313  25.497  1.00  0.00     0.036 C
BRANCH  12  13
HETATM   13  C10 UNL     1      15.065   9.154  24.079  1.00  0.00     0.176 C
HETATM   14  C9  UNL     1      14.510  10.292  23.278  1.00  0.00     0.241 C
HETATM   15  N2  UNL     1      15.279  10.732  22.168  1.00  0.00    -0.346 N
HETATM   16  O1  UNL     1      13.401  10.851  23.566  1.00  0.00    -0.271 OA
HETATM   17  C8  UNL     1      16.295   9.821  21.592  1.00  0.00     0.176 C
ATOM     18  H2  UNL     1      15.135  11.661  21.773  1.00  0.00     0.163 HD
HETATM   19  C24 UNL     1      17.149   9.445  22.738  1.00  0.00     0.241 C
HETATM   20  N8  UNL     1      16.500   9.313  24.029  1.00  0.00    -0.346 N
HETATM   21  O2  UNL     1      18.384   9.230  22.692  1.00  0.00    -0.271 OA
ATOM     22  H8  UNL     1      17.049   9.332  24.887  1.00  0.00     0.163 HD
BRANCH  17  23
HETATM   23  C7  UNL     1      16.998  10.616  20.546  1.00  0.00     0.036 C
BRANCH  23  24
HETATM   24  C6  UNL     1      17.456  11.979  20.930  1.00  0.00     0.033 C
BRANCH  24  25
HETATM   25  C5  UNL     1      18.012  12.609  19.643  1.00  0.00     0.272 C
BRANCH  25  26
HETATM   26  N1  UNL     1      18.580  11.644  18.765  1.00  0.00     0.087 N
BRANCH  26  27
HETATM   27  C2  UNL     1      20.011  11.545  18.797  1.00  0.00     0.268 C
HETATM   28  C1  UNL     1      20.711  12.005  17.561  1.00  0.00     0.037 C
ENDBRANCH  26  27
BRANCH  26  29
HETATM   29  C3  UNL     1      18.143  11.892  17.405  1.00  0.00     0.268 C
HETATM   30  C4  UNL     1      16.666  11.917  17.222  1.00  0.00     0.037 C
ENDBRANCH  26  29
ENDBRANCH  25  26
ENDBRANCH  24  25
ENDBRANCH  23  24
ENDBRANCH  17  23
ENDBRANCH  12  13
ENDBRANCH  11  12
ENDBRANCH  10  11
ENDBRANCH   1  10
BRANCH   8  31
HETATM   31  C16 UNL     1       9.909   4.557  27.946  1.00  0.00     0.144 C
BRANCH  31  32
HETATM   32  C17 UNL     1       9.168   3.299  28.156  1.00  0.00     0.077 C
BRANCH  32  33
HETATM   33  C18 UNL     1       8.211   3.295  29.268  1.00  0.00     0.017 A
HETATM   34  N7  UNL     1       7.593   4.426  29.734  1.00  0.00    -0.363 N
HETATM   35  C19 UNL     1       6.784   4.142  30.752  1.00  0.00     0.006 A
ATOM     36  H7  UNL     1       7.735   5.362  29.352  1.00  0.00     0.165 HD
HETATM   37  C20 UNL     1       5.931   5.092  31.519  1.00  0.00     0.068 C
HETATM   38  C21 UNL     1       6.863   2.798  30.970  1.00  0.00     0.033 A
HETATM   39  C22 UNL     1       7.758   2.269  30.035  1.00  0.00    -0.037 A
HETATM   40  C23 UNL     1       8.045   0.819  29.945  1.00  0.00     0.050 C
ENDBRANCH  32  33
ENDBRANCH  31  32
ENDBRANCH   8  31
TORSDOF 13
ENDMDL