MODEL 4
REMARK VINA RESULT: -5.403602806      0.928      2.466
REMARK  2 active torsions:
REMARK  status: ('A' for Active; 'I' for Inactive)
REMARK    1  A    between atoms: C3_3  and  C4_4
REMARK    2  A    between atoms: C8_8  and  C9_9
ROOT
HETATM    1  C1  UNL     1      28.830   9.675   4.996  1.00  0.00     0.013 C
HETATM    2  C2  UNL     1      28.164   8.976   4.274  1.00  0.00    -0.102 C
HETATM    3  C3  UNL     1      27.336   8.106   3.408  1.00  0.00     0.046 C
HETATM    4  C6  UNL     1      28.178   7.551   2.288  1.00  0.00     0.028 C
HETATM    5  C7  UNL     1      27.599   6.190   2.586  1.00  0.00     0.012 C
HETATM    6  C8  UNL     1      27.213   6.709   3.972  1.00  0.00     0.032 C
ENDROOT
BRANCH   3   7
HETATM    7  C4  UNL     1      26.085   8.742   2.974  1.00  0.00    -0.014 C
HETATM    8  C5  UNL     1      26.057   9.880   2.301  1.00  0.00     0.008 C
ENDBRANCH   3   7
BRANCH   6   9
HETATM    9  C9  UNL     1      25.863   6.275   4.346  1.00  0.00    -0.030 C
HETATM   10  C10 UNL     1      25.655   5.639   5.483  1.00  0.00     0.007 C
ENDBRANCH   6   9
TORSDOF 2
ENDMDL