MODEL 1
REMARK VINA RESULT: -6.549143996      0.000      0.000
REMARK  2 active torsions:
REMARK  status: ('A' for Active; 'I' for Inactive)
REMARK    1  A    between atoms: C2_2  and  C3_3
REMARK    2  A    between atoms: C7_7  and  C8_8
ROOT
HETATM    1  C3  UNL     1      25.900   5.786   3.882  1.00  0.00     0.012 C
HETATM    2  C4  UNL     1      26.516   4.452   3.439  1.00  0.00     0.009 C
HETATM    3  C5  UNL     1      27.516   4.835   2.370  1.00  0.00     0.001 C
HETATM    4  C6  UNL     1      27.495   6.355   2.294  1.00  0.00     0.005 C
HETATM    5  C7  UNL     1      27.075   6.699   3.720  1.00  0.00    -0.003 C
ENDROOT
BRANCH   5   6
HETATM    6  C8  UNL     1      26.770   8.140   3.908  1.00  0.00    -0.010 A
HETATM    7  C9  UNL     1      27.811   8.935   4.645  1.00  0.00     0.005 A
HETATM    8  C10 UNL     1      27.482   9.226   3.223  1.00  0.00     0.005 A
ENDBRANCH   5   6
BRANCH   1   9
HETATM    9  C2  UNL     1      25.357   5.722   5.235  1.00  0.00    -0.032 C
HETATM   10  C1  UNL     1      26.146   5.370   6.238  1.00  0.00     0.007 C
ENDBRANCH   1   9
TORSDOF 2
ENDMDL