MODEL 4
REMARK VINA RESULT: -6.284438587      1.027      2.000
REMARK  2 active torsions:
REMARK  status: ('A' for Active; 'I' for Inactive)
REMARK    1  A    between atoms: C1_1  and  C8_8
REMARK    2  A    between atoms: C2_2  and  C3_3
ROOT
HETATM    1  C3  UNL     1      27.911   8.791   2.126  1.00  0.00     0.016 C
HETATM    2  C4  UNL     1      28.013   9.525   0.845  1.00  0.00    -0.006 C
HETATM    3  C5  UNL     1      26.824   8.751   0.379  1.00  0.00     0.010 C
HETATM    4  C6  UNL     1      27.616   7.737   1.110  1.00  0.00    -0.006 C
HETATM    5  C7  UNL     1      28.802   8.337   0.358  1.00  0.00     0.010 C
ENDROOT
BRANCH   1   6
HETATM    6  C2  UNL     1      26.849   9.238   3.027  1.00  0.00    -0.025 C
HETATM    7  C1  UNL     1      26.471   8.684   4.160  1.00  0.00    -0.025 C
BRANCH   7   8
HETATM    8  C8  UNL     1      26.999   7.492   4.822  1.00  0.00     0.008 A
HETATM    9  C9  UNL     1      26.501   6.898   6.056  1.00  0.00     0.009 A
HETATM   10  C10 UNL     1      26.028   6.288   4.788  1.00  0.00     0.009 A
ENDBRANCH   7   8
ENDBRANCH   1   6
TORSDOF 2
ENDMDL