MODEL 5
REMARK VINA RESULT: -6.206611330      1.055      4.420
REMARK  3 active torsions:
REMARK  status: ('A' for Active; 'I' for Inactive)
REMARK    1  A    between atoms: C2_2  and  C3_3
REMARK    2  A    between atoms: C3_3  and  C4_4
REMARK    3  A    between atoms: C4_4  and  C6_6
ROOT
HETATM    1  C6  UNL     1      27.229   6.754   4.528  1.00  0.00     0.026 C
HETATM    2  C7  UNL     1      26.011   6.127   3.808  1.00  0.00     0.010 C
HETATM    3  C8  UNL     1      25.850   4.978   4.842  1.00  0.00     0.001 C
HETATM    4  C9  UNL     1      25.707   5.843   6.116  1.00  0.00     0.001 C
HETATM    5  C10 UNL     1      26.575   7.104   5.823  1.00  0.00     0.010 C
ENDROOT
BRANCH   1   6
HETATM    6  C4  UNL     1      27.616   8.006   3.713  1.00  0.00    -0.018 C
HETATM    7  C5  UNL     1      27.624   9.120   4.536  1.00  0.00     0.028 C
BRANCH   6   8
HETATM    8  C3  UNL     1      27.684   8.060   2.502  1.00  0.00    -0.122 C
BRANCH   8   9
HETATM    9  C2  UNL     1      27.762   8.122   1.116  1.00  0.00     0.046 C
HETATM   10  C1  UNL     1      27.197   8.803   0.116  1.00  0.00     0.020 C
ENDBRANCH   8   9
ENDBRANCH   6   8
ENDBRANCH   1   6
TORSDOF 3
ENDMDL