MODEL 1
REMARK VINA RESULT: -7.045812296      0.000      0.000
REMARK  2 active torsions:
REMARK  status: ('A' for Active; 'I' for Inactive)
REMARK    1  A    between atoms: C2_2  and  C3_3
REMARK    2  A    between atoms: C4_4  and  C5_5
ROOT
HETATM    1  C5  UNL     1      27.240   6.649   3.679  1.00  0.00     0.008 C
HETATM    2  C6  UNL     1      26.486   5.400   3.395  1.00  0.00     0.008 C
HETATM    3  C7  UNL     1      25.975   4.687   4.607  1.00  0.00     0.001 C
HETATM    4  C8  UNL     1      25.512   5.598   5.710  1.00  0.00     0.000 C
HETATM    5  C9  UNL     1      26.557   6.630   5.991  1.00  0.00     0.001 C
HETATM    6  C10 UNL     1      26.568   7.516   4.733  1.00  0.00     0.008 C
ENDROOT
BRANCH   1   7
HETATM    7  C4  UNL     1      27.535   7.433   2.462  1.00  0.00    -0.022 C
HETATM    8  C3  UNL     1      27.408   8.718   2.311  1.00  0.00    -0.004 C
BRANCH   8   9
HETATM    9  C2  UNL     1      27.739   9.378   1.040  1.00  0.00    -0.011 C
HETATM   10  C1  UNL     1      27.292   8.907  -0.114  1.00  0.00     0.011 C
ENDBRANCH   8   9
ENDBRANCH   1   7
TORSDOF 2
ENDMDL