MODEL 4
REMARK VINA RESULT: -6.404486185      0.911      4.235
REMARK  2 active torsions:
REMARK  status: ('A' for Active; 'I' for Inactive)
REMARK    1  A    between atoms: C2_2  and  C3_3
REMARK    2  A    between atoms: C4_4  and  C5_5
ROOT
HETATM    1  C5  UNL     1      26.428   7.044   4.543  1.00  0.00     0.012 C
HETATM    2  C6  UNL     1      26.080   6.616   5.991  1.00  0.00     0.013 C
HETATM    3  C7  UNL     1      25.677   5.212   5.744  1.00  0.00    -0.013 C
HETATM    4  C8  UNL     1      24.826   5.331   4.487  1.00  0.00     0.010 C
HETATM    5  C9  UNL     1      26.169   5.729   3.854  1.00  0.00    -0.006 C
HETATM    6  C10 UNL     1      26.782   4.733   4.791  1.00  0.00     0.010 C
ENDROOT
BRANCH   1   7
HETATM    7  C4  UNL     1      27.805   7.495   4.443  1.00  0.00    -0.022 C
HETATM    8  C3  UNL     1      28.206   8.539   3.795  1.00  0.00    -0.004 C
BRANCH   8   9
HETATM    9  C2  UNL     1      27.321   9.415   3.069  1.00  0.00    -0.011 C
HETATM   10  C1  UNL     1      27.577   9.857   1.848  1.00  0.00     0.011 C
ENDBRANCH   8   9
ENDBRANCH   1   7
TORSDOF 2
ENDMDL