MODEL 4
REMARK VINA RESULT: -5.178455714      1.725      2.653
REMARK  1 active torsions:
REMARK  status: ('A' for Active; 'I' for Inactive)
REMARK    1  A    between atoms: C2_3  and  C3_4
ROOT
HETATM    1  C1  UNL     1      27.388   8.698   0.720  1.00  0.00     0.222 C
HETATM    2  N1  UNL     1      27.499   8.025   1.655  1.00  0.00    -0.456 NA
HETATM    3  C2  UNL     1      27.654   7.212   2.783  1.00  0.00     0.108 C
HETATM    4  C5  UNL     1      26.416   7.273   3.649  1.00  0.00     0.050 C
HETATM    5  C6  UNL     1      26.254   8.695   4.110  1.00  0.00     0.004 C
HETATM    6  C7  UNL     1      27.420   9.112   4.957  1.00  0.00     0.000 C
HETATM    7  C8  UNL     1      28.711   8.970   4.227  1.00  0.00     0.004 C
HETATM    8  C9  UNL     1      28.888   7.677   3.514  1.00  0.00     0.050 C
ENDROOT
BRANCH   3   9
HETATM    9  C3  UNL     1      27.818   5.797   2.359  1.00  0.00     0.008 C
HETATM   10  C4  UNL     1      26.897   4.866   2.653  1.00  0.00     0.010 C
ENDBRANCH   3   9
TORSDOF 1
ENDMDL