MODEL 4
REMARK VINA RESULT: -5.141773568      1.566      3.967
REMARK  2 active torsions:
REMARK  status: ('A' for Active; 'I' for Inactive)
REMARK    1  A    between atoms: C2_2  and  C3_3
REMARK    2  A    between atoms: C3_3  and  S1_4
ROOT
HETATM    1  S1  UNL     1      27.481   7.339   4.344  1.00  0.00    -0.216 SA
HETATM    2  C4  UNL     1      27.100   6.403   2.853  1.00  0.00     0.063 C
HETATM    3  C5  UNL     1      27.009   4.960   3.359  1.00  0.00     0.009 C
HETATM    4  C6  UNL     1      25.675   4.820   4.014  1.00  0.00     0.001 C
HETATM    5  C7  UNL     1      25.409   5.781   5.115  1.00  0.00     0.009 C
HETATM    6  C8  UNL     1      26.602   6.499   5.638  1.00  0.00     0.063 C
ENDROOT
BRANCH   1   7
HETATM    7  C3  UNL     1      26.913   8.980   4.088  1.00  0.00     0.089 C
BRANCH   7   8
HETATM    8  C2  UNL     1      26.685   9.304   2.654  1.00  0.00    -0.027 C
HETATM    9  C1  UNL     1      27.600  10.005   2.018  1.00  0.00     0.007 C
ENDBRANCH   7   8
ENDBRANCH   1   7
TORSDOF 2
ENDMDL