MODEL 1
REMARK VINA RESULT: -5.832681040      0.000      0.000
REMARK  2 active torsions:
REMARK  status: ('A' for Active; 'I' for Inactive)
REMARK    1  A    between atoms: N1_2  and  O1_3
REMARK    2  A    between atoms: N1_2  and  C2_5
ROOT
HETATM    1  C2  UNL     1      26.647   7.326   4.185  1.00  0.00     0.112 C
HETATM    2  C3  UNL     1      26.962   6.266   3.155  1.00  0.00     0.028 C
HETATM    3  C4  UNL     1      26.531   4.892   3.635  1.00  0.00     0.002 C
HETATM    4  C5  UNL     1      25.300   4.960   4.497  1.00  0.00     0.000 C
HETATM    5  C6  UNL     1      25.653   5.664   5.781  1.00  0.00     0.002 C
HETATM    6  C7  UNL     1      26.646   6.778   5.583  1.00  0.00     0.028 C
ENDROOT
BRANCH   1   7
HETATM    7  N1  UNL     1      27.646   8.362   4.084  1.00  0.00    -0.277 N
HETATM    8  C1  UNL     1      27.641   9.275   3.174  1.00  0.00     0.150 C
BRANCH   7   9
HETATM    9  O1  UNL     1      28.706   8.411   5.003  1.00  0.00    -0.288 OA
ATOM     10  H1  UNL     1      28.474   8.288   5.916  1.00  0.00     0.244 HD
ENDBRANCH   7   9
ENDBRANCH   1   7
TORSDOF 2
ENDMDL