MODEL 3
REMARK VINA RESULT: -6.433767293      1.304      4.481
REMARK  3 active torsions:
REMARK  status: ('A' for Active; 'I' for Inactive)
REMARK    1  A    between atoms: C1_1  and  C2_2
REMARK    2  A    between atoms: C1_1  and  C6_6
REMARK    3  A    between atoms: C2_2  and  C3_3
ROOT
HETATM    1  C6  UNL     1      26.477   6.407   3.820  1.00  0.00    -0.004 C
HETATM    2  C7  UNL     1      27.172   7.051   5.000  1.00  0.00     0.005 C
HETATM    3  C8  UNL     1      26.174   6.811   6.108  1.00  0.00     0.000 C
HETATM    4  C9  UNL     1      25.743   5.387   5.857  1.00  0.00     0.000 C
HETATM    5  C10 UNL     1      25.977   5.117   4.384  1.00  0.00     0.005 C
ENDROOT
BRANCH   1   6
HETATM    6  C1  UNL     1      27.490   6.165   2.711  1.00  0.00     0.084 C
BRANCH   6   7
HETATM    7  C2  UNL     1      27.808   7.106   1.974  1.00  0.00    -0.178 C
BRANCH   7   8
HETATM    8  C3  UNL     1      28.172   8.183   1.129  1.00  0.00     0.052 A
HETATM    9  C4  UNL     1      27.615   9.618   1.428  1.00  0.00     0.017 A
HETATM   10  C5  UNL     1      27.208   8.895   0.234  1.00  0.00     0.017 A
ENDBRANCH   7   8
ENDBRANCH   6   7
ENDBRANCH   1   6
TORSDOF 3
ENDMDL