MODEL 3
REMARK VINA RESULT: -3.823553015      1.261      1.524
REMARK  1 active torsions:
REMARK  status: ('A' for Active; 'I' for Inactive)
REMARK    1  A    between atoms: C4_4  and  O1_5
ROOT
HETATM    1  C1  UNL     1      27.422   6.969   6.329  1.00  0.00     0.011 C
HETATM    2  C2  UNL     1      26.587   7.030   5.113  1.00  0.00    -0.006 C
HETATM    3  C3  UNL     1      27.465   7.249   3.876  1.00  0.00     0.037 C
HETATM    4  C4  UNL     1      26.989   5.917   3.353  1.00  0.00     0.126 C
HETATM    5  C5  UNL     1      26.034   5.808   4.522  1.00  0.00    -0.018 C
HETATM    6  C6  UNL     1      26.081   4.529   5.280  1.00  0.00     0.018 C
HETATM    7  C7  UNL     1      24.604   6.014   3.998  1.00  0.00     0.018 C
ENDROOT
BRANCH   4   8
HETATM    8  O1  UNL     1      27.971   4.940   3.296  1.00  0.00    -0.395 OA
ATOM      9  H1  UNL     1      27.678   4.073   3.553  1.00  0.00     0.210 HD
ENDBRANCH   4   8
TORSDOF 1
ENDMDL