MODEL 5
REMARK VINA RESULT: -4.595811677      0.868      2.789
REMARK  0 active torsions:
REMARK  status: ('A' for Active; 'I' for Inactive)
ROOT
HETATM    1  C1  UNL     1      26.772   3.924   3.829  1.00  0.00     0.010 C
HETATM    2  C2  UNL     1      26.349   5.349   3.865  1.00  0.00    -0.014 C
HETATM    3  C3  UNL     1      27.522   6.310   4.089  1.00  0.00     0.009 C
HETATM    4  C4  UNL     1      27.044   7.278   5.114  1.00  0.00    -0.014 C
HETATM    5  C5  UNL     1      27.143   6.584   6.475  1.00  0.00     0.005 C
HETATM    6  C6  UNL     1      26.104   5.470   6.336  1.00  0.00     0.005 C
HETATM    7  C7  UNL     1      25.427   5.692   5.007  1.00  0.00    -0.010 C
HETATM    8  C8  UNL     1      25.518   7.230   4.944  1.00  0.00     0.009 C
ENDROOT
TORSDOF 0
ENDMDL