MODEL 5
REMARK VINA RESULT: -3.441128499      1.499      2.603
REMARK  1 active torsions:
REMARK  status: ('A' for Active; 'I' for Inactive)
REMARK    1  A    between atoms: C7_7  and  O1_9
ROOT
HETATM    1  C1  UNL     1      26.655   3.869   4.134  1.00  0.00     0.018 C
HETATM    2  C2  UNL     1      26.484   5.282   4.376  1.00  0.00    -0.013 C
HETATM    3  C3  UNL     1      27.429   6.288   3.795  1.00  0.00     0.012 C
HETATM    4  C4  UNL     1      26.789   7.575   4.350  1.00  0.00     0.008 C
HETATM    5  C5  UNL     1      25.598   6.978   5.022  1.00  0.00     0.021 C
HETATM    6  C6  UNL     1      25.140   5.926   4.001  1.00  0.00     0.019 C
HETATM    7  C7  UNL     1      26.188   5.791   5.761  1.00  0.00     0.065 C
HETATM    8  C8  UNL     1      27.360   6.090   6.626  1.00  0.00     0.047 C
ENDROOT
BRANCH   7   9
HETATM    9  O1  UNL     1      25.182   5.120   6.436  1.00  0.00    -0.389 OA
ATOM     10  H1  UNL     1      24.353   5.058   5.977  1.00  0.00     0.210 HD
ENDBRANCH   7   9
TORSDOF 1
ENDMDL