MODEL 4
REMARK VINA RESULT: -3.851295136      1.911      3.877
REMARK  2 active torsions:
REMARK  status: ('A' for Active; 'I' for Inactive)
REMARK    1  A    between atoms: C2_2  and  N1_4
REMARK    2  A    between atoms: N1_4  and  C3_6
ROOT
HETATM    1  N1  UNL     1      26.741   6.476   3.813  1.00  0.00    -0.381 N
ATOM      2  H1  UNL     1      25.922   6.751   3.271  1.00  0.00     0.160 HD
ENDROOT
BRANCH   1   3
HETATM    3  C2  UNL     1      26.655   6.470   5.249  1.00  0.00     0.069 C
HETATM    4  C1  UNL     1      27.302   7.498   6.078  1.00  0.00     0.081 C
HETATM    5  S1  UNL     1      25.805   5.269   5.987  1.00  0.00    -0.066 SA
ENDBRANCH   1   3
BRANCH   1   6
HETATM    6  C3  UNL     1      27.945   6.106   3.119  1.00  0.00     0.074 C
HETATM    7  C4  UNL     1      28.411   7.296   2.330  1.00  0.00     0.031 C
HETATM    8  C5  UNL     1      27.685   4.897   2.266  1.00  0.00     0.031 C
ENDBRANCH   1   6
TORSDOF 2
ENDMDL