MODEL 1
REMARK VINA RESULT: -6.062402561      0.000      0.000
REMARK  0 active torsions:
REMARK  status: ('A' for Active; 'I' for Inactive)
ROOT
HETATM    1  C1  UNL     1      27.052   5.219   2.647  1.00  0.00     0.015 C
HETATM    2  C2  UNL     1      26.700   5.645   4.015  1.00  0.00    -0.043 C
HETATM    3  C3  UNL     1      27.372   6.888   4.528  1.00  0.00     0.009 C
HETATM    4  C4  UNL     1      26.919   7.262   5.892  1.00  0.00     0.001 C
HETATM    5  C5  UNL     1      26.106   6.239   6.603  1.00  0.00     0.005 C
HETATM    6  C6  UNL     1      25.505   5.224   5.664  1.00  0.00    -0.013 C
HETATM    7  C7  UNL     1      25.201   5.816   4.297  1.00  0.00     0.013 C
HETATM    8  C8  UNL     1      26.692   4.514   4.998  1.00  0.00     0.013 C
ENDROOT
TORSDOF 0
ENDMDL