MODEL 1
REMARK VINA RESULT: -3.930974188      0.000      0.000
REMARK  1 active torsions:
REMARK  status: ('A' for Active; 'I' for Inactive)
REMARK    1  A    between atoms: C7_7  and  N1_9
ROOT
HETATM    1  C1  UNL     1      26.919   7.578   6.784  1.00  0.00     0.010 C
HETATM    2  C2  UNL     1      27.007   6.975   5.425  1.00  0.00    -0.012 C
HETATM    3  C3  UNL     1      25.735   7.239   4.594  1.00  0.00     0.011 C
HETATM    4  C4  UNL     1      25.364   5.829   4.264  1.00  0.00     0.022 C
HETATM    5  C5  UNL     1      25.503   5.184   5.652  1.00  0.00     0.014 C
HETATM    6  C6  UNL     1      26.991   5.478   5.406  1.00  0.00     0.025 C
HETATM    7  C7  UNL     1      26.683   5.149   3.973  1.00  0.00     0.127 C
HETATM    8  C8  UNL     1      27.532   5.800   2.941  1.00  0.00     0.047 C
ENDROOT
BRANCH   7   9
HETATM    9  N1  UNL     1      26.613   3.720   3.790  1.00  0.00    -0.070 N
ATOM     10  H13 UNL     1      27.474   3.379   3.362  1.00  0.00     0.275 HD
ATOM     11  H12 UNL     1      26.662   3.249   4.693  1.00  0.00     0.275 HD
ATOM     12  H11 UNL     1      25.805   3.387   3.265  1.00  0.00     0.275 HD
ENDBRANCH   7   9
TORSDOF 1
ENDMDL