MODEL 3
REMARK VINA RESULT: -3.959355545      1.337      2.058
REMARK  1 active torsions:
REMARK  status: ('A' for Active; 'I' for Inactive)
REMARK    1  A    between atoms: N1_1  and  C1_5
ROOT
HETATM    1  C1  UNL     1      26.840   5.183   2.926  1.00  0.00     0.185 C
HETATM    2  C2  UNL     1      27.470   6.098   3.993  1.00  0.00     0.042 C
HETATM    3  C3  UNL     1      26.575   5.387   4.949  1.00  0.00    -0.037 C
HETATM    4  C4  UNL     1      26.899   5.334   6.367  1.00  0.00     0.010 C
HETATM    5  C5  UNL     1      25.913   6.497   6.564  1.00  0.00     0.002 C
HETATM    6  C6  UNL     1      25.258   6.020   5.259  1.00  0.00     0.010 C
HETATM    7  C7  UNL     1      26.629   4.202   4.089  1.00  0.00     0.042 C
ENDROOT
BRANCH   1   8
HETATM    8  N1  UNL     1      27.731   4.764   1.915  1.00  0.00    -0.075 N
ATOM      9  H13 UNL     1      28.598   4.416   2.326  1.00  0.00     0.274 HD
ATOM     10  H12 UNL     1      27.392   3.910   1.472  1.00  0.00     0.274 HD
ATOM     11  H11 UNL     1      27.933   5.473   1.209  1.00  0.00     0.274 HD
ENDBRANCH   1   8
TORSDOF 1
ENDMDL