MODEL 2
REMARK VINA RESULT: -4.006416241      0.792      2.187
REMARK  1 active torsions:
REMARK  status: ('A' for Active; 'I' for Inactive)
REMARK    1  A    between atoms: C6_6  and  N1_7
ROOT
HETATM    1  C1  UNL     1      26.326   6.699   6.712  1.00  0.00     0.012 C
HETATM    2  C2  UNL     1      26.910   5.843   5.653  1.00  0.00     0.013 C
HETATM    3  C3  UNL     1      26.003   4.864   4.971  1.00  0.00    -0.006 C
HETATM    4  C4  UNL     1      24.827   5.659   4.460  1.00  0.00     0.007 C
HETATM    5  C5  UNL     1      25.586   6.921   4.001  1.00  0.00     0.031 C
HETATM    6  C6  UNL     1      26.987   6.477   4.259  1.00  0.00     0.027 C
HETATM    7  C7  UNL     1      26.967   5.019   3.780  1.00  0.00     0.035 C
ENDROOT
BRANCH   6   8
HETATM    8  N1  UNL     1      28.071   7.263   3.945  1.00  0.00    -0.421 N
ATOM      9  H12 UNL     1      27.932   8.252   3.734  1.00  0.00     0.150 HD
ATOM     10  H11 UNL     1      28.999   6.839   3.929  1.00  0.00     0.150 HD
ENDBRANCH   6   8
TORSDOF 1
ENDMDL