MODEL 5
REMARK VINA RESULT: -5.948369504      1.089      3.771
REMARK  3 active torsions:
REMARK  status: ('A' for Active; 'I' for Inactive)
REMARK    1  A    between atoms: C2_2  and  C3_3
REMARK    2  A    between atoms: C3_3  and  C4_4
REMARK    3  A    between atoms: C6_6  and  C7_7
ROOT
HETATM    1  C3  UNL     1      27.560   7.033   3.065  1.00  0.00    -0.041 C
HETATM    2  C6  UNL     1      26.787   7.152   4.147  1.00  0.00    -0.006 C
ENDROOT
BRANCH   1   3
HETATM    3  C2  UNL     1      27.906   8.275   2.392  1.00  0.00     0.001 C
HETATM    4  C1  UNL     1      27.330   9.414   2.286  1.00  0.00     0.012 C
ENDBRANCH   1   3
BRANCH   1   5
HETATM    5  C4  UNL     1      28.007   5.763   2.624  1.00  0.00     0.001 C
HETATM    6  C5  UNL     1      27.417   4.704   2.150  1.00  0.00     0.012 C
ENDBRANCH   1   5
BRANCH   2   7
HETATM    7  C7  UNL     1      26.196   6.292   5.112  1.00  0.00    -0.025 A
HETATM    8  C8  UNL     1      24.946   5.510   4.517  1.00  0.00     0.019 C
HETATM    9  C9  UNL     1      26.031   6.624   6.521  1.00  0.00     0.014 A
HETATM   10  C10 UNL     1      26.868   5.437   6.117  1.00  0.00     0.014 A
ENDBRANCH   2   7
TORSDOF 3
ENDMDL