MODEL 4
REMARK VINA RESULT: -6.047526652      0.465      4.426
REMARK  3 active torsions:
REMARK  status: ('A' for Active; 'I' for Inactive)
REMARK    1  A    between atoms: C2_2  and  C3_3
REMARK    2  A    between atoms: C3_3  and  C5_5
REMARK    3  A    between atoms: C5_5  and  C7_7
ROOT
HETATM    1  C5  UNL     1      27.286   8.064   3.964  1.00  0.00     0.017 C
HETATM    2  C6  UNL     1      28.611   8.466   4.591  1.00  0.00     0.015 C
ENDROOT
BRANCH   1   3
HETATM    3  C3  UNL     1      27.295   8.249   2.487  1.00  0.00     0.011 C
HETATM    4  C4  UNL     1      27.045   9.726   2.162  1.00  0.00     0.015 C
BRANCH   3   5
HETATM    5  C2  UNL     1      28.457   7.777   1.757  1.00  0.00    -0.032 C
HETATM    6  C1  UNL     1      28.710   8.195   0.522  1.00  0.00     0.007 C
ENDBRANCH   3   5
ENDBRANCH   1   3
BRANCH   1   7
HETATM    7  C7  UNL     1      26.738   6.837   4.516  1.00  0.00    -0.084 C
HETATM    8  C8  UNL     1      26.576   5.643   3.600  1.00  0.00     0.043 C
HETATM    9  C9  UNL     1      26.375   6.691   5.749  1.00  0.00    -0.028 C
HETATM   10  C10 UNL     1      25.816   5.406   6.253  1.00  0.00     0.036 C
ENDBRANCH   1   7
TORSDOF 3
ENDMDL