MODEL 3
REMARK VINA RESULT: -5.821248909      0.851      3.097
REMARK  3 active torsions:
REMARK  status: ('A' for Active; 'I' for Inactive)
REMARK    1  A    between atoms: C2_2  and  C3_3
REMARK    2  A    between atoms: C3_3  and  C4_4
REMARK    3  A    between atoms: C4_4  and  C5_5
ROOT
HETATM    1  C4  UNL     1      27.121   7.449   3.985  1.00  0.00    -0.020 C
HETATM    2  C7  UNL     1      28.374   6.957   3.330  1.00  0.00     0.014 C
HETATM    3  C8  UNL     1      27.850   5.959   2.326  1.00  0.00     0.001 C
HETATM    4  C9  UNL     1      26.770   5.236   3.108  1.00  0.00     0.001 C
HETATM    5  C10 UNL     1      26.093   6.349   3.863  1.00  0.00     0.014 C
ENDROOT
BRANCH   1   6
HETATM    6  C3  UNL     1      26.551   8.684   3.361  1.00  0.00     0.039 C
BRANCH   6   7
HETATM    7  C2  UNL     1      27.499   9.487   2.600  1.00  0.00    -0.036 C
HETATM    8  C1  UNL     1      27.308   9.703   1.317  1.00  0.00     0.007 C
ENDBRANCH   6   7
ENDBRANCH   1   6
BRANCH   1   9
HETATM    9  C5  UNL     1      27.427   7.669   5.438  1.00  0.00    -0.027 C
HETATM   10  C6  UNL     1      26.688   7.112   6.380  1.00  0.00     0.007 C
ENDBRANCH   1   9
TORSDOF 3
ENDMDL