MODEL 5
REMARK VINA RESULT: -6.274918653      0.974      4.147
REMARK  2 active torsions:
REMARK  status: ('A' for Active; 'I' for Inactive)
REMARK    1  A    between atoms: C2_2  and  C3_3
REMARK    2  A    between atoms: C3_3  and  C6_6
ROOT
HETATM    1  C6  UNL     1      27.144   7.805   2.586  1.00  0.00     0.018 C
HETATM    2  C7  UNL     1      28.427   7.822   1.819  1.00  0.00     0.009 C
HETATM    3  C8  UNL     1      28.186   8.984   0.851  1.00  0.00     0.001 C
HETATM    4  C9  UNL     1      27.574  10.013   1.789  1.00  0.00     0.001 C
HETATM    5  C10 UNL     1      26.732   9.224   2.754  1.00  0.00     0.009 C
ENDROOT
BRANCH   1   6
HETATM    6  C3  UNL     1      27.186   7.009   3.840  1.00  0.00    -0.059 C
HETATM    7  C4  UNL     1      27.090   5.686   3.695  1.00  0.00    -0.024 C
HETATM    8  C5  UNL     1      26.953   5.067   2.389  1.00  0.00     0.036 C
BRANCH   6   9
HETATM    9  C2  UNL     1      27.320   7.560   5.173  1.00  0.00    -0.003 C
HETATM   10  C1  UNL     1      26.682   7.164   6.210  1.00  0.00     0.012 C
ENDBRANCH   6   9
ENDBRANCH   1   6
TORSDOF 2
ENDMDL