MODEL 4
REMARK VINA RESULT: -6.007558425      0.930      3.190
REMARK  2 active torsions:
REMARK  status: ('A' for Active; 'I' for Inactive)
REMARK    1  A    between atoms: C2_2  and  C3_3
REMARK    2  A    between atoms: C3_3  and  C5_5
ROOT
HETATM    1  C5  UNL     1      27.877   6.964   3.731  1.00  0.00    -0.026 A
HETATM    2  C6  UNL     1      28.723   8.052   4.097  1.00  0.00     0.016 A
HETATM    3  C7  UNL     1      28.518   7.910   2.679  1.00  0.00    -0.004 A
HETATM    4  C8  UNL     1      27.584   7.188   1.807  1.00  0.00     0.010 C
HETATM    5  C9  UNL     1      28.040   5.979   2.654  1.00  0.00    -0.009 C
HETATM    6  C10 UNL     1      27.183   4.800   2.570  1.00  0.00     0.011 C
ENDROOT
BRANCH   1   7
HETATM    7  C3  UNL     1      26.510   7.188   4.262  1.00  0.00     0.012 C
HETATM    8  C4  UNL     1      26.199   8.660   4.589  1.00  0.00     0.015 C
BRANCH   7   9
HETATM    9  C2  UNL     1      26.574   6.586   5.662  1.00  0.00    -0.032 C
HETATM   10  C1  UNL     1      25.858   5.553   6.011  1.00  0.00     0.007 C
ENDBRANCH   7   9
ENDBRANCH   1   7
TORSDOF 2
ENDMDL