MODEL 5
REMARK VINA RESULT: -5.528649411      0.554      2.415
REMARK  3 active torsions:
REMARK  status: ('A' for Active; 'I' for Inactive)
REMARK    1  A    between atoms: C2_2  and  C3_3
REMARK    2  A    between atoms: C4_4  and  C5_5
REMARK    3  A    between atoms: C5_5  and  C6_6
ROOT
HETATM    1  C5  UNL     1      27.775   8.046   3.012  1.00  0.00    -0.006 C
HETATM    2  C8  UNL     1      28.578   7.431   1.886  1.00  0.00     0.017 C
HETATM    3  C9  UNL     1      28.128   6.071   2.442  1.00  0.00     0.003 C
HETATM    4  C10 UNL     1      26.891   6.793   2.933  1.00  0.00     0.017 C
ENDROOT
BRANCH   1   5
HETATM    5  C4  UNL     1      28.492   8.159   4.278  1.00  0.00    -0.013 C
HETATM    6  C3  UNL     1      27.935   7.952   5.426  1.00  0.00    -0.004 C
BRANCH   6   7
HETATM    7  C2  UNL     1      26.544   7.585   5.580  1.00  0.00    -0.011 C
HETATM    8  C1  UNL     1      26.188   6.491   6.281  1.00  0.00     0.011 C
ENDBRANCH   6   7
ENDBRANCH   1   5
BRANCH   1   9
HETATM    9  C6  UNL     1      27.015   9.280   2.663  1.00  0.00    -0.023 C
HETATM   10  C7  UNL     1      27.470  10.138   1.765  1.00  0.00     0.008 C
ENDBRANCH   1   9
TORSDOF 3
ENDMDL