MODEL 1
REMARK VINA RESULT: -7.254079175      0.000      0.000
REMARK  3 active torsions:
REMARK  status: ('A' for Active; 'I' for Inactive)
REMARK    1  A    between atoms: C2_2  and  C3_3
REMARK    2  A    between atoms: C4_4  and  C5_5
REMARK    3  A    between atoms: C5_5  and  C6_6
ROOT
HETATM    1  C6  UNL     1      26.612   7.206   4.755  1.00  0.00    -0.011 C
HETATM    2  C7  UNL     1      26.599   6.561   6.139  1.00  0.00     0.005 C
HETATM    3  C8  UNL     1      25.545   5.494   5.953  1.00  0.00     0.000 C
HETATM    4  C9  UNL     1      25.942   4.887   4.625  1.00  0.00     0.000 C
HETATM    5  C10 UNL     1      26.678   5.982   3.868  1.00  0.00     0.005 C
ENDROOT
BRANCH   1   6
HETATM    6  C5  UNL     1      27.841   8.084   4.584  1.00  0.00     0.031 C
BRANCH   6   7
HETATM    7  C4  UNL     1      28.061   8.414   3.175  1.00  0.00    -0.026 C
HETATM    8  C3  UNL     1      27.400   9.389   2.567  1.00  0.00    -0.005 C
BRANCH   8   9
HETATM    9  C2  UNL     1      27.609   9.722   1.179  1.00  0.00    -0.011 C
HETATM   10  C1  UNL     1      27.291   8.878   0.236  1.00  0.00     0.011 C
ENDBRANCH   8   9
ENDBRANCH   6   7
ENDBRANCH   1   6
TORSDOF 3
ENDMDL