MODEL 2
REMARK VINA RESULT: -6.839077978      0.940      4.825
REMARK  3 active torsions:
REMARK  status: ('A' for Active; 'I' for Inactive)
REMARK    1  A    between atoms: C2_2  and  C3_3
REMARK    2  A    between atoms: C3_3  and  C4_4
REMARK    3  A    between atoms: C5_5  and  C6_6
ROOT
HETATM    1  C6  UNL     1      26.989   6.890   4.621  1.00  0.00     0.008 C
HETATM    2  C7  UNL     1      26.057   5.911   3.911  1.00  0.00     0.008 C
HETATM    3  C8  UNL     1      26.048   4.766   4.923  1.00  0.00     0.001 C
HETATM    4  C9  UNL     1      25.742   5.540   6.205  1.00  0.00     0.001 C
HETATM    5  C10 UNL     1      26.451   6.865   6.023  1.00  0.00     0.008 C
ENDROOT
BRANCH   1   6
HETATM    6  C5  UNL     1      26.944   8.233   4.011  1.00  0.00    -0.026 C
HETATM    7  C4  UNL     1      27.608   8.462   2.888  1.00  0.00    -0.026 C
BRANCH   7   8
HETATM    8  C3  UNL     1      27.553   9.822   2.283  1.00  0.00     0.053 C
BRANCH   8   9
HETATM    9  C2  UNL     1      27.797   9.672   0.820  1.00  0.00    -0.033 C
HETATM   10  C1  UNL     1      27.116   8.767   0.126  1.00  0.00     0.007 C
ENDBRANCH   8   9
ENDBRANCH   7   8
ENDBRANCH   1   6
TORSDOF 3
ENDMDL