MODEL 5
REMARK VINA RESULT: -5.578775257      1.650      4.444
REMARK  3 active torsions:
REMARK  status: ('A' for Active; 'I' for Inactive)
REMARK    1  A    between atoms: C2_2  and  N1_3
REMARK    2  A    between atoms: N1_3  and  C3_5
REMARK    3  A    between atoms: C3_5  and  C4_6
ROOT
HETATM    1  C4  UNL     1      27.421   8.229   3.152  1.00  0.00     0.003 C
HETATM    2  C5  UNL     1      28.008   7.285   2.187  1.00  0.00     0.006 C
HETATM    3  C6  UNL     1      28.570   7.817   0.932  1.00  0.00     0.000 C
HETATM    4  C7  UNL     1      28.297   9.259   0.651  1.00  0.00     0.000 C
HETATM    5  C8  UNL     1      26.852   9.520   1.098  1.00  0.00     0.000 C
HETATM    6  C9  UNL     1      26.922   9.518   2.610  1.00  0.00     0.006 C
ENDROOT
BRANCH   1   7
HETATM    7  C3  UNL     1      28.360   8.539   4.328  1.00  0.00     0.123 C
BRANCH   7   8
HETATM    8  N1  UNL     1      28.077   7.663   5.449  1.00  0.00    -0.399 N
ATOM      9  H1  UNL     1      28.790   7.246   6.047  1.00  0.00     0.158 HD
BRANCH   8  10
HETATM   10  C2  UNL     1      26.670   7.456   5.610  1.00  0.00     0.072 C
HETATM   11  C1  UNL     1      26.176   6.343   6.143  1.00  0.00     0.029 C
ENDBRANCH   8  10
ENDBRANCH   7   8
ENDBRANCH   1   7
TORSDOF 3
ENDMDL