MODEL 4
REMARK VINA RESULT: -6.141994114      0.777      4.806
REMARK  3 active torsions:
REMARK  status: ('A' for Active; 'I' for Inactive)
REMARK    1  A    between atoms: C2_2  and  C3_3
REMARK    2  A    between atoms: C4_4  and  C5_5
REMARK    3  A    between atoms: C6_6  and  C7_7
ROOT
HETATM    1  C5  UNL     1      27.855   8.398   4.822  1.00  0.00    -0.004 C
HETATM    2  C6  UNL     1      27.263   7.533   5.573  1.00  0.00    -0.022 C
ENDROOT
BRANCH   1   3
HETATM    3  C4  UNL     1      28.225   8.142   3.453  1.00  0.00    -0.000 C
HETATM    4  C3  UNL     1      27.628   8.797   2.445  1.00  0.00    -0.001 C
BRANCH   4   5
HETATM    5  C2  UNL     1      28.033   8.506   1.094  1.00  0.00    -0.010 C
HETATM    6  C1  UNL     1      27.300   8.918   0.083  1.00  0.00     0.011 C
ENDBRANCH   4   5
ENDBRANCH   1   3
BRANCH   2   7
HETATM    7  C7  UNL     1      26.907   6.189   5.099  1.00  0.00     0.008 C
HETATM    8  C8  UNL     1      26.141   5.369   6.141  1.00  0.00     0.008 C
HETATM    9  C9  UNL     1      25.212   4.950   5.022  1.00  0.00     0.001 C
HETATM   10  C10 UNL     1      25.561   6.264   4.357  1.00  0.00     0.008 C
ENDBRANCH   2   7
TORSDOF 3
ENDMDL