MODEL 2
REMARK VINA RESULT: -5.451821222      0.656      1.778
REMARK  0 active torsions:
REMARK  status: ('A' for Active; 'I' for Inactive)
ROOT
HETATM    1  C1  UNL     1      25.717   6.094   6.170  1.00  0.00     0.001 C
HETATM    2  C2  UNL     1      25.773   4.985   5.111  1.00  0.00     0.001 C
HETATM    3  C3  UNL     1      26.467   5.683   3.952  1.00  0.00     0.009 C
HETATM    4  C4  UNL     1      27.119   6.899   4.517  1.00  0.00    -0.040 A
HETATM    5  C5  UNL     1      27.140   6.647   6.000  1.00  0.00     0.009 C
HETATM    6  C6  UNL     1      26.672   8.276   4.124  1.00  0.00     0.010 A
HETATM    7  C7  UNL     1      28.047   7.748   3.815  1.00  0.00     0.010 A
ENDROOT
TORSDOF 0
ENDMDL