MODEL 2
REMARK VINA RESULT: -4.843786962      0.473      2.517
REMARK  0 active torsions:
REMARK  status: ('A' for Active; 'I' for Inactive)
ROOT
HETATM    1  C1  UNL     1      27.602   6.280   2.666  1.00  0.00     0.005 C
HETATM    2  C2  UNL     1      26.756   6.646   3.853  1.00  0.00     0.005 C
HETATM    3  C3  UNL     1      26.874   8.114   4.148  1.00  0.00    -0.014 C
HETATM    4  C4  UNL     1      26.834   8.973   2.910  1.00  0.00     0.005 C
HETATM    5  C5  UNL     1      27.828   8.548   1.864  1.00  0.00     0.005 C
HETATM    6  C6  UNL     1      28.614   7.378   2.462  1.00  0.00    -0.014 C
HETATM    7  C7  UNL     1      29.257   7.823   3.755  1.00  0.00     0.005 C
HETATM    8  C8  UNL     1      28.263   8.316   4.766  1.00  0.00     0.005 C
ENDROOT
TORSDOF 0
ENDMDL