MODEL 5
REMARK VINA RESULT: -5.448077093      0.685      2.651
REMARK  0 active torsions:
REMARK  status: ('A' for Active; 'I' for Inactive)
ROOT
HETATM    1  C1  UNL     1      27.518   4.822   3.292  1.00  0.00     0.001 C
HETATM    2  C2  UNL     1      27.083   6.218   2.936  1.00  0.00     0.005 C
HETATM    3  C3  UNL     1      26.236   6.747   4.029  1.00  0.00    -0.009 C
HETATM    4  C4  UNL     1      24.869   6.058   4.145  1.00  0.00     0.015 C
HETATM    5  C5  UNL     1      25.680   5.166   4.978  1.00  0.00    -0.036 A
HETATM    6  C6  UNL     1      26.389   4.203   4.048  1.00  0.00     0.010 C
HETATM    7  C7  UNL     1      26.098   5.196   6.277  1.00  0.00     0.015 A
HETATM    8  C8  UNL     1      26.521   6.277   5.400  1.00  0.00    -0.001 A
ENDROOT
TORSDOF 0
ENDMDL