MODEL 2
REMARK VINA RESULT: -5.483546992      2.079      3.509
REMARK  0 active torsions:
REMARK  status: ('A' for Active; 'I' for Inactive)
ROOT
HETATM    1  C1  UNL     1      27.360   9.911   1.897  1.00  0.00     0.012 C
HETATM    2  C2  UNL     1      27.894   9.212   2.724  1.00  0.00    -0.113 C
HETATM    3  C3  UNL     1      28.528   8.346   3.725  1.00  0.00     0.064 C
HETATM    4  C4  UNL     1      27.557   7.968   4.817  1.00  0.00     0.017 C
HETATM    5  C5  UNL     1      26.415   7.134   4.319  1.00  0.00     0.001 C
HETATM    6  C6  UNL     1      26.826   5.960   3.496  1.00  0.00     0.000 C
HETATM    7  C7  UNL     1      27.746   6.434   2.384  1.00  0.00     0.001 C
HETATM    8  C8  UNL     1      28.972   7.026   3.076  1.00  0.00     0.017 C
ENDROOT
TORSDOF 0
ENDMDL