MODEL 1
REMARK VINA RESULT: -4.699217882      0.000      0.000
REMARK  0 active torsions:
REMARK  status: ('A' for Active; 'I' for Inactive)
ROOT
HETATM    1  C1  UNL     1      27.146   6.443   3.313  1.00  0.00     0.010 C
HETATM    2  C2  UNL     1      26.666   7.794   3.888  1.00  0.00    -0.010 C
HETATM    3  C3  UNL     1      27.723   7.811   5.014  1.00  0.00     0.010 C
HETATM    4  C4  UNL     1      28.891   7.983   4.016  1.00  0.00    -0.010 C
HETATM    5  C5  UNL     1      28.379   9.364   3.545  1.00  0.00     0.010 C
HETATM    6  C6  UNL     1      27.140   8.752   2.851  1.00  0.00    -0.010 C
HETATM    7  C7  UNL     1      27.989   7.943   1.849  1.00  0.00     0.010 C
HETATM    8  C8  UNL     1      28.537   7.008   2.951  1.00  0.00    -0.010 C
ENDROOT
TORSDOF 0
ENDMDL