MODEL 1
REMARK VINA RESULT: -6.330087317      0.000      0.000
REMARK  1 active torsions:
REMARK  status: ('A' for Active; 'I' for Inactive)
REMARK    1  A    between atoms: O1_1  and  C1_3
ROOT
HETATM    1  C1  UNL     1      27.644   7.411   4.218  1.00  0.00     0.040 C
HETATM    2  C2  UNL     1      27.781   6.786   2.834  1.00  0.00     0.075 C
HETATM    3  C3  UNL     1      27.024   5.405   2.798  1.00  0.00     0.086 C
HETATM    4  C4  UNL     1      26.424   5.281   4.061  1.00  0.00    -0.182 C
HETATM    5  C5  UNL     1      25.798   5.140   5.305  1.00  0.00     0.083 C
HETATM    6  C6  UNL     1      26.229   6.394   6.139  1.00  0.00     0.041 C
HETATM    7  C7  UNL     1      26.689   7.534   5.280  1.00  0.00     0.006 C
ENDROOT
BRANCH   1   8
HETATM    8  O1  UNL     1      28.864   8.051   4.463  1.00  0.00    -0.365 OA
ATOM      9  H1  UNL     1      29.530   7.386   4.336  1.00  0.00     0.217 HD
ENDBRANCH   1   8
TORSDOF 1
ENDMDL