MODEL 1
REMARK VINA RESULT: -5.319969391      0.000      0.000
REMARK  1 active torsions:
REMARK  status: ('A' for Active; 'I' for Inactive)
REMARK    1  A    between atoms: O1_1  and  C1_3
ROOT
HETATM    1  C1  UNL     1      27.309   7.775   4.486  1.00  0.00     0.118 C
HETATM    2  C2  UNL     1      26.837   7.476   5.869  1.00  0.00     0.032 C
HETATM    3  C3  UNL     1      26.689   6.006   6.133  1.00  0.00     0.002 C
HETATM    4  C4  UNL     1      25.484   5.485   5.437  1.00  0.00     0.000 C
HETATM    5  C5  UNL     1      25.411   5.678   3.987  1.00  0.00     0.000 C
HETATM    6  C6  UNL     1      26.679   5.696   3.222  1.00  0.00     0.002 C
HETATM    7  C7  UNL     1      27.754   6.575   3.711  1.00  0.00     0.032 C
ENDROOT
BRANCH   1   8
HETATM    8  O1  UNL     1      26.400   8.477   3.715  1.00  0.00    -0.396 OA
ATOM      9  H1  UNL     1      25.597   8.704   4.170  1.00  0.00     0.210 HD
ENDBRANCH   1   8
TORSDOF 1
ENDMDL