MODEL 5
REMARK VINA RESULT: -6.098820664      0.793      2.973
REMARK  0 active torsions:
REMARK  status: ('A' for Active; 'I' for Inactive)
ROOT
HETATM    1  C1  UNL     1      25.973   5.599   6.047  1.00  0.00     0.001 C
HETATM    2  C2  UNL     1      26.664   6.903   5.786  1.00  0.00     0.005 C
HETATM    3  C3  UNL     1      26.509   7.129   4.305  1.00  0.00    -0.005 C
HETATM    4  C4  UNL     1      27.839   7.388   3.604  1.00  0.00     0.011 C
HETATM    5  C5  UNL     1      27.882   5.920   3.270  1.00  0.00    -0.005 A
HETATM    6  C6  UNL     1      26.816   5.444   2.340  1.00  0.00     0.015 A
HETATM    7  C7  UNL     1      26.473   5.776   3.718  1.00  0.00    -0.033 A
HETATM    8  C8  UNL     1      26.065   4.791   4.753  1.00  0.00     0.010 C
ENDROOT
TORSDOF 0
ENDMDL