MODEL 4
REMARK VINA RESULT: -6.137015573      0.700      1.255
REMARK  0 active torsions:
REMARK  status: ('A' for Active; 'I' for Inactive)
ROOT
HETATM    1  C1  UNL     1      27.244   6.504   2.999  1.00  0.00     0.000 C
HETATM    2  C2  UNL     1      27.039   7.561   4.017  1.00  0.00     0.000 C
HETATM    3  C3  UNL     1      27.356   7.130   5.428  1.00  0.00     0.005 C
HETATM    4  C4  UNL     1      26.119   6.508   6.029  1.00  0.00    -0.005 A
HETATM    5  C5  UNL     1      25.374   5.793   5.033  1.00  0.00    -0.001 A
HETATM    6  C6  UNL     1      25.967   4.740   4.246  1.00  0.00    -0.005 A
HETATM    7  C7  UNL     1      27.224   5.109   3.520  1.00  0.00     0.005 C
HETATM    8  C8  UNL     1      26.166   4.948   5.797  1.00  0.00    -0.001 A
ENDROOT
TORSDOF 0
ENDMDL