MODEL 2
REMARK VINA RESULT: -5.487053017      0.607      2.317
REMARK  0 active torsions:
REMARK  status: ('A' for Active; 'I' for Inactive)
ROOT
HETATM    1  C1  UNL     1      27.367   6.388   3.776  1.00  0.00     0.011 C
HETATM    2  C2  UNL     1      26.229   5.459   3.326  1.00  0.00    -0.004 A
HETATM    3  C3  UNL     1      25.916   4.451   4.376  1.00  0.00    -0.004 A
HETATM    4  C4  UNL     1      26.516   4.838   5.703  1.00  0.00     0.015 C
HETATM    5  C5  UNL     1      25.870   6.204   5.523  1.00  0.00    -0.032 A
HETATM    6  C6  UNL     1      26.524   7.279   6.101  1.00  0.00     0.015 A
HETATM    7  C7  UNL     1      26.661   7.295   4.698  1.00  0.00    -0.004 A
HETATM    8  C8  UNL     1      25.171   5.712   4.382  1.00  0.00     0.003 A
ENDROOT
TORSDOF 0
ENDMDL