MODEL 4
REMARK VINA RESULT: -6.037076643      0.950      2.966
REMARK  0 active torsions:
REMARK  status: ('A' for Active; 'I' for Inactive)
ROOT
HETATM    1  C1  UNL     1      26.148   4.776   4.862  1.00  0.00     0.000 C
HETATM    2  C2  UNL     1      25.583   5.706   5.922  1.00  0.00     0.000 C
HETATM    3  C3  UNL     1      26.718   6.709   6.184  1.00  0.00     0.005 C
HETATM    4  C4  UNL     1      26.710   7.607   4.984  1.00  0.00    -0.010 C
HETATM    5  C5  UNL     1      28.046   8.244   4.663  1.00  0.00     0.005 C
HETATM    6  C6  UNL     1      28.160   7.321   3.484  1.00  0.00     0.005 C
HETATM    7  C7  UNL     1      26.688   6.938   3.681  1.00  0.00    -0.010 C
HETATM    8  C8  UNL     1      26.452   5.501   3.611  1.00  0.00     0.005 C
ENDROOT
TORSDOF 0
ENDMDL