MODEL 3
REMARK VINA RESULT: -5.986048995      1.208      2.658
REMARK  0 active torsions:
REMARK  status: ('A' for Active; 'I' for Inactive)
ROOT
HETATM    1  C1  UNL     1      25.360   5.290   5.248  1.00  0.00     0.001 C
HETATM    2  C2  UNL     1      25.791   5.916   3.963  1.00  0.00     0.005 C
HETATM    3  C3  UNL     1      27.192   6.471   4.241  1.00  0.00    -0.006 C
HETATM    4  C4  UNL     1      27.120   6.886   5.687  1.00  0.00    -0.006 C
HETATM    5  C5  UNL     1      25.932   6.191   6.295  1.00  0.00     0.005 C
HETATM    6  C6  UNL     1      26.841   8.297   5.183  1.00  0.00    -0.005 A
HETATM    7  C7  UNL     1      27.965   8.948   4.491  1.00  0.00     0.010 A
HETATM    8  C8  UNL     1      27.290   7.873   3.753  1.00  0.00    -0.005 A
ENDROOT
TORSDOF 0
ENDMDL