MODEL 4
REMARK VINA RESULT: -4.886458210      2.787      4.023
REMARK  0 active torsions:
REMARK  status: ('A' for Active; 'I' for Inactive)
ROOT
HETATM    1  C1  UNL     1      27.849   8.846   1.437  1.00  0.00     0.005 C
HETATM    2  C2  UNL     1      27.554   9.639   2.659  1.00  0.00     0.032 C
HETATM    3  C3  UNL     1      27.766   8.927   3.947  1.00  0.00     0.122 C
HETATM    4  C4  UNL     1      26.691   7.973   4.330  1.00  0.00     0.034 C
HETATM    5  C5  UNL     1      27.099   6.695   3.654  1.00  0.00     0.034 C
HETATM    6  C6  UNL     1      28.477   7.073   3.103  1.00  0.00     0.122 C
HETATM    7  C7  UNL     1      28.262   7.443   1.659  1.00  0.00     0.032 C
HETATM    8  O1  UNL     1      28.910   8.153   3.857  1.00  0.00    -0.381 OA
ENDROOT
TORSDOF 0
ENDMDL