MODEL 3
REMARK VINA RESULT: -5.921699398      0.643      2.417
REMARK  0 active torsions:
REMARK  status: ('A' for Active; 'I' for Inactive)
ROOT
HETATM    1  C1  UNL     1      25.972   6.266   6.324  1.00  0.00     0.006 C
HETATM    2  C2  UNL     1      25.468   5.178   5.367  1.00  0.00     0.006 C
HETATM    3  C3  UNL     1      25.607   5.860   4.041  1.00  0.00    -0.005 A
HETATM    4  C4  UNL     1      26.902   5.511   3.310  1.00  0.00     0.015 A
HETATM    5  C5  UNL     1      26.808   6.671   4.123  1.00  0.00    -0.033 A
HETATM    6  C6  UNL     1      26.942   8.088   3.796  1.00  0.00     0.011 C
HETATM    7  C7  UNL     1      26.904   8.373   5.308  1.00  0.00     0.006 C
HETATM    8  C8  UNL     1      27.110   6.867   5.536  1.00  0.00    -0.006 C
ENDROOT
TORSDOF 0
ENDMDL