MODEL 5
REMARK VINA RESULT: -3.410984210      2.672      3.594
REMARK  0 active torsions:
REMARK  status: ('A' for Active; 'I' for Inactive)
ROOT
HETATM    1  C1  UNL     1      26.650   7.194   4.183  1.00  0.00     0.016 C
HETATM    2  C2  UNL     1      27.215   8.117   5.273  1.00  0.00     0.016 C
HETATM    3  C3  UNL     1      28.177   8.914   4.454  1.00  0.00     0.049 C
HETATM    4  C4  UNL     1      28.967   7.772   3.793  1.00  0.00     0.030 C
HETATM    5  C5  UNL     1      27.669   7.418   3.112  1.00  0.00     0.049 C
HETATM    6  S1  UNL     1      27.454   9.210   2.841  1.00  0.00    -0.159 SA
ENDROOT
TORSDOF 0
ENDMDL