MODEL 2
REMARK VINA RESULT: -4.502791727      0.040      2.482
REMARK  0 active torsions:
REMARK  status: ('A' for Active; 'I' for Inactive)
ROOT
HETATM    1  C1  UNL     1      27.844   8.445   2.039  1.00  0.00     0.010 C
HETATM    2  C2  UNL     1      27.845   7.206   2.962  1.00  0.00    -0.010 C
HETATM    3  C3  UNL     1      29.153   7.607   3.676  1.00  0.00     0.010 C
HETATM    4  C4  UNL     1      28.497   8.835   4.348  1.00  0.00    -0.010 C
HETATM    5  C5  UNL     1      27.521   7.955   5.164  1.00  0.00     0.010 C
HETATM    6  C6  UNL     1      26.736   7.525   3.902  1.00  0.00    -0.010 C
HETATM    7  C7  UNL     1      26.281   8.965   3.585  1.00  0.00     0.010 C
HETATM    8  C8  UNL     1      27.714   9.421   3.228  1.00  0.00    -0.010 C
ENDROOT
TORSDOF 0
ENDMDL