MODEL 2
REMARK VINA RESULT: -5.806935312      0.734      2.989
REMARK  0 active torsions:
REMARK  status: ('A' for Active; 'I' for Inactive)
ROOT
HETATM    1  C1  UNL     1      25.836   5.706   6.211  1.00  0.00     0.001 C
HETATM    2  C2  UNL     1      26.678   6.916   5.789  1.00  0.00     0.005 C
HETATM    3  C3  UNL     1      26.450   7.006   4.294  1.00  0.00    -0.010 C
HETATM    4  C4  UNL     1      27.740   7.088   3.522  1.00  0.00     0.005 C
HETATM    5  C5  UNL     1      27.958   5.737   2.880  1.00  0.00     0.001 C
HETATM    6  C6  UNL     1      26.569   5.209   2.670  1.00  0.00     0.005 C
HETATM    7  C7  UNL     1      25.810   5.705   3.874  1.00  0.00    -0.010 C
HETATM    8  C8  UNL     1      26.168   4.779   5.032  1.00  0.00     0.005 C
ENDROOT
TORSDOF 0
ENDMDL