MODEL 4
REMARK VINA RESULT: -6.707079974      2.201      3.746
REMARK  12 active torsions:
REMARK  status: ('A' for Active; 'I' for Inactive)
REMARK    1  A    between atoms: O1_2  and  C2_3
REMARK    2  A    between atoms: C2_3  and  C3_4
REMARK    3  A    between atoms: C3_4  and  N1_5
REMARK    4  A    between atoms: N1_5  and  C4_7
REMARK    5  A    between atoms: C5_10  and  C6_11
REMARK    6  A    between atoms: C6_11  and  O2_12
REMARK    7  A    between atoms: O2_12  and  C7_13
REMARK    8  A    between atoms: C7_13  and  C8_14
REMARK    9  A    between atoms: C8_14  and  C9_15
REMARK   10  A    between atoms: C9_15  and  C10_16
REMARK   11  A    between atoms: C10_16  and  C11_17
REMARK   12  A    between atoms: C18_24  and  N3_25
ROOT
HETATM    1  C4  UNL     1      10.602  19.046  61.440  1.00  0.00     0.680 A
HETATM    2  N2  UNL     1      11.601  18.857  60.557  1.00  0.00    -0.193 N
ATOM      3  H2  UNL     1      12.567  18.998  60.852  1.00  0.00     0.184 HD
HETATM    4  C5  UNL     1      11.342  18.485  59.295  1.00  0.00     0.053 A
HETATM    5  C17 UNL     1      10.026  18.301  58.926  1.00  0.00     0.076 A
HETATM    6  C18 UNL     1       8.987  18.493  59.833  1.00  0.00     0.116 A
HETATM    7  N4  UNL     1       9.316  18.863  61.073  1.00  0.00    -0.177 N
ATOM      8  H4  UNL     1       8.576  19.012  61.760  1.00  0.00     0.185 HD
ENDROOT
BRANCH   4   9
HETATM    9  C6  UNL     1      12.422  18.261  58.268  1.00  0.00     0.225 C
BRANCH   9  10
HETATM   10  O2  UNL     1      12.171  19.116  57.252  1.00  0.00    -0.382 OA
BRANCH  10  11
HETATM   11  C7  UNL     1      12.426  20.469  57.485  1.00  0.00     0.195 C
BRANCH  11  12
HETATM   12  C8  UNL     1      13.795  20.734  57.919  1.00  0.00    -0.001 C
BRANCH  12  13
HETATM   13  C9  UNL     1      14.487  21.987  57.696  1.00  0.00    -0.006 C
BRANCH  13  14
HETATM   14  C10 UNL     1      15.378  22.283  56.595  1.00  0.00    -0.022 C
BRANCH  14  15
HETATM   15  C11 UNL     1      16.158  21.234  55.903  1.00  0.00     0.008 C
HETATM   16  C12 UNL     1      15.289  20.622  54.818  1.00  0.00     0.008 C
HETATM   17  C13 UNL     1      15.296  21.308  53.525  1.00  0.00     0.001 C
HETATM   18  C14 UNL     1      16.513  22.090  53.155  1.00  0.00     0.000 C
HETATM   19  C15 UNL     1      17.215  22.730  54.320  1.00  0.00     0.001 C
HETATM   20  C16 UNL     1      17.465  21.643  55.319  1.00  0.00     0.008 C
ENDBRANCH  14  15
ENDBRANCH  13  14
ENDBRANCH  12  13
ENDBRANCH  11  12
ENDBRANCH  10  11
ENDBRANCH   9  10
ENDBRANCH   4   9
BRANCH   1  21
HETATM   21  N1  UNL     1      10.889  19.405  62.653  1.00  0.00    -0.224 N
ATOM     22  H1  UNL     1      10.144  19.623  63.316  1.00  0.00     0.177 HD
BRANCH  21  23
HETATM   23  C3  UNL     1      12.285  19.495  63.058  1.00  0.00     0.164 C
BRANCH  23  24
HETATM   24  C2  UNL     1      12.792  20.891  62.965  1.00  0.00     0.187 C
BRANCH  24  25
HETATM   25  O1  UNL     1      13.272  21.179  61.721  1.00  0.00    -0.394 OA
HETATM   26  C1  UNL     1      12.903  22.431  61.272  1.00  0.00     0.201 C
ENDBRANCH  24  25
ENDBRANCH  23  24
ENDBRANCH  21  23
ENDBRANCH   1  21
BRANCH   6  27
HETATM   27  N3  UNL     1       7.754  18.324  59.500  1.00  0.00    -0.385 N
ATOM     28  H32 UNL     1       7.094  17.894  60.147  1.00  0.00     0.157 HD
ATOM     29  H31 UNL     1       7.398  18.612  58.589  1.00  0.00     0.157 HD
ENDBRANCH   6  27
TORSDOF 12
ENDMDL