MODEL 2
REMARK VINA RESULT: -6.538701563      1.251      1.629
REMARK  11 active torsions:
REMARK  status: ('A' for Active; 'I' for Inactive)
REMARK    1  A    between atoms: C2_5  and  O2_6
REMARK    2  A    between atoms: C3_11  and  C4_12
REMARK    3  A    between atoms: C4_12  and  C5_13
REMARK    4  A    between atoms: C6_14  and  C7_15
REMARK    5  A    between atoms: C7_15  and  C8_16
REMARK    6  A    between atoms: C8_16  and  C9_17
REMARK    7  A    between atoms: C9_17  and  C10_18
REMARK    8  A    between atoms: C10_18  and  C11_19
REMARK    9  A    between atoms: C11_19  and  C12_20
REMARK   10  A    between atoms: C12_20  and  S1_21
REMARK   11  A    between atoms: S1_21  and  C13_22
ROOT
HETATM    1  C5  UNL     1      10.885  18.560  60.416  1.00  0.00    -0.028 C
HETATM    2  C6  UNL     1      10.448  17.632  59.590  1.00  0.00    -0.031 C
ENDROOT
BRANCH   2   3
HETATM    3  C7  UNL     1      10.639  17.845  58.111  1.00  0.00     0.027 C
BRANCH   3   4
HETATM    4  C8  UNL     1      12.006  17.415  57.694  1.00  0.00     0.004 C
BRANCH   4   5
HETATM    5  C9  UNL     1      12.838  18.613  57.331  1.00  0.00     0.000 C
BRANCH   5   6
HETATM    6  C10 UNL     1      13.877  18.905  58.375  1.00  0.00     0.001 C
BRANCH   6   7
HETATM    7  C11 UNL     1      13.971  20.399  58.636  1.00  0.00     0.010 C
BRANCH   7   8
HETATM    8  C12 UNL     1      13.593  21.106  57.353  1.00  0.00     0.074 C
BRANCH   8   9
HETATM    9  S1  UNL     1      14.992  22.093  56.748  1.00  0.00    -0.164 SA
BRANCH   9  10
HETATM   10  C13 UNL     1      16.247  21.053  55.954  1.00  0.00     0.047 C
HETATM   11  C14 UNL     1      17.415  21.906  55.588  1.00  0.00     0.015 C
HETATM   12  C15 UNL     1      17.756  21.897  54.126  1.00  0.00     0.001 C
HETATM   13  C16 UNL     1      16.578  22.148  53.230  1.00  0.00     0.000 C
HETATM   14  C17 UNL     1      15.292  21.579  53.780  1.00  0.00     0.001 C
HETATM   15  C18 UNL     1      15.588  20.417  54.732  1.00  0.00     0.015 C
ENDBRANCH   9  10
ENDBRANCH   8   9
ENDBRANCH   7   8
ENDBRANCH   6   7
ENDBRANCH   5   6
ENDBRANCH   4   5
ENDBRANCH   3   4
ENDBRANCH   2   3
BRANCH   1  16
HETATM   16  C4  UNL     1      10.764  18.481  61.883  1.00  0.00     0.070 C
BRANCH  16  17
HETATM   17  C3  UNL     1      11.106  19.750  62.593  1.00  0.00     0.285 C
HETATM   18  C1  UNL     1      12.264  19.509  63.534  1.00  0.00     0.252 C
HETATM   19  O1  UNL     1      12.294  18.537  64.302  1.00  0.00    -0.271 OA
HETATM   20  N1  UNL     1      13.197  20.562  63.332  1.00  0.00    -0.310 N
HETATM   21  C2  UNL     1      12.596  21.479  62.407  1.00  0.00     0.429 C
ATOM     22  H1  UNL     1      14.117  20.650  63.762  1.00  0.00     0.166 HD
HETATM   23  N2  UNL     1      11.693  20.662  61.618  1.00  0.00    -0.018 N
ATOM     24  H22 UNL     1      11.011  21.193  61.076  1.00  0.00     0.283 HD
ATOM     25  H21 UNL     1      12.131  20.201  60.821  1.00  0.00     0.283 HD
BRANCH  21  26
HETATM   26  O2  UNL     1      13.544  22.123  61.606  1.00  0.00    -0.354 OA
ATOM     27  H2  UNL     1      13.295  23.017  61.400  1.00  0.00     0.214 HD
ENDBRANCH  21  26
ENDBRANCH  16  17
ENDBRANCH   1  16
TORSDOF 11
ENDMDL