MODEL 1
REMARK VINA RESULT: -6.330282077      0.000      0.000
REMARK  11 active torsions:
REMARK  status: ('A' for Active; 'I' for Inactive)
REMARK    1  A    between atoms: N2_6  and  C4_8
REMARK    2  A    between atoms: C4_8  and  C5_9
REMARK    3  A    between atoms: C5_9  and  C6_10
REMARK    4  A    between atoms: C6_10  and  C7_11
REMARK    5  A    between atoms: C7_11  and  C8_12
REMARK    6  A    between atoms: C8_12  and  C9_13
REMARK    7  A    between atoms: C9_13  and  C10_14
REMARK    8  A    between atoms: C10_14  and  C11_15
REMARK    9  A    between atoms: C11_15  and  C12_16
REMARK   10  A    between atoms: C12_16  and  N3_17
REMARK   11  A    between atoms: C15_25  and  C16_26
ROOT
HETATM    1  C1  UNL     1       9.810  17.724  60.092  1.00  0.00     0.070 C
HETATM    2  C2  UNL     1      11.025  18.468  60.494  1.00  0.00     0.035 A
HETATM    3  N1  UNL     1      11.235  18.788  61.806  1.00  0.00    -0.195 N
ATOM      4  H1  UNL     1      10.539  18.479  62.485  1.00  0.00     0.184 HD
HETATM    5  C3  UNL     1      12.275  19.471  62.264  1.00  0.00     0.678 A
HETATM    6  N2  UNL     1      12.442  19.758  63.524  1.00  0.00    -0.226 N
ATOM      7  H2  UNL     1      13.257  20.286  63.837  1.00  0.00     0.177 HD
HETATM    8  N4  UNL     1      13.201  19.888  61.384  1.00  0.00    -0.193 N
ATOM      9  H4  UNL     1      14.013  20.417  61.704  1.00  0.00     0.184 HD
HETATM   10  C13 UNL     1      13.053  19.607  60.105  1.00  0.00     0.056 A
HETATM   11  C14 UNL     1      11.960  18.882  59.585  1.00  0.00     0.016 A
HETATM   12  C15 UNL     1      12.012  18.699  58.159  1.00  0.00    -0.044 C
HETATM   13  C19 UNL     1      12.102  20.111  57.559  1.00  0.00     0.150 C
HETATM   14  N5  UNL     1      13.379  20.688  57.937  1.00  0.00    -0.412 N
ATOM     15  H5  UNL     1      13.786  21.486  57.448  1.00  0.00     0.153 HD
HETATM   16  C20 UNL     1      14.027  20.056  59.048  1.00  0.00     0.173 C
ENDROOT
BRANCH   6  17
HETATM   17  C4  UNL     1      11.448  19.312  64.463  1.00  0.00     0.138 C
BRANCH  17  18
HETATM   18  C5  UNL     1      11.907  18.201  65.341  1.00  0.00     0.020 C
BRANCH  18  19
HETATM   19  C6  UNL     1      11.262  16.889  65.059  1.00  0.00     0.002 C
BRANCH  19  20
HETATM   20  C7  UNL     1       9.813  17.054  64.657  1.00  0.00     0.000 C
BRANCH  20  21
HETATM   21  C8  UNL     1       9.439  16.039  63.587  1.00  0.00     0.000 C
BRANCH  21  22
HETATM   22  C9  UNL     1       9.459  14.664  64.239  1.00  0.00     0.000 C
BRANCH  22  23
HETATM   23  C10 UNL     1       8.091  14.260  64.699  1.00  0.00     0.002 C
BRANCH  23  24
HETATM   24  C11 UNL     1       8.136  13.493  65.994  1.00  0.00     0.027 C
BRANCH  24  25
HETATM   25  C12 UNL     1       9.376  13.798  66.786  1.00  0.00     0.229 C
BRANCH  25  26
HETATM   26  N3  UNL     1       9.705  12.675  67.672  1.00  0.00    -0.079 N
ATOM     27  H33 UNL     1       9.412  12.851  68.633  1.00  0.00     0.274 HD
ATOM     28  H32 UNL     1       9.123  11.859  67.484  1.00  0.00     0.274 HD
ATOM     29  H31 UNL     1      10.699  12.455  67.611  1.00  0.00     0.274 HD
ENDBRANCH  25  26
ENDBRANCH  24  25
ENDBRANCH  23  24
ENDBRANCH  22  23
ENDBRANCH  21  22
ENDBRANCH  20  21
ENDBRANCH  19  20
ENDBRANCH  18  19
ENDBRANCH  17  18
ENDBRANCH   6  17
BRANCH  12  30
HETATM   30  C16 UNL     1      11.212  17.758  57.406  1.00  0.00     0.017 A
HETATM   31  C17 UNL     1      11.326  16.277  57.578  1.00  0.00     0.010 A
HETATM   32  C18 UNL     1      11.906  16.854  56.364  1.00  0.00     0.010 A
ENDBRANCH  12  30
TORSDOF 11
ENDMDL