MODEL 4
REMARK VINA RESULT: -7.454730567      3.179      5.218
REMARK  13 active torsions:
REMARK  status: ('A' for Active; 'I' for Inactive)
REMARK    1  A    between atoms: C3_3  and  C4_4
REMARK    2  A    between atoms: C5_5  and  C6_6
REMARK    3  A    between atoms: C8_8  and  C9_9
REMARK    4  A    between atoms: C10_10  and  C11_11
REMARK    5  A    between atoms: C11_11  and  C12_13
REMARK    6  A    between atoms: C12_13  and  C13_14
REMARK    7  A    between atoms: C15_16  and  C16_17
REMARK    8  A    between atoms: C17_18  and  C18_19
REMARK    9  A    between atoms: C18_19  and  O2_20
REMARK   10  A    between atoms: C18_19  and  C19_22
REMARK   11  A    between atoms: C19_22  and  O3_23
REMARK   12  A    between atoms: C19_22  and  C20_25
REMARK   13  A    between atoms: C20_25  and  O4_27
ROOT
HETATM    1  C13 UNL     1      11.033  17.411  57.467  1.00  0.00     0.001 A
HETATM    2  C14 UNL     1      12.115  16.827  56.674  1.00  0.00     0.014 A
HETATM    3  C15 UNL     1      12.223  18.282  57.219  1.00  0.00     0.013 A
ENDROOT
BRANCH   1   4
HETATM    4  C12 UNL     1      10.729  17.028  58.885  1.00  0.00     0.088 C
BRANCH   4   5
HETATM    5  C11 UNL     1       9.886  18.104  59.461  1.00  0.00     0.149 C
HETATM    6  O1  UNL     1       8.636  18.068  59.215  1.00  0.00    -0.293 OA
BRANCH   5   7
HETATM    7  C10 UNL     1      10.388  19.178  60.275  1.00  0.00     0.050 C
HETATM    8  C9  UNL     1      11.348  18.978  61.187  1.00  0.00     0.004 C
BRANCH   8   9
HETATM    9  C8  UNL     1      11.838  20.088  62.001  1.00  0.00     0.007 C
HETATM   10  C6  UNL     1      11.952  19.964  63.321  1.00  0.00    -0.062 C
HETATM   11  C7  UNL     1      11.584  18.683  63.948  1.00  0.00     0.048 C
BRANCH  10  12
HETATM   12  C5  UNL     1      12.444  21.105  64.068  1.00  0.00     0.007 C
HETATM   13  C4  UNL     1      12.584  22.309  63.577  1.00  0.00     0.000 C
BRANCH  13  14
HETATM   14  C3  UNL     1      13.090  23.377  64.431  1.00  0.00    -0.004 C
HETATM   15  C2  UNL     1      13.069  24.606  63.977  1.00  0.00    -0.031 C
HETATM   16  C1  UNL     1      12.552  24.939  62.634  1.00  0.00     0.036 C
ENDBRANCH  13  14
ENDBRANCH  10  12
ENDBRANCH   8   9
ENDBRANCH   5   7
ENDBRANCH   4   5
ENDBRANCH   1   4
BRANCH   3  17
HETATM   17  C16 UNL     1      13.313  18.453  58.181  1.00  0.00    -0.023 C
HETATM   18  C17 UNL     1      13.780  19.663  58.471  1.00  0.00     0.003 C
BRANCH  18  19
HETATM   19  C18 UNL     1      13.283  20.929  57.887  1.00  0.00     0.172 C
BRANCH  19  20
HETATM   20  O2  UNL     1      12.517  21.623  58.800  1.00  0.00    -0.389 OA
ATOM     21  H2  UNL     1      12.279  22.479  58.461  1.00  0.00     0.210 HD
ENDBRANCH  19  20
BRANCH  19  22
HETATM   22  C19 UNL     1      14.409  21.817  57.409  1.00  0.00     0.178 C
BRANCH  22  23
HETATM   23  O3  UNL     1      15.173  22.165  58.517  1.00  0.00    -0.390 OA
ATOM     24  H3  UNL     1      15.736  22.888  58.265  1.00  0.00     0.210 HD
ENDBRANCH  22  23
BRANCH  22  25
HETATM   25  C20 UNL     1      15.250  21.224  56.329  1.00  0.00     0.145 C
HETATM   26  C21 UNL     1      16.232  22.257  55.803  1.00  0.00     0.042 C
BRANCH  25  27
HETATM   27  O4  UNL     1      14.423  20.913  55.224  1.00  0.00    -0.393 OA
ATOM     28  H4  UNL     1      14.482  19.982  55.049  1.00  0.00     0.210 HD
ENDBRANCH  25  27
ENDBRANCH  22  25
ENDBRANCH  19  22
ENDBRANCH  18  19
ENDBRANCH   3  17
TORSDOF 13
ENDMDL