MODEL 3
REMARK VINA RESULT: -6.264214367      1.567      2.672
REMARK  12 active torsions:
REMARK  status: ('A' for Active; 'I' for Inactive)
REMARK    1  A    between atoms: O1_1  and  C1_3
REMARK    2  A    between atoms: C9_11  and  C10_12
REMARK    3  A    between atoms: C10_12  and  C11_13
REMARK    4  A    between atoms: C11_13  and  C12_14
REMARK    5  A    between atoms: C12_14  and  C13_15
REMARK    6  A    between atoms: C13_15  and  C14_16
REMARK    7  A    between atoms: C14_16  and  C15_17
REMARK    8  A    between atoms: C15_17  and  C16_18
REMARK    9  A    between atoms: C16_18  and  C17_19
REMARK   10  A    between atoms: C17_19  and  C18_20
REMARK   11  A    between atoms: C18_20  and  N1_21
REMARK   12  A    between atoms: N1_21  and  C19_23
ROOT
HETATM    1  C14 UNL     1      10.971  17.071  57.899  1.00  0.00     0.000 C
ENDROOT
BRANCH   1   2
HETATM    2  C13 UNL     1      10.487  18.118  58.872  1.00  0.00     0.000 C
BRANCH   2   3
HETATM    3  C12 UNL     1      10.212  17.562  60.234  1.00  0.00     0.000 C
BRANCH   3   4
HETATM    4  C11 UNL     1      10.538  18.534  61.342  1.00  0.00     0.000 C
BRANCH   4   5
HETATM    5  C10 UNL     1      11.800  19.284  61.088  1.00  0.00     0.007 C
BRANCH   5   6
HETATM    6  C9  UNL     1      12.161  20.143  62.288  1.00  0.00     0.015 C
HETATM    7  C1  UNL     1      12.419  21.528  61.839  1.00  0.00     0.122 C
HETATM    8  C2  UNL     1      13.211  22.415  62.693  1.00  0.00     0.036 C
HETATM    9  C3  UNL     1      13.324  22.135  64.135  1.00  0.00    -0.012 C
HETATM   10  C4  UNL     1      12.087  21.761  64.861  1.00  0.00     0.005 C
HETATM   11  C7  UNL     1      14.366  21.058  64.469  1.00  0.00     0.009 C
HETATM   12  C5  UNL     1      12.237  20.296  65.105  1.00  0.00     0.005 C
HETATM   13  C6  UNL     1      13.468  19.814  64.405  1.00  0.00    -0.014 C
HETATM   14  C8  UNL     1      13.302  19.472  62.973  1.00  0.00     0.012 C
BRANCH   7  15
HETATM   15  O1  UNL     1      13.082  21.443  60.587  1.00  0.00    -0.395 OA
ATOM     16  H1  UNL     1      12.414  21.341  59.919  1.00  0.00     0.210 HD
ENDBRANCH   7  15
ENDBRANCH   5   6
ENDBRANCH   4   5
ENDBRANCH   3   4
ENDBRANCH   2   3
ENDBRANCH   1   2
BRANCH   1  17
HETATM   17  C15 UNL     1      12.253  17.516  57.242  1.00  0.00     0.000 C
BRANCH  17  18
HETATM   18  C16 UNL     1      12.553  18.975  57.488  1.00  0.00     0.002 C
BRANCH  18  19
HETATM   19  C17 UNL     1      13.952  19.096  58.088  1.00  0.00     0.020 C
BRANCH  19  20
HETATM   20  C18 UNL     1      14.590  20.408  57.700  1.00  0.00     0.138 C
BRANCH  20  21
HETATM   21  N1  UNL     1      14.337  20.726  56.327  1.00  0.00    -0.223 N
ATOM     22  H1  UNL     1      13.409  20.569  55.934  1.00  0.00     0.177 HD
BRANCH  21  23
HETATM   23  C19 UNL     1      15.276  21.210  55.583  1.00  0.00     0.709 A
HETATM   24  N2  UNL     1      16.319  21.909  56.077  1.00  0.00    -0.115 N
HETATM   25  N3  UNL     1      17.126  22.284  55.088  1.00  0.00    -0.213 N
ATOM     26  H2  UNL     1      16.468  22.118  57.064  1.00  0.00     0.207 HD
HETATM   27  N4  UNL     1      16.576  21.815  53.995  1.00  0.00    -0.213 N
ATOM     28  H3  UNL     1      17.990  22.822  55.164  1.00  0.00     0.210 HD
HETATM   29  N5  UNL     1      15.454  21.159  54.262  1.00  0.00    -0.115 N
ATOM     30  H4  UNL     1      16.962  21.937  53.059  1.00  0.00     0.210 HD
ATOM     31  H5  UNL     1      14.842  20.702  53.585  1.00  0.00     0.207 HD
ENDBRANCH  21  23
ENDBRANCH  20  21
ENDBRANCH  19  20
ENDBRANCH  18  19
ENDBRANCH  17  18
ENDBRANCH   1  17
TORSDOF 12
ENDMDL