MODEL 3
REMARK VINA RESULT: -7.030877376      1.747      2.290
REMARK  10 active torsions:
REMARK  status: ('A' for Active; 'I' for Inactive)
REMARK    1  A    between atoms: C2_2  and  C4_4
REMARK    2  A    between atoms: C4_4  and  N1_5
REMARK    3  A    between atoms: N1_5  and  C5_6
REMARK    4  A    between atoms: C5_6  and  C6_7
REMARK    5  A    between atoms: C6_7  and  C7_8
REMARK    6  A    between atoms: C7_8  and  C8_9
REMARK    7  A    between atoms: C8_9  and  N2_10
REMARK    8  A    between atoms: N2_10  and  C9_12
REMARK    9  A    between atoms: C12_17  and  N4_18
REMARK   10  A    between atoms: C14_25  and  C15_26
ROOT
HETATM    1  C8  UNL     1      12.904  22.377  61.560  1.00  0.00     0.119 C
ENDROOT
BRANCH   1   2
HETATM    2  C7  UNL     1      13.810  23.168  60.683  1.00  0.00     0.021 C
BRANCH   2   3
HETATM    3  C6  UNL     1      13.796  22.706  59.217  1.00  0.00     0.022 C
BRANCH   3   4
HETATM    4  C5  UNL     1      13.651  21.245  59.168  1.00  0.00     0.127 C
BRANCH   4   5
HETATM    5  N1  UNL     1      14.141  20.514  58.060  1.00  0.00    -0.373 N
HETATM    6  C14 UNL     1      14.288  21.183  56.879  1.00  0.00     0.067 C
BRANCH   5   7
HETATM    7  C4  UNL     1      13.913  19.157  58.223  1.00  0.00     0.067 C
BRANCH   7   8
HETATM    8  C2  UNL     1      12.448  18.788  58.112  1.00  0.00     0.016 C
HETATM    9  C1  UNL     1      12.259  17.695  57.044  1.00  0.00     0.015 C
HETATM   10  C3  UNL     1      11.859  18.239  59.372  1.00  0.00     0.015 C
ENDBRANCH   7   8
ENDBRANCH   5   7
BRANCH   6  11
HETATM   11  C15 UNL     1      15.406  21.061  55.951  1.00  0.00     0.024 C
HETATM   12  C16 UNL     1      16.586  21.963  56.088  1.00  0.00     0.010 C
HETATM   13  C17 UNL     1      17.397  21.701  54.813  1.00  0.00     0.001 C
HETATM   14  C18 UNL     1      16.375  21.337  53.763  1.00  0.00     0.001 C
HETATM   15  C19 UNL     1      15.083  20.979  54.478  1.00  0.00     0.010 C
ENDBRANCH   6  11
ENDBRANCH   4   5
ENDBRANCH   3   4
ENDBRANCH   2   3
ENDBRANCH   1   2
BRANCH   1  16
HETATM   16  N2  UNL     1      12.421  23.287  62.612  1.00  0.00    -0.398 N
ATOM     17  H2  UNL     1      11.428  23.510  62.678  1.00  0.00     0.158 HD
BRANCH  16  18
HETATM   18  C9  UNL     1      13.251  23.798  63.444  1.00  0.00     0.101 C
HETATM   19  C10 UNL     1      13.276  25.178  63.840  1.00  0.00     0.063 A
HETATM   20  C11 UNL     1      14.202  25.650  64.744  1.00  0.00     0.124 A
HETATM   21  C13 UNL     1      12.371  26.071  63.323  1.00  0.00     0.272 A
HETATM   22  N3  UNL     1      14.199  26.948  65.093  1.00  0.00    -0.201 N
HETATM   23  C12 UNL     1      13.295  27.798  64.564  1.00  0.00     0.678 A
ATOM     24  H3  UNL     1      14.886  27.294  65.762  1.00  0.00     0.183 HD
HETATM   25  N5  UNL     1      12.369  27.384  63.676  1.00  0.00    -0.156 N
ATOM     26  H5  UNL     1      11.690  28.034  63.282  1.00  0.00     0.187 HD
HETATM   27  O1  UNL     1      11.524  25.637  62.497  1.00  0.00    -0.267 OA
BRANCH  23  28
HETATM   28  N4  UNL     1      13.344  29.032  64.938  1.00  0.00    -0.234 N
ATOM     29  H42 UNL     1      13.411  29.783  64.251  1.00  0.00     0.174 HD
ATOM     30  H41 UNL     1      13.311  29.224  65.939  1.00  0.00     0.174 HD
ENDBRANCH  23  28
ENDBRANCH  16  18
ENDBRANCH   1  16
TORSDOF 10
ENDMDL