MODEL 5
REMARK VINA RESULT: 11.590783313      8.440     14.164
REMARK  5 active torsions:
REMARK  status: ('A' for Active; 'I' for Inactive)
REMARK    1  A    between atoms: C2_2  and  C4_4
REMARK    2  A    between atoms: C7_7  and  C8_8
REMARK    3  A    between atoms: C9_9  and  C10_10
REMARK    4  A    between atoms: C11_11  and  C12_12
REMARK    5  A    between atoms: C13_13  and  C14_14
ROOT
HETATM    1  C10 UNL     1      26.403   9.949  55.252  1.00  0.00     0.073 C
HETATM    2  C11 UNL     1      27.405   9.108  55.097  1.00  0.00     0.073 C
ENDROOT
BRANCH   2   3
HETATM    3  C12 UNL     1      28.116   8.918  53.873  1.00  0.00    -0.072 C
HETATM    4  C13 UNL     1      28.706   8.748  52.833  1.00  0.00    -0.060 C
BRANCH   4   5
HETATM    5  C14 UNL     1      29.396   8.521  51.592  1.00  0.00     0.047 A
HETATM    6  C15 UNL     1      29.680   9.539  50.704  1.00  0.00     0.023 A
HETATM    7  C16 UNL     1      30.340   9.334  49.515  1.00  0.00     0.004 A
HETATM    8  C17 UNL     1      30.732   8.051  49.203  1.00  0.00     0.040 A
HETATM    9  C18 UNL     1      30.470   6.984  50.065  1.00  0.00     0.104 A
HETATM   10  O1  UNL     1      30.715   5.716  50.028  1.00  0.00    -0.304 OA
HETATM   11  C20 UNL     1      29.802   7.248  51.250  1.00  0.00     0.086 A
HETATM   12  C19 UNL     1      30.267   5.115  51.089  1.00  0.00     0.234 A
HETATM   13  N1  UNL     1      29.687   6.059  51.874  1.00  0.00    -0.343 N
ATOM     14  H1  UNL     1      29.243   5.897  52.777  1.00  0.00     0.167 HD
ENDBRANCH   4   5
ENDBRANCH   2   3
BRANCH   1  15
HETATM   15  C9  UNL     1      25.706  10.118  56.493  1.00  0.00    -0.072 C
HETATM   16  C8  UNL     1      25.114  10.240  57.543  1.00  0.00    -0.062 C
BRANCH  16  17
HETATM   17  C7  UNL     1      24.407  10.368  58.786  1.00  0.00     0.018 A
HETATM   18  C6  UNL     1      23.996  11.587  59.295  1.00  0.00     0.021 A
HETATM   19  C5  UNL     1      23.316  11.697  60.492  1.00  0.00     0.009 A
HETATM   20  C4  UNL     1      23.023  10.571  61.226  1.00  0.00    -0.055 A
HETATM   21  C22 UNL     1      23.430   9.362  60.721  1.00  0.00     0.009 A
HETATM   22  C21 UNL     1      24.117   9.249  59.513  1.00  0.00     0.021 A
BRANCH  20  23
HETATM   23  C2  UNL     1      22.294  10.680  62.513  1.00  0.00     0.010 C
HETATM   24  C1  UNL     1      21.031   9.849  62.387  1.00  0.00     0.015 C
HETATM   25  C3  UNL     1      23.134  10.216  63.680  1.00  0.00     0.015 C
ENDBRANCH  20  23
ENDBRANCH  16  17
ENDBRANCH   1  15
TORSDOF 5
ENDMDL