MODEL 1
REMARK VINA RESULT: 3.483764223      0.000      0.000
REMARK  5 active torsions:
REMARK  status: ('A' for Active; 'I' for Inactive)
REMARK    1  A    between atoms: C6_6  and  C7_7
REMARK    2  A    between atoms: C8_8  and  C9_9
REMARK    3  A    between atoms: C10_10  and  C11_11
REMARK    4  A    between atoms: C12_12  and  C13_13
REMARK    5  A    between atoms: C15_17  and  C16_18
ROOT
HETATM    1  C11 UNL     1      23.071   8.863  62.420  1.00  0.00    -0.070 C
HETATM    2  C12 UNL     1      22.754   8.981  61.243  1.00  0.00    -0.035 C
ENDROOT
BRANCH   2   3
HETATM    3  C13 UNL     1      22.404   9.134  59.862  1.00  0.00     0.146 A
HETATM    4  C14 UNL     1      22.180   8.098  58.983  1.00  0.00     0.137 A
HETATM    5  N1  UNL     1      21.874   8.657  57.775  1.00  0.00    -0.343 N
HETATM    6  C15 UNL     1      21.918   9.986  57.945  1.00  0.00     0.159 A
ATOM      7  H1  UNL     1      21.654   8.161  56.912  1.00  0.00     0.167 HD
HETATM    8  O1  UNL     1      22.231  10.237  59.178  1.00  0.00    -0.283 OA
BRANCH   6   9
HETATM    9  C16 UNL     1      21.647  10.960  56.874  1.00  0.00     0.015 A
HETATM   10  C17 UNL     1      20.501  11.725  56.875  1.00  0.00     0.016 A
HETATM   11  C18 UNL     1      20.231  12.645  55.877  1.00  0.00     0.001 A
HETATM   12  C19 UNL     1      21.118  12.825  54.836  1.00  0.00     0.000 A
HETATM   13  C20 UNL     1      22.270  12.066  54.820  1.00  0.00     0.001 A
HETATM   14  C21 UNL     1      22.530  11.143  55.832  1.00  0.00     0.016 A
ENDBRANCH   6   9
ENDBRANCH   2   3
BRANCH   1  15
HETATM   15  C10 UNL     1      23.443   8.750  63.800  1.00  0.00     0.073 C
HETATM   16  C9  UNL     1      22.598   8.315  64.717  1.00  0.00     0.073 C
BRANCH  16  17
HETATM   17  C8  UNL     1      22.948   8.194  66.100  1.00  0.00    -0.072 C
HETATM   18  C7  UNL     1      23.258   8.105  67.263  1.00  0.00    -0.062 C
BRANCH  18  19
HETATM   19  C6  UNL     1      23.649   8.017  68.660  1.00  0.00     0.018 A
HETATM   20  C5  UNL     1      23.215   6.949  69.419  1.00  0.00     0.020 A
HETATM   21  C4  UNL     1      23.576   6.859  70.727  1.00  0.00     0.002 A
HETATM   22  C3  UNL     1      24.376   7.818  71.328  1.00  0.00     0.007 A
HETATM   23  C2  UNL     1      24.812   8.887  70.575  1.00  0.00    -0.061 A
HETATM   24  C1  UNL     1      25.664   9.915  71.205  1.00  0.00     0.048 C
HETATM   25  C22 UNL     1      24.444   8.980  69.243  1.00  0.00     0.027 A
ENDBRANCH  18  19
ENDBRANCH  16  17
ENDBRANCH   1  15
TORSDOF 5
ENDMDL