MODEL 1
REMARK VINA RESULT: -11.649493876      0.000      0.000
REMARK  1 active torsions:
REMARK  status: ('A' for Active; 'I' for Inactive)
REMARK    1  A    between atoms: C9_12  and  C10_13
ROOT
HETATM    1  O1  UNL     1      25.414  11.021  55.592  1.00  0.00    -0.287 OA
HETATM    2  C1  UNL     1      24.482  10.915  56.418  1.00  0.00     0.195 A
HETATM    3  C2  UNL     1      23.120  11.410  56.269  1.00  0.00     0.027 A
HETATM    4  C3  UNL     1      22.436  12.094  55.288  1.00  0.00     0.016 A
HETATM    5  C4  UNL     1      21.098  12.440  55.436  1.00  0.00     0.001 A
HETATM    6  C5  UNL     1      20.424  12.097  56.586  1.00  0.00     0.001 A
HETATM    7  C6  UNL     1      21.103  11.414  57.568  1.00  0.00     0.014 A
HETATM    8  C7  UNL     1      22.443  11.069  57.418  1.00  0.00     0.006 A
HETATM    9  C8  UNL     1      23.370  10.355  58.304  1.00  0.00     0.058 A
HETATM   10  N1  UNL     1      23.239   9.814  59.519  1.00  0.00    -0.354 N
ATOM     11  H1  UNL     1      22.328   9.881  59.972  1.00  0.00     0.166 HD
HETATM   12  C9  UNL     1      24.232   9.181  60.192  1.00  0.00     0.043 A
HETATM   13  C20 UNL     1      25.457   9.075  59.615  1.00  0.00     0.031 A
HETATM   14  C21 UNL     1      25.662   9.613  58.362  1.00  0.00     0.020 A
HETATM   15  C22 UNL     1      24.618  10.243  57.729  1.00  0.00     0.043 A
ENDROOT
BRANCH  12  16
HETATM   16  C10 UNL     1      23.820   8.573  61.451  1.00  0.00     0.002 A
HETATM   17  C11 UNL     1      24.565   7.474  61.909  1.00  0.00     0.014 A
HETATM   18  C12 UNL     1      24.247   6.838  63.068  1.00  0.00     0.002 A
HETATM   19  C13 UNL     1      23.183   7.255  63.823  1.00  0.00     0.012 A
HETATM   20  C14 UNL     1      22.454   8.330  63.370  1.00  0.00    -0.025 A
HETATM   21  C15 UNL     1      21.365   8.738  64.101  1.00  0.00     0.012 A
HETATM   22  C19 UNL     1      22.759   9.009  62.172  1.00  0.00    -0.013 A
HETATM   23  C16 UNL     1      20.557   9.776  63.712  1.00  0.00     0.001 A
HETATM   24  C17 UNL     1      20.876  10.408  62.547  1.00  0.00     0.001 A
HETATM   25  C18 UNL     1      21.955  10.051  61.766  1.00  0.00     0.013 A
ENDBRANCH  12  16
TORSDOF 1
ENDMDL