MODEL 1
REMARK VINA RESULT: -3.791800565      0.000      0.000
REMARK  3 active torsions:
REMARK  status: ('A' for Active; 'I' for Inactive)
REMARK    1  A    between atoms: C5_5  and  N1_6
REMARK    2  A    between atoms: C10_13  and  C11_14
REMARK    3  A    between atoms: C12_15  and  C13_16
ROOT
HETATM    1  N1  UNL     1      24.211  11.106  56.338  1.00  0.00    -0.306 N
HETATM    2  C6  UNL     1      25.275  11.131  55.518  1.00  0.00     0.189 A
HETATM    3  N2  UNL     1      26.250  10.442  56.128  1.00  0.00    -0.350 N
ATOM      4  H2  UNL     1      27.182  10.288  55.746  1.00  0.00     0.166 HD
HETATM    5  C7  UNL     1      25.819   9.984  57.320  1.00  0.00     0.060 A
HETATM    6  C8  UNL     1      26.370   9.242  58.340  1.00  0.00     0.033 A
HETATM    7  C9  UNL     1      25.610   8.950  59.451  1.00  0.00     0.023 A
HETATM    8  C10 UNL     1      24.295   9.377  59.589  1.00  0.00     0.020 A
HETATM    9  C19 UNL     1      23.760  10.118  58.558  1.00  0.00     0.053 A
HETATM   10  C20 UNL     1      24.513  10.411  57.448  1.00  0.00     0.068 A
ENDROOT
BRANCH   8  11
HETATM   11  C11 UNL     1      23.503   9.072  60.749  1.00  0.00    -0.061 C
HETATM   12  C12 UNL     1      22.842   8.798  61.737  1.00  0.00    -0.061 C
BRANCH  12  13
HETATM   13  C13 UNL     1      22.079   8.459  62.909  1.00  0.00     0.018 A
HETATM   14  C14 UNL     1      20.812   9.004  63.119  1.00  0.00     0.020 A
HETATM   15  C15 UNL     1      20.088   8.674  64.242  1.00  0.00     0.001 A
HETATM   16  C16 UNL     1      20.598   7.802  65.180  1.00  0.00     0.000 A
HETATM   17  C17 UNL     1      21.846   7.248  65.001  1.00  0.00     0.001 A
HETATM   18  C18 UNL     1      22.556   7.589  63.871  1.00  0.00     0.020 A
ENDBRANCH  12  13
ENDBRANCH   8  11
BRANCH   1  19
HETATM   19  C5  UNL     1      22.937  11.708  56.109  1.00  0.00     0.040 A
HETATM   20  C4  UNL     1      21.780  11.213  56.683  1.00  0.00     0.030 A
HETATM   21  C3  UNL     1      20.549  11.801  56.457  1.00  0.00     0.009 A
HETATM   22  C2  UNL     1      20.435  12.910  55.644  1.00  0.00    -0.062 A
HETATM   23  C1  UNL     1      19.140  13.585  55.365  1.00  0.00     0.048 C
HETATM   24  C22 UNL     1      21.578  13.425  55.058  1.00  0.00     0.009 A
HETATM   25  C21 UNL     1      22.813  12.818  55.298  1.00  0.00     0.030 A
ENDBRANCH   1  19
TORSDOF 3
ENDMDL