MODEL 3
REMARK VINA RESULT: 4.941988582      1.098      1.930
REMARK  3 active torsions:
REMARK  status: ('A' for Active; 'I' for Inactive)
REMARK    1  A    between atoms: C3_4  and  C4_5
REMARK    2  A    between atoms: C13_15  and  C14_16
REMARK    3  A    between atoms: C15_17  and  C16_18
ROOT
HETATM    1  O1  UNL     1      21.694  11.748  62.724  1.00  0.00    -0.287 OA
HETATM    2  C1  UNL     1      22.048  10.799  62.009  1.00  0.00     0.187 A
HETATM    3  C2  UNL     1      21.984  10.887  60.608  1.00  0.00     0.093 A
HETATM    4  C3  UNL     1      22.377   9.835  59.824  1.00  0.00     0.090 A
HETATM    5  O2  UNL     1      22.819   8.734  60.397  1.00  0.00    -0.309 OA
HETATM    6  C10 UNL     1      22.893   8.613  61.693  1.00  0.00     0.090 A
HETATM    7  C11 UNL     1      23.370   7.420  62.247  1.00  0.00     0.040 A
HETATM    8  C12 UNL     1      23.448   7.295  63.611  1.00  0.00     0.023 A
HETATM    9  C13 UNL     1      23.078   8.294  64.482  1.00  0.00     0.019 A
HETATM   10  C22 UNL     1      22.609   9.465  63.930  1.00  0.00     0.039 A
HETATM   11  C23 UNL     1      22.515   9.630  62.544  1.00  0.00     0.049 A
ENDROOT
BRANCH   9  12
HETATM   12  C14 UNL     1      23.146   8.195  65.910  1.00  0.00    -0.061 C
HETATM   13  C15 UNL     1      23.196   8.131  67.114  1.00  0.00    -0.061 C
BRANCH  13  14
HETATM   14  C16 UNL     1      23.279   8.052  68.547  1.00  0.00     0.018 A
HETATM   15  C17 UNL     1      24.525   7.939  69.151  1.00  0.00     0.020 A
HETATM   16  C18 UNL     1      24.624   7.862  70.520  1.00  0.00     0.001 A
HETATM   17  C19 UNL     1      23.511   7.895  71.321  1.00  0.00     0.000 A
HETATM   18  C20 UNL     1      22.275   8.007  70.739  1.00  0.00     0.001 A
HETATM   19  C21 UNL     1      22.171   8.084  69.370  1.00  0.00     0.020 A
ENDBRANCH  13  14
ENDBRANCH   9  12
BRANCH   4  20
HETATM   20  C4  UNL     1      22.318   9.904  58.345  1.00  0.00    -0.002 A
HETATM   21  C5  UNL     1      23.011   8.962  57.592  1.00  0.00     0.014 A
HETATM   22  C6  UNL     1      22.970   9.008  56.220  1.00  0.00     0.001 A
HETATM   23  C7  UNL     1      22.240   9.991  55.589  1.00  0.00     0.000 A
HETATM   24  C8  UNL     1      21.550  10.929  56.319  1.00  0.00     0.001 A
HETATM   25  C9  UNL     1      21.608  10.862  57.700  1.00  0.00     0.014 A
ENDBRANCH   4  20
TORSDOF 3
ENDMDL