MODEL 3
REMARK VINA RESULT: -5.570725073      1.199      1.426
REMARK  1 active torsions:
REMARK  status: ('A' for Active; 'I' for Inactive)
REMARK    1  A    between atoms: C15_17  and  C16_18
ROOT
HETATM    1  O1  UNL     1      20.625  10.749  61.196  1.00  0.00    -0.252 OA
HETATM    2  S1  UNL     1      22.222  10.240  61.123  1.00  0.00     0.064 S
HETATM    3  C1  UNL     1      22.475   9.060  62.406  1.00  0.00     0.042 A
HETATM    4  C2  UNL     1      21.388   9.214  63.261  1.00  0.00     0.022 A
HETATM    5  C3  UNL     1      21.329   8.400  64.373  1.00  0.00     0.001 A
HETATM    6  C4  UNL     1      22.323   7.458  64.630  1.00  0.00     0.001 A
HETATM    7  C5  UNL     1      23.377   7.340  63.760  1.00  0.00     0.013 A
HETATM    8  C6  UNL     1      23.482   8.143  62.619  1.00  0.00    -0.017 A
HETATM    9  C7  UNL     1      24.723   7.709  61.980  1.00  0.00     0.013 C
HETATM   10  C8  UNL     1      25.305   8.023  60.842  1.00  0.00     0.013 C
HETATM   11  C9  UNL     1      25.059   8.892  59.703  1.00  0.00    -0.028 A
HETATM   12  C10 UNL     1      26.288   9.092  59.121  1.00  0.00     0.012 A
HETATM   13  C11 UNL     1      26.453   9.876  58.002  1.00  0.00     0.001 A
HETATM   14  C12 UNL     1      25.348  10.462  57.474  1.00  0.00     0.001 A
HETATM   15  C13 UNL     1      24.092  10.269  58.055  1.00  0.00     0.009 A
HETATM   16  C14 UNL     1      23.910   9.496  59.161  1.00  0.00    -0.026 A
HETATM   17  C15 UNL     1      22.491   9.489  59.526  1.00  0.00     0.158 C
ENDROOT
BRANCH  17  18
HETATM   18  C16 UNL     1      21.614  10.190  58.561  1.00  0.00     0.003 A
HETATM   19  C17 UNL     1      21.090   9.720  57.374  1.00  0.00     0.016 A
HETATM   20  C18 UNL     1      20.299  10.536  56.679  1.00  0.00     0.008 A
HETATM   21  C19 UNL     1      20.058  11.782  57.181  1.00  0.00     0.050 A
HETATM   22  S2  UNL     1      20.951  11.788  58.629  1.00  0.00    -0.105 SA
ENDBRANCH  17  18
TORSDOF 1
ENDMDL