MODEL 1
REMARK VINA RESULT: -4.429864338      0.000      0.000
REMARK  3 active torsions:
REMARK  status: ('A' for Active; 'I' for Inactive)
REMARK    1  A    between atoms: O1_2  and  C2_3
REMARK    2  A    between atoms: C5_6  and  C6_7
REMARK    3  A    between atoms: C7_8  and  C8_9
ROOT
HETATM    1  C6  UNL     1      21.418  10.026  60.795  1.00  0.00    -0.060 C
HETATM    2  C7  UNL     1      21.298  10.593  59.737  1.00  0.00    -0.060 C
ENDROOT
BRANCH   1   3
HETATM    3  C5  UNL     1      21.583   9.342  62.051  1.00  0.00     0.029 A
HETATM    4  C4  UNL     1      20.646   9.454  63.039  1.00  0.00     0.024 A
HETATM    5  C3  UNL     1      20.812   8.799  64.232  1.00  0.00     0.039 A
HETATM    6  C2  UNL     1      21.918   8.019  64.465  1.00  0.00     0.079 A
HETATM    7  C22 UNL     1      22.876   7.904  63.457  1.00  0.00     0.009 A
HETATM    8  C17 UNL     1      22.712   8.561  62.255  1.00  0.00    -0.004 A
HETATM    9  C21 UNL     1      24.014   7.139  63.614  1.00  0.00     0.015 A
HETATM   10  C18 UNL     1      23.675   8.437  61.259  1.00  0.00     0.014 A
HETATM   11  C19 UNL     1      24.804   7.663  61.448  1.00  0.00     0.001 A
HETATM   12  C20 UNL     1      24.971   7.005  62.648  1.00  0.00     0.001 A
BRANCH   6  13
HETATM   13  O1  UNL     1      22.125   7.339  65.657  1.00  0.00    -0.355 OA
HETATM   14  C1  UNL     1      21.563   6.061  65.796  1.00  0.00     0.210 C
ENDBRANCH   6  13
ENDBRANCH   1   3
BRANCH   2  15
HETATM   15  C8  UNL     1      21.179  11.263  58.471  1.00  0.00     0.034 A
HETATM   16  C9  UNL     1      19.964  11.407  57.827  1.00  0.00     0.109 A
HETATM   17  N1  UNL     1      19.851  12.034  56.644  1.00  0.00    -0.364 N
HETATM   18  C10 UNL     1      20.926  12.561  56.018  1.00  0.00     0.042 A
ATOM     19  H1  UNL     1      18.932  12.115  56.209  1.00  0.00     0.165 HD
HETATM   20  C11 UNL     1      20.821  13.206  54.803  1.00  0.00     0.030 A
HETATM   21  C15 UNL     1      22.157  12.450  56.609  1.00  0.00    -0.008 A
HETATM   22  C12 UNL     1      21.943  13.729  54.199  1.00  0.00     0.002 A
HETATM   23  C13 UNL     1      23.202  13.637  54.765  1.00  0.00     0.001 A
HETATM   24  C14 UNL     1      23.276  12.986  55.979  1.00  0.00     0.014 A
HETATM   25  C16 UNL     1      22.275  11.803  57.830  1.00  0.00     0.035 A
ENDBRANCH   2  15
TORSDOF 3
ENDMDL