MODEL 2
REMARK VINA RESULT: 2.205697273      0.059      1.334
REMARK  3 active torsions:
REMARK  status: ('A' for Active; 'I' for Inactive)
REMARK    1  A    between atoms: C5_7  and  C6_8
REMARK    2  A    between atoms: C15_17  and  C16_18
REMARK    3  A    between atoms: C17_19  and  C18_20
ROOT
HETATM    1  O1  UNL     1      25.436  10.387  56.849  1.00  0.00    -0.258 OA
HETATM    2  C1  UNL     1      24.850   9.997  57.911  1.00  0.00     0.307 A
HETATM    3  O2  UNL     1      25.519   9.381  58.848  1.00  0.00    -0.274 OA
HETATM    4  C2  UNL     1      24.927   8.985  59.923  1.00  0.00     0.089 A
HETATM    5  C3  UNL     1      25.575   8.327  60.954  1.00  0.00     0.039 A
HETATM    6  C4  UNL     1      24.898   7.924  62.083  1.00  0.00     0.015 A
HETATM    7  C5  UNL     1      23.546   8.151  62.248  1.00  0.00    -0.025 A
HETATM    8  C12 UNL     1      22.905   8.805  61.220  1.00  0.00     0.026 A
HETATM    9  C13 UNL     1      23.578   9.214  60.080  1.00  0.00     0.000 A
HETATM   10  C14 UNL     1      22.839   9.864  59.107  1.00  0.00     0.041 A
HETATM   11  C15 UNL     1      23.504  10.271  57.977  1.00  0.00     0.094 A
ENDROOT
BRANCH  11  12
HETATM   12  C16 UNL     1      22.792  10.952  56.926  1.00  0.00    -0.055 C
HETATM   13  C17 UNL     1      22.176  11.523  56.057  1.00  0.00    -0.061 C
BRANCH  13  14
HETATM   14  C18 UNL     1      21.425  12.196  55.034  1.00  0.00     0.018 A
HETATM   15  C19 UNL     1      20.556  13.237  55.296  1.00  0.00     0.020 A
HETATM   16  C20 UNL     1      19.842  13.875  54.316  1.00  0.00     0.001 A
HETATM   17  C21 UNL     1      19.983  13.475  53.018  1.00  0.00     0.000 A
HETATM   18  C22 UNL     1      20.839  12.443  52.718  1.00  0.00     0.001 A
HETATM   19  C23 UNL     1      21.547  11.817  53.725  1.00  0.00     0.020 A
ENDBRANCH  13  14
ENDBRANCH  11  12
BRANCH   7  20
HETATM   20  C6  UNL     1      22.804   7.735  63.432  1.00  0.00    -0.026 A
HETATM   21  C7  UNL     1      23.293   6.775  64.294  1.00  0.00     0.012 A
HETATM   22  C8  UNL     1      22.603   6.373  65.416  1.00  0.00     0.001 A
HETATM   23  C9  UNL     1      21.382   6.933  65.709  1.00  0.00     0.000 A
HETATM   24  C10 UNL     1      20.873   7.888  64.870  1.00  0.00     0.001 A
HETATM   25  C11 UNL     1      21.570   8.288  63.746  1.00  0.00     0.012 A
ENDBRANCH   7  20
TORSDOF 3
ENDMDL