MODEL 3
REMARK VINA RESULT: -4.251221800      1.465      6.160
REMARK  0 active torsions:
REMARK  status: ('A' for Active; 'I' for Inactive)
ROOT
HETATM    1  C1  UNL     1      22.114  11.269  55.738  1.00  0.00     0.001 A
HETATM    2  C2  UNL     1      22.965  10.191  55.864  1.00  0.00     0.002 A
HETATM    3  C3  UNL     1      23.297   9.685  57.130  1.00  0.00     0.032 A
HETATM    4  C4  UNL     1      22.752  10.305  58.214  1.00  0.00     0.069 A
HETATM    5  C5  UNL     1      21.892  11.378  58.093  1.00  0.00    -0.007 A
HETATM    6  C6  UNL     1      21.571  11.868  56.852  1.00  0.00     0.014 A
HETATM    7  C7  UNL     1      21.102  11.951  59.098  1.00  0.00     0.016 C
HETATM    8  C8  UNL     1      20.633  11.220  60.214  1.00  0.00     0.035 C
HETATM    9  C9  UNL     1      21.391  10.278  60.912  1.00  0.00     0.088 A
HETATM   10  C10 UNL     1      21.209   9.886  62.200  1.00  0.00     0.023 A
HETATM   11  C11 UNL     1      20.226  10.158  63.096  1.00  0.00     0.016 A
HETATM   12  C12 UNL     1      20.341   9.593  64.349  1.00  0.00     0.001 A
HETATM   13  C13 UNL     1      21.436   8.776  64.661  1.00  0.00     0.002 A
HETATM   14  C14 UNL     1      22.423   8.518  63.722  1.00  0.00     0.032 A
HETATM   15  C15 UNL     1      22.315   9.073  62.485  1.00  0.00     0.071 A
HETATM   16  N1  UNL     1      23.109   9.002  61.380  1.00  0.00    -0.232 N
HETATM   17  C16 UNL     1      24.249   8.575  60.807  1.00  0.00     0.087 A
HETATM   18  C17 UNL     1      25.270   7.836  61.335  1.00  0.00     0.034 A
HETATM   19  C18 UNL     1      26.376   7.591  60.580  1.00  0.00     0.002 A
HETATM   20  C19 UNL     1      26.446   8.097  59.292  1.00  0.00     0.002 A
HETATM   21  C20 UNL     1      25.434   8.842  58.737  1.00  0.00     0.034 A
HETATM   22  C21 UNL     1      24.323   9.085  59.487  1.00  0.00     0.087 A
HETATM   23  N2  UNL     1      23.203   9.774  59.358  1.00  0.00    -0.232 N
HETATM   24  N3  UNL     1      22.505   9.724  60.498  1.00  0.00    -0.181 N
ENDROOT
TORSDOF 0
ENDMDL