MODEL 3
REMARK VINA RESULT: -8.295430794      1.951      6.635
REMARK  1 active torsions:
REMARK  status: ('A' for Active; 'I' for Inactive)
REMARK    1  A    between atoms: C4_5  and  C5_6
ROOT
HETATM    1  O1  UNL     1      19.970  11.586  58.711  1.00  0.00    -0.267 OA
HETATM    2  C1  UNL     1      21.153  11.303  58.353  1.00  0.00     0.265 A
HETATM    3  C2  UNL     1      22.020  10.498  59.203  1.00  0.00     0.061 A
HETATM    4  C3  UNL     1      21.604  10.016  60.415  1.00  0.00     0.032 A
HETATM    5  C4  UNL     1      22.440   9.242  61.230  1.00  0.00    -0.014 A
HETATM    6  C11 UNL     1      23.722   8.939  60.830  1.00  0.00    -0.013 A
HETATM    7  C12 UNL     1      24.590   8.171  61.579  1.00  0.00     0.013 A
HETATM    8  C13 UNL     1      25.858   7.905  61.099  1.00  0.00     0.001 A
HETATM    9  C14 UNL     1      26.279   8.391  59.882  1.00  0.00     0.001 A
HETATM   10  C15 UNL     1      25.398   9.154  59.148  1.00  0.00     0.014 A
HETATM   11  C16 UNL     1      24.123   9.446  59.586  1.00  0.00     0.003 A
HETATM   12  C17 UNL     1      23.311  10.210  58.774  1.00  0.00     0.060 A
HETATM   13  N1  UNL     1      23.757  10.707  57.516  1.00  0.00    -0.340 N
ATOM     14  H1  UNL     1      24.708  10.484  57.221  1.00  0.00     0.167 HD
HETATM   15  C18 UNL     1      23.037  11.413  56.738  1.00  0.00     0.114 A
HETATM   16  C19 UNL     1      23.504  11.917  55.450  1.00  0.00     0.049 A
HETATM   17  C20 UNL     1      22.713  12.637  54.702  1.00  0.00     0.005 A
HETATM   18  C21 UNL     1      21.349  12.956  55.127  1.00  0.00     0.018 A
HETATM   19  C22 UNL     1      20.870  12.530  56.279  1.00  0.00     0.102 A
HETATM   20  N2  UNL     1      21.693  11.750  57.116  1.00  0.00    -0.274 N
ENDROOT
BRANCH   5  21
HETATM   21  C5  UNL     1      21.962   8.795  62.531  1.00  0.00    -0.025 A
HETATM   22  C6  UNL     1      22.785   8.002  63.312  1.00  0.00     0.012 A
HETATM   23  C7  UNL     1      22.384   7.500  64.537  1.00  0.00     0.001 A
HETATM   24  C8  UNL     1      21.124   7.805  64.988  1.00  0.00     0.000 A
HETATM   25  C9  UNL     1      20.310   8.591  64.216  1.00  0.00     0.001 A
HETATM   26  C10 UNL     1      20.711   9.085  63.003  1.00  0.00     0.012 A
ENDBRANCH   5  21
TORSDOF 1
ENDMDL