MODEL 2
REMARK VINA RESULT: -9.854986460      0.930      1.275
REMARK  5 active torsions:
REMARK  status: ('A' for Active; 'I' for Inactive)
REMARK       I    between atoms: C1_2  and  N2_4
REMARK    1  A    between atoms: C3_9  and  N4_10
REMARK    2  A    between atoms: C9_18  and  N6_19
REMARK    3  A    between atoms: N6_19  and  C10_21
REMARK    4  A    between atoms: C13_24  and  C14_25
REMARK    5  A    between atoms: C14_25  and  N7_26
ROOT
HETATM    1  N1  UNL     1      17.669   2.535   3.575  1.00  0.00    -0.039 NA
HETATM    2  C1  UNL     1      18.155   3.423   2.535  1.00  0.00     0.346 C
HETATM    3  O1  UNL     1      19.225   3.989   2.790  1.00  0.00    -0.250 OA
HETATM    4  N2  UNL     1      17.367   3.525   1.397  1.00  0.00    -0.142 N
ATOM      5  H2  UNL     1      17.008   2.658   0.995  1.00  0.00     0.188 HD
HETATM    6  C2  UNL     1      17.055   4.614   0.815  1.00  0.00     0.715 A
HETATM    7  N3  UNL     1      16.264   4.550  -0.312  1.00  0.00    -0.021 N
ATOM      8  H3  UNL     1      15.947   3.638  -0.638  1.00  0.00     0.203 HD
HETATM    9  C3  UNL     1      15.897   5.635  -0.991  1.00  0.00     0.709 A
HETATM   10  N5  UNL     1      16.334   6.824  -0.529  1.00  0.00    -0.021 N
ATOM     11  H5  UNL     1      16.068   7.673  -1.028  1.00  0.00     0.203 HD
HETATM   12  C9  UNL     1      17.104   6.932   0.560  1.00  0.00     0.707 A
HETATM   13  N8  UNL     1      17.453   5.819   1.218  1.00  0.00    -0.021 N
ATOM     14  H8  UNL     1      18.038   5.895   2.051  1.00  0.00     0.203 HD
ENDROOT
BRANCH  12  15
HETATM   15  N6  UNL     1      17.494   8.084   0.952  1.00  0.00    -0.220 N
ATOM     16  H6  UNL     1      16.926   8.890   0.691  1.00  0.00     0.178 HD
BRANCH  15  17
HETATM   17  C10 UNL     1      18.664   8.322   1.725  1.00  0.00     0.099 C
HETATM   18  C11 UNL     1      18.850   9.740   2.187  1.00  0.00     0.026 C
HETATM   19  C12 UNL     1      19.767   9.685   3.388  1.00  0.00     0.008 C
HETATM   20  C13 UNL     1      21.106   9.134   2.875  1.00  0.00     0.014 C
HETATM   21  C19 UNL     1      21.102   8.805   1.427  1.00  0.00     0.008 C
HETATM   22  C20 UNL     1      19.940   7.954   0.990  1.00  0.00     0.026 C
BRANCH  20  23
HETATM   23  C14 UNL     1      22.112  10.226   3.138  1.00  0.00     0.277 C
BRANCH  23  24
HETATM   24  N7  UNL     1      23.110  10.423   2.158  1.00  0.00     0.090 N
HETATM   25  C15 UNL     1      23.090  11.825   1.789  1.00  0.00     0.282 C
HETATM   26  C16 UNL     1      24.244  12.232   0.929  1.00  0.00     0.104 C
HETATM   27  S1  UNL     1      25.721  12.177   2.027  1.00  0.00    -0.166 SA
HETATM   28  C17 UNL     1      25.228  10.959   3.319  1.00  0.00     0.104 C
HETATM   29  C18 UNL     1      24.380   9.945   2.547  1.00  0.00     0.282 C
ENDBRANCH  23  24
ENDBRANCH  20  23
ENDBRANCH  15  17
ENDBRANCH  12  15
BRANCH   9  30
HETATM   30  N4  UNL     1      15.084   5.596  -2.154  1.00  0.00    -0.217 N
HETATM   31  C4  UNL     1      14.691   4.308  -2.674  1.00  0.00     0.141 C
HETATM   32  C5  UNL     1      13.327   4.338  -3.307  1.00  0.00     0.020 C
HETATM   33  C6  UNL     1      12.594   5.557  -2.793  1.00  0.00     0.003 C
HETATM   34  C7  UNL     1      13.311   6.772  -3.371  1.00  0.00     0.020 C
HETATM   35  C8  UNL     1      14.694   6.850  -2.759  1.00  0.00     0.141 C
ENDBRANCH   9  30
TORSDOF 5
ENDMDL