MODEL 5
REMARK VINA RESULT: -8.146936744      4.945     10.218
REMARK  8 active torsions:
REMARK  status: ('A' for Active; 'I' for Inactive)
REMARK    1  A    between atoms: C2_2  and  N1_3
REMARK    2  A    between atoms: C5_9  and  N3_10
REMARK    3  A    between atoms: N3_10  and  C6_12
REMARK    4  A    between atoms: C6_12  and  C7_13
REMARK    5  A    between atoms: C7_13  and  C8_14
REMARK    6  A    between atoms: C11_17  and  S2_18
REMARK    7  A    between atoms: S2_18  and  N4_19
REMARK    8  A    between atoms: C17_33  and  N7_34
ROOT
HETATM    1  N1  UNL     1      15.949   4.015  -2.507  1.00  0.00    -0.308 N
HETATM    2  C3  UNL     1      16.355   5.315  -2.433  1.00  0.00     0.180 A
HETATM    3  S1  UNL     1      16.159   6.228  -3.771  1.00  0.00    -0.040 SA
HETATM    4  N2  UNL     1      16.890   5.888  -1.370  1.00  0.00    -0.328 N
ATOM      5  H2  UNL     1      17.166   6.869  -1.403  1.00  0.00     0.168 HD
HETATM    6  C4  UNL     1      17.070   5.173  -0.245  1.00  0.00     0.109 A
HETATM    7  C5  UNL     1      17.639   5.765   0.892  1.00  0.00     0.131 A
HETATM    8  N5  UNL     1      17.802   5.017   1.988  1.00  0.00    -0.337 N
ATOM      9  H5  UNL     1      18.213   5.417   2.832  1.00  0.00     0.168 HD
HETATM   10  C15 UNL     1      17.412   3.720   1.960  1.00  0.00     0.182 A
HETATM   11  N6  UNL     1      16.869   3.158   0.873  1.00  0.00    -0.347 N
ATOM     12  H6  UNL     1      16.590   2.177   0.900  1.00  0.00     0.167 HD
HETATM   13  C16 UNL     1      16.686   3.867  -0.249  1.00  0.00     0.108 A
HETATM   14  C17 UNL     1      16.108   3.264  -1.410  1.00  0.00     0.138 A
ENDROOT
BRANCH   7  15
HETATM   15  N3  UNL     1      17.958   6.998   0.773  1.00  0.00    -0.374 N
ATOM     16  H3  UNL     1      17.655   7.504  -0.059  1.00  0.00     0.161 HD
BRANCH  15  17
HETATM   17  C6  UNL     1      18.725   7.697   1.767  1.00  0.00     0.126 C
BRANCH  17  18
HETATM   18  C7  UNL     1      20.194   7.709   1.396  1.00  0.00     0.058 C
BRANCH  18  19
HETATM   19  C8  UNL     1      20.980   8.759   2.031  1.00  0.00    -0.051 A
HETATM   20  C9  UNL     1      20.503   9.529   3.080  1.00  0.00     0.009 A
HETATM   21  C10 UNL     1      21.245  10.505   3.683  1.00  0.00     0.026 A
HETATM   22  C11 UNL     1      22.538  10.762   3.251  1.00  0.00     0.079 A
HETATM   23  C12 UNL     1      23.034  10.014   2.215  1.00  0.00     0.032 A
HETATM   24  C13 UNL     1      22.262   9.017   1.606  1.00  0.00    -0.054 A
HETATM   25  C14 UNL     1      22.868   8.264   0.488  1.00  0.00     0.049 C
BRANCH  22  26
HETATM   26  S2  UNL     1      23.480  12.013   4.033  1.00  0.00     0.256 S
HETATM   27  O1  UNL     1      24.603  11.380   4.761  1.00  0.00    -0.201 OA
HETATM   28  O2  UNL     1      23.916  12.995   2.979  1.00  0.00    -0.201 OA
BRANCH  26  29
HETATM   29  N4  UNL     1      22.439  12.860   5.110  1.00  0.00    -0.324 N
ATOM     30  H42 UNL     1      21.563  12.500   5.488  1.00  0.00     0.169 HD
ATOM     31  H41 UNL     1      22.857  13.773   5.293  1.00  0.00     0.169 HD
ENDBRANCH  26  29
ENDBRANCH  22  26
ENDBRANCH  18  19
ENDBRANCH  17  18
ENDBRANCH  15  17
ENDBRANCH   7  15
BRANCH  14  32
HETATM   32  N7  UNL     1      15.796   2.079  -1.267  1.00  0.00    -0.360 N
HETATM   33  C18 UNL     1      16.025   0.789  -1.638  1.00  0.00     0.120 C
ATOM     34  H7  UNL     1      15.046   2.056  -0.576  1.00  0.00     0.165 HD
ENDBRANCH  14  32
BRANCH   1  35
HETATM   35  C2  UNL     1      15.391   3.539  -3.730  1.00  0.00     0.128 C
HETATM   36  C1  UNL     1      13.886   3.414  -3.698  1.00  0.00     0.027 C
ENDBRANCH   1  35
TORSDOF 8
ENDMDL