MODEL 5
REMARK VINA RESULT: -8.892955610      1.926      9.457
REMARK  8 active torsions:
REMARK  status: ('A' for Active; 'I' for Inactive)
REMARK    1  A    between atoms: C4_6  and  C5_7
REMARK    2  A    between atoms: C5_7  and  N2_8
REMARK    3  A    between atoms: N2_8  and  C6_10
REMARK    4  A    between atoms: C13_23  and  N6_24
REMARK    5  A    between atoms: N6_24  and  C14_26
REMARK    6  A    between atoms: C14_26  and  C15_27
REMARK    7  A    between atoms: C15_27  and  N7_28
REMARK    8  A    between atoms: N7_28  and  C16_30
ROOT
HETATM    1  C6  UNL     1      20.192   9.118   1.479  1.00  0.00     0.678 A
HETATM    2  N3  UNL     1      19.459   7.987   1.403  1.00  0.00    -0.190 N
ATOM      3  H3  UNL     1      18.463   7.992   1.626  1.00  0.00     0.184 HD
HETATM    4  C7  UNL     1      20.075   6.861   1.029  1.00  0.00     0.070 A
HETATM    5  C8  UNL     1      21.412   6.781   0.718  1.00  0.00    -0.014 A
HETATM    6  C9  UNL     1      22.157   7.954   0.800  1.00  0.00     0.115 A
HETATM    7  N4  UNL     1      21.502   9.065   1.178  1.00  0.00    -0.201 N
ATOM      8  H4  UNL     1      22.037   9.932   1.241  1.00  0.00     0.183 HD
HETATM    9  C10 UNL     1      22.024   5.510   0.389  1.00  0.00     0.048 C
HETATM   10  C11 UNL     1      21.136   4.424  -0.070  1.00  0.00     0.063 C
HETATM   11  C12 UNL     1      19.760   4.502   0.430  1.00  0.00     0.041 A
HETATM   12  N5  UNL     1      18.954   3.375   0.373  1.00  0.00    -0.195 N
ATOM     13  H5  UNL     1      19.350   2.496   0.037  1.00  0.00     0.184 HD
HETATM   14  C13 UNL     1      17.670   3.411   0.750  1.00  0.00     0.678 A
HETATM   15  N9  UNL     1      17.147   4.567   1.192  1.00  0.00    -0.201 N
ATOM     16  H9  UNL     1      16.168   4.598   1.478  1.00  0.00     0.183 HD
HETATM   17  C21 UNL     1      17.894   5.686   1.264  1.00  0.00     0.121 A
HETATM   18  C22 UNL     1      19.225   5.669   0.881  1.00  0.00     0.031 A
ENDROOT
BRANCH  14  19
HETATM   19  N6  UNL     1      16.978   2.319   0.671  1.00  0.00    -0.224 N
ATOM     20  H6  UNL     1      16.554   1.948   1.521  1.00  0.00     0.177 HD
BRANCH  19  21
HETATM   21  C14 UNL     1      16.779   1.603  -0.570  1.00  0.00     0.157 C
BRANCH  21  22
HETATM   22  C15 UNL     1      16.624   2.664  -1.654  1.00  0.00     0.140 C
BRANCH  22  23
HETATM   23  N7  UNL     1      15.280   3.166  -1.606  1.00  0.00    -0.388 N
ATOM     24  H7  UNL     1      14.535   2.550  -1.283  1.00  0.00     0.159 HD
BRANCH  23  25
HETATM   25  C16 UNL     1      14.987   4.358  -1.955  1.00  0.00     0.030 A
HETATM   26  C17 UNL     1      15.884   5.379  -1.836  1.00  0.00     0.046 A
HETATM   27  C18 UNL     1      15.467   6.654  -2.247  1.00  0.00     0.089 A
HETATM   28  N8  UNL     1      14.244   6.883  -2.740  1.00  0.00    -0.375 N
HETATM   29  C19 UNL     1      13.348   5.894  -2.866  1.00  0.00     0.089 A
ATOM     30  H8  UNL     1      13.988   7.829  -3.025  1.00  0.00     0.164 HD
HETATM   31  C20 UNL     1      13.721   4.636  -2.474  1.00  0.00     0.046 A
ENDBRANCH  23  25
ENDBRANCH  22  23
ENDBRANCH  21  22
ENDBRANCH  19  21
ENDBRANCH  14  19
BRANCH   1  32
HETATM   32  N2  UNL     1      19.628  10.245   1.843  1.00  0.00    -0.222 N
ATOM     33  H2  UNL     1      18.814  10.248   2.458  1.00  0.00     0.178 HD
BRANCH  32  34
HETATM   34  C5  UNL     1      20.190  11.480   1.348  1.00  0.00     0.178 C
BRANCH  34  35
HETATM   35  C4  UNL     1      20.668  12.347   2.458  1.00  0.00    -0.025 A
HETATM   36  C3  UNL     1      21.525  11.890   3.437  1.00  0.00     0.096 A
HETATM   37  N1  UNL     1      21.937  12.701   4.425  1.00  0.00    -0.375 N
HETATM   38  C2  UNL     1      21.549  13.983   4.518  1.00  0.00     0.087 A
ATOM     39  H1  UNL     1      22.570  12.329   5.132  1.00  0.00     0.164 HD
HETATM   40  C1  UNL     1      20.694  14.472   3.555  1.00  0.00     0.018 A
HETATM   41  C23 UNL     1      20.256  13.662   2.532  1.00  0.00     0.011 A
ENDBRANCH  34  35
ENDBRANCH  32  34
ENDBRANCH   1  32
TORSDOF 8
ENDMDL