MODEL 1
REMARK VINA RESULT: -8.958293274      0.000      0.000
REMARK  7 active torsions:
REMARK  status: ('A' for Active; 'I' for Inactive)
REMARK    1  A    between atoms: O1_2  and  C2_3
REMARK    2  A    between atoms: C7_8  and  N1_9
REMARK    3  A    between atoms: N1_9  and  C8_10
REMARK    4  A    between atoms: C9_13  and  N3_14
REMARK    5  A    between atoms: N3_14  and  C10_16
REMARK    6  A    between atoms: C13_19  and  S1_20
REMARK    7  A    between atoms: S1_20  and  N4_23
ROOT
HETATM    1  C8  UNL     1      19.731   6.126   0.762  1.00  0.00     0.224 A
HETATM    2  N2  UNL     1      19.615   7.404   1.269  1.00  0.00    -0.162 N
ATOM      3  H2  UNL     1      20.468   7.890   1.547  1.00  0.00     0.187 HD
HETATM    4  C9  UNL     1      18.455   8.038   1.415  1.00  0.00     0.686 A
HETATM    5  N5  UNL     1      17.347   7.391   1.047  1.00  0.00    -0.174 N
ATOM      6  H5  UNL     1      16.450   7.863   1.154  1.00  0.00     0.186 HD
HETATM    7  C18 UNL     1      17.361   6.145   0.544  1.00  0.00     0.153 A
HETATM    8  N6  UNL     1      16.393   5.294   0.108  1.00  0.00    -0.336 N
ATOM      9  H6  UNL     1      15.393   5.497   0.095  1.00  0.00     0.168 HD
HETATM   10  C19 UNL     1      16.955   4.144  -0.305  1.00  0.00     0.182 A
HETATM   11  N7  UNL     1      18.296   4.246  -0.136  1.00  0.00    -0.345 N
ATOM     12  H7  UNL     1      18.991   3.534  -0.359  1.00  0.00     0.167 HD
HETATM   13  C20 UNL     1      18.539   5.477   0.385  1.00  0.00     0.137 A
ENDROOT
BRANCH   4  14
HETATM   14  N3  UNL     1      18.469   9.231   1.900  1.00  0.00    -0.192 N
ATOM     15  H3  UNL     1      17.569   9.707   1.972  1.00  0.00     0.184 HD
BRANCH  14  16
HETATM   16  C10 UNL     1      19.590   9.940   2.338  1.00  0.00     0.049 A
HETATM   17  C11 UNL     1      20.052   9.773   3.636  1.00  0.00     0.031 A
HETATM   18  C12 UNL     1      21.169  10.490   4.039  1.00  0.00     0.027 A
HETATM   19  C13 UNL     1      21.835  11.363   3.198  1.00  0.00     0.074 A
HETATM   20  C16 UNL     1      21.364  11.525   1.897  1.00  0.00     0.027 A
HETATM   21  C17 UNL     1      20.243  10.806   1.486  1.00  0.00     0.031 A
BRANCH  19  22
HETATM   22  S1  UNL     1      23.226  12.235   3.748  1.00  0.00     0.242 S
HETATM   23  O2  UNL     1      23.685  13.163   2.642  1.00  0.00    -0.206 OA
HETATM   24  O3  UNL     1      22.877  13.137   4.919  1.00  0.00    -0.206 OA
BRANCH  22  25
HETATM   25  N4  UNL     1      24.539  11.211   4.143  1.00  0.00    -0.215 NA
HETATM   26  C14 UNL     1      25.692  11.949   4.599  1.00  0.00     0.129 C
HETATM   27  C15 UNL     1      24.890  10.423   2.979  1.00  0.00     0.129 C
ENDBRANCH  22  25
ENDBRANCH  19  22
ENDBRANCH  14  16
ENDBRANCH   4  14
BRANCH   1  28
HETATM   28  N1  UNL     1      20.767   5.563   0.636  1.00  0.00    -0.382 NA
BRANCH  28  29
HETATM   29  C7  UNL     1      21.921   4.938   0.498  1.00  0.00     0.142 A
HETATM   30  C2  UNL     1      21.966   3.539   0.323  1.00  0.00     0.108 A
HETATM   31  C3  UNL     1      23.174   2.926   0.183  1.00  0.00     0.040 A
HETATM   32  C4  UNL     1      24.351   3.645   0.208  1.00  0.00     0.003 A
HETATM   33  C5  UNL     1      24.320   5.005   0.377  1.00  0.00     0.003 A
HETATM   34  C6  UNL     1      23.126   5.642   0.519  1.00  0.00     0.048 A
BRANCH  30  35
HETATM   35  O1  UNL     1      20.780   2.853   0.303  1.00  0.00    -0.353 OA
HETATM   36  C1  UNL     1      20.551   1.494   0.209  1.00  0.00     0.210 C
ENDBRANCH  30  35
ENDBRANCH  28  29
ENDBRANCH   1  28
TORSDOF 7
ENDMDL