MODEL 3
REMARK VINA RESULT: -8.875584166      3.674     11.297
REMARK  9 active torsions:
REMARK  status: ('A' for Active; 'I' for Inactive)
REMARK    1  A    between atoms: C2_5  and  C3_6
REMARK    2  A    between atoms: C3_6  and  C4_7
REMARK    3  A    between atoms: C11_17  and  C12_18
REMARK    4  A    between atoms: C12_18  and  C13_19
REMARK    5  A    between atoms: N3_21  and  C15_22
REMARK    6  A    between atoms: C15_22  and  C16_23
REMARK    7  A    between atoms: C16_23  and  O2_24
REMARK    8  A    between atoms: C17_26  and  C18_27
REMARK    9  A    between atoms: C19_28  and  C20_29
ROOT
HETATM    1  C13 UNL     1      18.275   7.283   1.375  1.00  0.00     0.051 A
HETATM    2  C14 UNL     1      18.833   6.139   1.869  1.00  0.00     0.122 A
HETATM    3  N3  UNL     1      18.194   5.093   1.244  1.00  0.00    -0.339 N
HETATM    4  C17 UNL     1      17.280   5.549   0.400  1.00  0.00     0.107 A
HETATM    5  N5  UNL     1      17.349   6.928   0.500  1.00  0.00    -0.341 N
ATOM      6  H5  UNL     1      16.768   7.579  -0.027  1.00  0.00     0.167 HD
ENDROOT
BRANCH   1   7
HETATM    7  C12 UNL     1      18.665   8.658   1.775  1.00  0.00     0.066 C
BRANCH   7   8
HETATM    8  C11 UNL     1      19.947   8.966   1.931  1.00  0.00     0.104 A
HETATM    9  C1  UNL     1      20.400   9.553   3.092  1.00  0.00     0.272 A
HETATM   10  O1  UNL     1      19.585   9.800   4.019  1.00  0.00    -0.266 OA
HETATM   11  N1  UNL     1      21.684   9.888   3.310  1.00  0.00    -0.319 N
HETATM   12  C2  UNL     1      22.586   9.632   2.324  1.00  0.00     0.074 A
ATOM     13  H1  UNL     1      21.972  10.320   4.187  1.00  0.00     0.169 HD
HETATM   14  C10 UNL     1      22.134   9.046   1.163  1.00  0.00     0.128 A
HETATM   15  S1  UNL     1      23.228   8.737  -0.028  1.00  0.00    -0.058 SA
HETATM   16  N2  UNL     1      20.846   8.718   0.964  1.00  0.00    -0.341 N
ATOM     17  H2  UNL     1      20.553   8.286   0.088  1.00  0.00     0.167 HD
BRANCH  12  18
HETATM   18  C3  UNL     1      23.863   9.930   2.459  1.00  0.00     0.044 C
BRANCH  18  19
HETATM   19  C4  UNL     1      24.320  11.313   2.647  1.00  0.00    -0.034 A
HETATM   20  C5  UNL     1      24.652  11.824   3.882  1.00  0.00     0.011 A
HETATM   21  C6  UNL     1      25.081  13.139   4.020  1.00  0.00     0.001 A
HETATM   22  C7  UNL     1      25.163  13.916   2.884  1.00  0.00     0.000 A
HETATM   23  C8  UNL     1      24.832  13.413   1.633  1.00  0.00     0.001 A
HETATM   24  C9  UNL     1      24.409  12.106   1.523  1.00  0.00     0.011 A
ENDBRANCH  18  19
ENDBRANCH  12  18
ENDBRANCH   7   8
ENDBRANCH   1   7
BRANCH   3  25
HETATM   25  C15 UNL     1      18.567   3.733   1.523  1.00  0.00     0.156 C
BRANCH  25  26
HETATM   26  C16 UNL     1      17.532   3.005   2.350  1.00  0.00     0.184 C
BRANCH  26  27
HETATM   27  O2  UNL     1      17.897   2.802   3.659  1.00  0.00    -0.399 OA
ATOM     28  H2  UNL     1      18.417   2.019   3.803  1.00  0.00     0.209 HD
ENDBRANCH  26  27
ENDBRANCH  25  26
ENDBRANCH   3  25
BRANCH   4  29
HETATM   29  C18 UNL     1      16.315   4.959  -0.499  1.00  0.00     0.051 C
HETATM   30  C19 UNL     1      15.731   5.435  -1.555  1.00  0.00     0.043 C
BRANCH  30  31
HETATM   31  C20 UNL     1      14.777   4.634  -2.314  1.00  0.00     0.100 A
HETATM   32  C21 UNL     1      13.744   5.060  -3.132  1.00  0.00     0.058 A
HETATM   33  C22 UNL     1      13.107   3.941  -3.639  1.00  0.00     0.117 A
HETATM   34  N4  UNL     1      13.781   2.909  -3.106  1.00  0.00    -0.272 N
HETATM   35  O3  UNL     1      14.743   3.334  -2.343  1.00  0.00    -0.238 OA
ATOM     36  H4  UNL     1      13.568   1.926  -3.276  1.00  0.00     0.194 HD
ENDBRANCH  30  31
ENDBRANCH   4  29
TORSDOF 9
ENDMDL