MODEL 2
REMARK VINA RESULT: -8.718775196      5.491      8.407
REMARK  8 active torsions:
REMARK  status: ('A' for Active; 'I' for Inactive)
REMARK    1  A    between atoms: S1_2  and  C2_5
REMARK    2  A    between atoms: C5_8  and  N1_9
REMARK    3  A    between atoms: N1_9  and  C6_11
REMARK    4  A    between atoms: C7_14  and  N3_15
REMARK    5  A    between atoms: N3_15  and  C8_17
REMARK    6  A    between atoms: C8_17  and  C9_18
REMARK    7  A    between atoms: C9_18  and  N4_19
REMARK    8  A    between atoms: N4_19  and  C10_21
ROOT
HETATM    1  C6  UNL     1      18.697   8.250   1.605  1.00  0.00     0.262 A
HETATM    2  N2  UNL     1      17.674   7.638   0.966  1.00  0.00    -0.152 N
ATOM      3  H2  UNL     1      16.723   8.002   0.910  1.00  0.00     0.188 HD
HETATM    4  C7  UNL     1      18.086   6.493   0.420  1.00  0.00     0.701 A
HETATM    5  N6  UNL     1      19.407   6.417   0.745  1.00  0.00    -0.088 N
ATOM      6  H6  UNL     1      20.039   5.660   0.484  1.00  0.00     0.214 HD
HETATM    7  O3  UNL     1      19.731   7.461   1.438  1.00  0.00    -0.185 OA
ENDROOT
BRANCH   4   8
HETATM    8  N3  UNL     1      17.430   5.626  -0.264  1.00  0.00    -0.223 N
ATOM      9  H3  UNL     1      17.638   5.478  -1.252  1.00  0.00     0.177 HD
BRANCH   8  10
HETATM   10  C8  UNL     1      16.395   4.868   0.387  1.00  0.00     0.157 C
BRANCH  10  11
HETATM   11  C9  UNL     1      16.937   4.115   1.593  1.00  0.00     0.140 C
BRANCH  11  12
HETATM   12  N4  UNL     1      17.191   2.732   1.298  1.00  0.00    -0.388 N
ATOM     13  H4  UNL     1      16.532   2.029   1.632  1.00  0.00     0.159 HD
BRANCH  12  14
HETATM   14  C10 UNL     1      18.218   2.352   0.630  1.00  0.00     0.042 A
HETATM   15  C11 UNL     1      19.500   2.635   1.047  1.00  0.00     0.047 A
HETATM   16  C12 UNL     1      20.603   2.224   0.328  1.00  0.00     0.090 A
HETATM   17  N5  UNL     1      20.395   1.533  -0.803  1.00  0.00    -0.365 N
HETATM   18  C13 UNL     1      19.160   1.237  -1.243  1.00  0.00     0.044 A
ATOM     19  H5  UNL     1      21.201   1.223  -1.348  1.00  0.00     0.165 HD
HETATM   20  C14 UNL     1      18.970   0.514  -2.426  1.00  0.00     0.030 A
HETATM   21  C18 UNL     1      18.046   1.637  -0.540  1.00  0.00     0.017 A
HETATM   22  C15 UNL     1      17.716   0.199  -2.899  1.00  0.00     0.002 A
HETATM   23  C16 UNL     1      16.604   0.603  -2.190  1.00  0.00     0.001 A
HETATM   24  C17 UNL     1      16.787   1.320  -1.015  1.00  0.00     0.016 A
ENDBRANCH  12  14
ENDBRANCH  11  12
ENDBRANCH  10  11
ENDBRANCH   8  10
ENDBRANCH   4   8
BRANCH   1  25
HETATM   25  N1  UNL     1      18.725   9.340   2.242  1.00  0.00    -0.320 N
ATOM     26  H1  UNL     1      17.826   9.693   2.570  1.00  0.00     0.169 HD
BRANCH  25  27
HETATM   27  C5  UNL     1      19.843  10.120   2.550  1.00  0.00     0.035 A
HETATM   28  C4  UNL     1      20.305  11.076   1.668  1.00  0.00     0.031 A
HETATM   29  C3  UNL     1      21.411  11.861   1.950  1.00  0.00     0.025 A
HETATM   30  C2  UNL     1      22.103  11.720   3.134  1.00  0.00     0.059 A
HETATM   31  C20 UNL     1      21.650  10.767   4.022  1.00  0.00     0.025 A
HETATM   32  C19 UNL     1      20.543   9.986   3.732  1.00  0.00     0.031 A
BRANCH  30  33
HETATM   33  S1  UNL     1      23.506  12.703   3.513  1.00  0.00     0.171 S
HETATM   34  C1  UNL     1      24.369  13.021   1.991  1.00  0.00     0.167 C
HETATM   35  O1  UNL     1      24.395  12.029   4.518  1.00  0.00    -0.223 OA
HETATM   36  O2  UNL     1      23.021  14.034   4.033  1.00  0.00    -0.223 OA
ENDBRANCH  30  33
ENDBRANCH  25  27
ENDBRANCH   1  25
TORSDOF 8
ENDMDL