MODEL 3
REMARK VINA RESULT: -9.520417639      1.363      1.850
REMARK  5 active torsions:
REMARK  status: ('A' for Active; 'I' for Inactive)
REMARK       I    between atoms: C3_3  and  N1_5
REMARK    1  A    between atoms: N1_5  and  S1_7
REMARK    2  A    between atoms: S1_7  and  C4_10
REMARK    3  A    between atoms: C7_15  and  C8_16
REMARK    4  A    between atoms: C13_25  and  N5_26
REMARK    5  A    between atoms: N5_26  and  C14_28
ROOT
HETATM    1  C1  UNL     1      23.685  10.873  -4.270  1.00  0.00     0.022 C
HETATM    2  C2  UNL     1      24.043  10.263  -3.291  1.00  0.00    -0.016 C
HETATM    3  C3  UNL     1      24.488   9.554  -2.133  1.00  0.00     0.309 C
HETATM    4  O1  UNL     1      25.577   9.816  -1.568  1.00  0.00    -0.257 OA
HETATM    5  N1  UNL     1      23.686   8.520  -1.593  1.00  0.00    -0.239 N
ATOM      6  H1  UNL     1      22.800   8.306  -2.051  1.00  0.00     0.182 HD
ENDROOT
BRANCH   5   7
HETATM    7  S1  UNL     1      24.127   7.608  -0.207  1.00  0.00     0.268 S
HETATM    8  O2  UNL     1      25.309   6.732  -0.432  1.00  0.00    -0.200 OA
HETATM    9  O3  UNL     1      24.374   8.589   0.922  1.00  0.00    -0.200 OA
BRANCH   7  10
HETATM   10  C4  UNL     1      22.732   6.634   0.284  1.00  0.00     0.107 A
HETATM   11  C5  UNL     1      22.625   5.263   0.268  1.00  0.00     0.114 A
HETATM   12  N2  UNL     1      21.429   4.919   0.709  1.00  0.00    -0.363 N
HETATM   13  C6  UNL     1      20.740   6.028   1.016  1.00  0.00     0.055 A
ATOM     14  H2  UNL     1      21.084   3.964   0.802  1.00  0.00     0.165 HD
HETATM   15  C7  UNL     1      19.456   6.191   1.514  1.00  0.00     0.007 A
HETATM   16  C20 UNL     1      21.544   7.124   0.755  1.00  0.00     0.018 A
HETATM   17  C12 UNL     1      19.016   7.477   1.739  1.00  0.00     0.044 A
HETATM   18  C13 UNL     1      19.791   8.580   1.490  1.00  0.00     0.035 A
HETATM   19  C19 UNL     1      21.057   8.392   0.996  1.00  0.00     0.044 A
BRANCH  15  20
HETATM   20  C8  UNL     1      18.610   5.033   1.774  1.00  0.00     0.007 A
HETATM   21  C9  UNL     1      17.814   4.465   0.813  1.00  0.00     0.102 A
HETATM   22  N3  UNL     1      17.065   3.398   1.125  1.00  0.00    -0.361 N
HETATM   23  C10 UNL     1      17.054   2.839   2.363  1.00  0.00     0.180 A
ATOM     24  H3  UNL     1      16.478   2.986   0.399  1.00  0.00     0.166 HD
HETATM   25  N4  UNL     1      17.838   3.401   3.302  1.00  0.00    -0.361 N
HETATM   26  C11 UNL     1      18.608   4.467   3.054  1.00  0.00     0.102 A
ATOM     27  H4  UNL     1      17.846   2.998   4.240  1.00  0.00     0.166 HD
ENDBRANCH  15  20
BRANCH  18  28
HETATM   28  N5  UNL     1      19.314   9.863   1.734  1.00  0.00    -0.342 N
ATOM     29  H5  UNL     1      18.345  10.018   1.455  1.00  0.00     0.167 HD
BRANCH  28  30
HETATM   30  C14 UNL     1      19.884  10.868   2.243  1.00  0.00     0.105 A
HETATM   31  C15 UNL     1      20.551  10.902   3.446  1.00  0.00     0.048 A
HETATM   32  C16 UNL     1      21.158  12.060   3.935  1.00  0.00     0.005 A
HETATM   33  C17 UNL     1      21.096  13.218   3.197  1.00  0.00     0.017 A
HETATM   34  C18 UNL     1      20.424  13.169   1.995  1.00  0.00     0.089 A
HETATM   35  N6  UNL     1      19.854  12.049   1.556  1.00  0.00    -0.352 N
ATOM     36  H6  UNL     1      19.370  12.073   0.658  1.00  0.00     0.166 HD
ENDBRANCH  28  30
ENDBRANCH  18  28
ENDBRANCH   7  10
ENDBRANCH   5   7
TORSDOF 5
ENDMDL