MODEL 5
REMARK VINA RESULT: -7.994637764      3.983      9.787
REMARK  10 active torsions:
REMARK  status: ('A' for Active; 'I' for Inactive)
REMARK    1  A    between atoms: C2_2  and  C3_3
REMARK    2  A    between atoms: C7_11  and  O1_12
REMARK    3  A    between atoms: O1_12  and  C8_13
REMARK    4  A    between atoms: C8_13  and  C9_14
REMARK    5  A    between atoms: C9_14  and  O2_17
REMARK    6  A    between atoms: C12_19  and  O3_20
REMARK    7  A    between atoms: C12_19  and  C13_22
REMARK    8  A    between atoms: C15_26  and  C16_27
REMARK    9  A    between atoms: C17_28  and  C18_29
REMARK   10  A    between atoms: C18_29  and  O4_32
ROOT
HETATM    1  C3  UNL     1      21.256   9.735   2.739  1.00  0.00     0.037 A
HETATM    2  N1  UNL     1      20.548  10.206   3.778  1.00  0.00    -0.304 N
ATOM      3  H1  UNL     1      19.565  10.000   3.958  1.00  0.00     0.186 HD
HETATM    4  N2  UNL     1      21.318  10.984   4.543  1.00  0.00    -0.300 N
ATOM      5  H2  UNL     1      21.024  11.464   5.394  1.00  0.00     0.187 HD
HETATM    6  C4  UNL     1      22.533  11.027   4.009  1.00  0.00     0.056 A
HETATM    7  C5  UNL     1      22.561  10.237   2.850  1.00  0.00     0.014 A
HETATM    8  C6  UNL     1      23.511   9.907   2.019  1.00  0.00     0.024 C
HETATM    9  C7  UNL     1      24.963  10.419   2.115  1.00  0.00     0.186 C
HETATM   10  C12 UNL     1      24.839  11.881   2.470  1.00  0.00     0.139 C
HETATM   11  C21 UNL     1      24.914  11.939   3.996  1.00  0.00     0.077 C
HETATM   12  C22 UNL     1      23.539  11.778   4.482  1.00  0.00     0.008 C
ENDROOT
BRANCH  10  13
HETATM   13  O3  UNL     1      23.613  12.426   2.109  1.00  0.00    -0.380 OA
ATOM     14  H3  UNL     1      22.896  12.117   2.650  1.00  0.00     0.211 HD
ENDBRANCH  10  13
BRANCH  10  15
HETATM   15  C13 UNL     1      25.888  12.737   1.871  1.00  0.00     0.090 A
HETATM   16  N3  UNL     1      26.042  14.046   1.973  1.00  0.00    -0.359 N
HETATM   17  C14 UNL     1      27.052  14.637   1.417  1.00  0.00     0.116 A
ATOM     18  H3  UNL     1      25.360  14.596   2.494  1.00  0.00     0.165 HD
HETATM   19  C15 UNL     1      27.942  13.863   0.724  1.00  0.00     0.075 A
HETATM   20  S1  UNL     1      27.266  12.301   0.917  1.00  0.00    -0.063 SA
BRANCH  19  21
HETATM   21  C16 UNL     1      29.156  14.258   0.030  1.00  0.00    -0.055 C
HETATM   22  C17 UNL     1      30.149  14.618  -0.541  1.00  0.00    -0.063 C
BRANCH  22  23
HETATM   23  C18 UNL     1      31.378  15.091  -1.222  1.00  0.00     0.114 C
HETATM   24  C19 UNL     1      31.856  14.048  -2.225  1.00  0.00     0.060 C
HETATM   25  C20 UNL     1      32.427  15.223  -0.160  1.00  0.00     0.060 C
BRANCH  23  26
HETATM   26  O4  UNL     1      31.146  16.310  -1.845  1.00  0.00    -0.378 OA
ATOM     27  H4  UNL     1      31.949  16.816  -1.889  1.00  0.00     0.211 HD
ENDBRANCH  23  26
ENDBRANCH  22  23
ENDBRANCH  19  21
ENDBRANCH  10  15
BRANCH   9  28
HETATM   28  O1  UNL     1      25.417   9.720   3.194  1.00  0.00    -0.376 OA
BRANCH  28  29
HETATM   29  C8  UNL     1      26.329   8.806   3.284  1.00  0.00     0.205 C
BRANCH  29  30
HETATM   30  C9  UNL     1      27.431   9.068   4.256  1.00  0.00     0.072 C
HETATM   31  C10 UNL     1      28.204   7.852   4.586  1.00  0.00     0.047 C
HETATM   32  C11 UNL     1      28.421  10.096   3.654  1.00  0.00     0.047 C
BRANCH  30  33
HETATM   33  O2  UNL     1      26.957   9.744   5.396  1.00  0.00    -0.388 OA
ATOM     34  H2  UNL     1      27.279   9.342   6.194  1.00  0.00     0.210 HD
ENDBRANCH  30  33
ENDBRANCH  29  30
ENDBRANCH  28  29
ENDBRANCH   9  28
BRANCH   1  35
HETATM   35  C2  UNL     1      20.696   8.917   1.639  1.00  0.00     0.055 C
HETATM   36  C1  UNL     1      19.176   8.798   1.796  1.00  0.00     0.011 C
ENDBRANCH   1  35
TORSDOF 10
ENDMDL