MODEL 3
REMARK VINA RESULT: -9.051102266      2.976      4.539
REMARK  5 active torsions:
REMARK  status: ('A' for Active; 'I' for Inactive)
REMARK    1  A    between atoms: C5_8  and  N2_9
REMARK    2  A    between atoms: C10_16  and  C11_17
REMARK    3  A    between atoms: C13_21  and  C14_22
REMARK    4  A    between atoms: C14_22  and  C15_23
REMARK    5  A    between atoms: C15_23  and  N5_24
ROOT
HETATM    1  N2  UNL     1      16.991   4.154  -1.672  1.00  0.00    -0.362 N
HETATM    2  C6  UNL     1      17.411   2.770  -1.788  1.00  0.00     0.131 C
HETATM    3  C7  UNL     1      17.460   2.178  -0.395  1.00  0.00     0.077 C
HETATM    4  C8  UNL     1      18.414   2.986   0.404  1.00  0.00     0.019 A
HETATM    5  N3  UNL     1      19.338   2.678   1.344  1.00  0.00    -0.368 N
ATOM      6  H3  UNL     1      19.546   1.737   1.680  1.00  0.00     0.165 HD
HETATM    7  C9  UNL     1      19.938   3.804   1.764  1.00  0.00     0.104 A
HETATM    8  C10 UNL     1      19.409   4.885   1.095  1.00  0.00     0.033 A
HETATM    9  C21 UNL     1      18.450   4.350   0.241  1.00  0.00    -0.002 A
HETATM   10  C22 UNL     1      17.571   5.062  -0.713  1.00  0.00     0.166 C
ENDROOT
BRANCH   8  11
HETATM   11  C11 UNL     1      19.758   6.293   1.238  1.00  0.00     0.117 A
HETATM   12  N4  UNL     1      20.888   6.882   0.811  1.00  0.00    -0.350 N
HETATM   13  C12 UNL     1      20.867   8.197   1.118  1.00  0.00     0.114 A
ATOM     14  H4  UNL     1      21.649   6.405   0.327  1.00  0.00     0.166 HD
HETATM   15  C13 UNL     1      19.677   8.456   1.763  1.00  0.00     0.028 A
HETATM   16  N7  UNL     1      19.041   7.278   1.814  1.00  0.00    -0.344 N
ATOM     17  H7  UNL     1      18.123   7.142   2.237  1.00  0.00     0.167 HD
BRANCH  15  18
HETATM   18  C14 UNL     1      19.211   9.782   2.291  1.00  0.00     0.088 C
BRANCH  18  19
HETATM   19  C15 UNL     1      20.017  10.848   1.556  1.00  0.00     0.278 C
BRANCH  19  20
HETATM   20  N5  UNL     1      20.936  11.530   2.408  1.00  0.00     0.092 N
HETATM   21  C16 UNL     1      20.748  12.961   2.472  1.00  0.00     0.302 C
HETATM   22  C17 UNL     1      21.197  13.544   3.783  1.00  0.00     0.302 C
HETATM   23  N6  UNL     1      22.301  12.879   4.391  1.00  0.00     0.087 N
HETATM   24  C18 UNL     1      23.598  13.353   3.950  1.00  0.00     0.310 C
HETATM   25  C19 UNL     1      22.290  11.456   4.359  1.00  0.00     0.302 C
HETATM   26  C20 UNL     1      21.024  10.939   3.731  1.00  0.00     0.302 C
ENDBRANCH  19  20
ENDBRANCH  18  19
ENDBRANCH  15  18
ENDBRANCH   8  11
BRANCH   1  27
HETATM   27  C5  UNL     1      15.970   4.621  -2.530  1.00  0.00     0.110 A
HETATM   28  C4  UNL     1      14.670   4.695  -2.109  1.00  0.00     0.122 A
HETATM   29  C3  UNL     1      13.696   5.160  -2.993  1.00  0.00     0.250 A
HETATM   30  N1  UNL     1      14.093   5.515  -4.227  1.00  0.00    -0.313 N
HETATM   31  O1  UNL     1      12.501   5.226  -2.598  1.00  0.00    -0.268 OA
HETATM   32  C2  UNL     1      15.361   5.453  -4.666  1.00  0.00     0.081 A
ATOM     33  H1  UNL     1      13.383   5.855  -4.875  1.00  0.00     0.170 HD
HETATM   34  C1  UNL     1      15.715   5.865  -6.052  1.00  0.00     0.089 C
HETATM   35  N8  UNL     1      16.285   5.001  -3.794  1.00  0.00    -0.332 N
ATOM     36  H8  UNL     1      17.257   4.941  -4.096  1.00  0.00     0.168 HD
ENDBRANCH   1  27
TORSDOF 5
ENDMDL