MODEL 2
REMARK VINA RESULT: -8.294167167      4.645      9.891
REMARK  7 active torsions:
REMARK  status: ('A' for Active; 'I' for Inactive)
REMARK    1  A    between atoms: C4_7  and  N3_8
REMARK    2  A    between atoms: C5_10  and  C6_11
REMARK    3  A    between atoms: C6_11  and  N4_12
REMARK    4  A    between atoms: N5_15  and  C9_16
REMARK    5  A    between atoms: C17_26  and  N7_27
REMARK    6  A    between atoms: N7_27  and  C18_29
REMARK    7  A    between atoms: C21_32  and  O1_33
ROOT
HETATM    1  N1  UNL     1      22.862   3.645   0.170  1.00  0.00    -0.191 NA
HETATM    2  C1  UNL     1      22.374   4.690   0.365  1.00  0.00     0.104 C
HETATM    3  C2  UNL     1      21.784   5.966   0.627  1.00  0.00     0.104 A
HETATM    4  C3  UNL     1      22.514   7.112   0.605  1.00  0.00     0.132 A
HETATM    5  N2  UNL     1      21.916   8.313   0.861  1.00  0.00    -0.200 N
ATOM      6  H2  UNL     1      22.490   9.156   0.837  1.00  0.00     0.183 HD
HETATM    7  C4  UNL     1      20.617   8.437   1.141  1.00  0.00     0.683 A
HETATM    8  N6  UNL     1      19.897   7.258   1.158  1.00  0.00    -0.175 N
ATOM      9  H6  UNL     1      18.900   7.304   1.368  1.00  0.00     0.186 HD
HETATM   10  C17 UNL     1      20.428   6.084   0.918  1.00  0.00     0.139 A
ENDROOT
BRANCH  10  11
HETATM   11  N7  UNL     1      19.759   4.986   0.931  1.00  0.00    -0.370 N
ATOM     12  H7  UNL     1      19.875   4.399   1.757  1.00  0.00     0.161 HD
BRANCH  11  13
HETATM   13  C18 UNL     1      18.877   4.494  -0.071  1.00  0.00     0.083 C
HETATM   14  C19 UNL     1      17.410   4.733   0.316  1.00  0.00     0.028 C
HETATM   15  C20 UNL     1      17.166   4.269   1.731  1.00  0.00     0.034 C
HETATM   16  C21 UNL     1      17.622   2.877   2.001  1.00  0.00     0.118 C
HETATM   17  C22 UNL     1      18.925   2.510   1.355  1.00  0.00     0.034 C
HETATM   18  C23 UNL     1      19.024   2.965  -0.074  1.00  0.00     0.028 C
BRANCH  16  19
HETATM   19  O1  UNL     1      17.812   2.769   3.399  1.00  0.00    -0.396 OA
ATOM     20  H1  UNL     1      17.198   2.115   3.712  1.00  0.00     0.210 HD
ENDBRANCH  16  19
ENDBRANCH  11  13
ENDBRANCH  10  11
BRANCH   7  21
HETATM   21  N3  UNL     1      20.017   9.475   1.375  1.00  0.00    -0.203 N
HETATM   22  C5  UNL     1      19.872  10.501   2.251  1.00  0.00     0.109 C
ATOM     23  H3  UNL     1      19.366   9.634   0.607  1.00  0.00     0.183 HD
BRANCH  22  24
HETATM   24  C6  UNL     1      20.626  10.452   3.581  1.00  0.00     0.318 C
BRANCH  24  25
HETATM   25  N4  UNL     1      21.599  11.523   3.525  1.00  0.00     0.102 N
HETATM   26  C7  UNL     1      22.352  11.709   4.731  1.00  0.00     0.318 C
HETATM   27  C8  UNL     1      23.720  12.283   4.469  1.00  0.00     0.093 C
HETATM   28  N5  UNL     1      24.509  11.605   3.523  1.00  0.00    -0.366 N
HETATM   29  C15 UNL     1      23.769  10.968   2.517  1.00  0.00     0.093 C
HETATM   30  C16 UNL     1      22.410  11.537   2.342  1.00  0.00     0.318 C
BRANCH  28  31
HETATM   31  C9  UNL     1      25.669  12.335   3.155  1.00  0.00     0.088 C
HETATM   32  C10 UNL     1      25.498  13.831   3.094  1.00  0.00     0.026 C
HETATM   33  C11 UNL     1      25.868  14.394   1.721  1.00  0.00     0.002 C
HETATM   34  C12 UNL     1      27.283  14.073   1.356  1.00  0.00     0.000 C
HETATM   35  C13 UNL     1      27.608  12.649   1.739  1.00  0.00     0.002 C
HETATM   36  C14 UNL     1      26.270  11.902   1.836  1.00  0.00     0.026 C
ENDBRANCH  28  31
ENDBRANCH  24  25
ENDBRANCH  22  24
ENDBRANCH   7  21
TORSDOF 7
ENDMDL