MODEL 4
REMARK VINA RESULT: -6.132490873      4.039      8.329
REMARK  12 active torsions:
REMARK  status: ('A' for Active; 'I' for Inactive)
REMARK    1  A    between atoms: N1_2  and  O1_3
REMARK    2  A    between atoms: N1_2  and  C2_5
REMARK    3  A    between atoms: C2_5  and  O2_6
REMARK    4  A    between atoms: C2_5  and  C3_8
REMARK    5  A    between atoms: C2_5  and  C14_43
REMARK    6  A    between atoms: C4_11  and  C5_12
REMARK       I    between atoms: C5_12  and  N3_14
REMARK    7  A    between atoms: N3_14  and  C6_16
REMARK    8  A    between atoms: N5_21  and  N6_22
REMARK    9  A    between atoms: N6_22  and  N7_24
REMARK   10  A    between atoms: C10_30  and  N9_31
REMARK   11  A    between atoms: C11_36  and  N11_37
REMARK   12  A    between atoms: C14_43  and  O4_46
ROOT
HETATM    1  C3  UNL     1     105.171  28.371  -0.213  1.00  0.00     0.102 A
HETATM    2  N2  UNL     1     104.909  29.600  -0.859  1.00  0.00    -0.335 N
ATOM      3  H2  UNL     1     104.083  29.612  -1.456  1.00  0.00     0.167 HD
HETATM    4  C4  UNL     1     105.569  30.711  -0.802  1.00  0.00     0.176 A
HETATM    5  N8  UNL     1     106.638  30.765  -0.054  1.00  0.00    -0.333 N
ATOM      6  H8  UNL     1     107.171  31.633  -0.003  1.00  0.00     0.168 HD
HETATM    7  C9  UNL     1     107.044  29.700   0.645  1.00  0.00     0.108 A
HETATM    8  C10 UNL     1     108.145  29.805   1.500  1.00  0.00     0.144 A
HETATM    9  N10 UNL     1     108.513  28.772   2.278  1.00  0.00    -0.175 N
ATOM     10  H10 UNL     1     109.315  28.831   2.906  1.00  0.00     0.186 HD
HETATM   11  C11 UNL     1     107.769  27.657   2.187  1.00  0.00     0.679 A
HETATM   12  N12 UNL     1     106.687  27.552   1.344  1.00  0.00    -0.183 N
HETATM   13  C12 UNL     1     105.818  26.443   1.465  1.00  0.00     0.175 C
HETATM   14  C13 UNL     1     106.291  28.544   0.543  1.00  0.00     0.109 A
ENDROOT
BRANCH   4  15
HETATM   15  C5  UNL     1     105.130  31.896  -1.551  1.00  0.00     0.291 C
HETATM   16  O3  UNL     1     105.135  31.887  -2.802  1.00  0.00    -0.264 OA
HETATM   17  N3  UNL     1     104.698  33.059  -0.884  1.00  0.00    -0.303 N
ATOM     18  H3  UNL     1     104.701  33.061   0.136  1.00  0.00     0.171 HD
BRANCH  17  19
HETATM   19  C6  UNL     1     104.267  34.209  -1.549  1.00  0.00     0.151 A
HETATM   20  C7  UNL     1     104.956  35.289  -2.040  1.00  0.00     0.071 A
HETATM   21  C8  UNL     1     104.067  36.192  -2.641  1.00  0.00     0.113 A
HETATM   22  N4  UNL     1     102.875  35.614  -2.483  1.00  0.00    -0.288 N
HETATM   23  N5  UNL     1     102.964  34.477  -1.861  1.00  0.00    -0.166 N
ATOM     24  H4  UNL     1     101.998  36.017  -2.812  1.00  0.00     0.188 HD
BRANCH  23  25
HETATM   25  N6  UNL     1     101.876  33.655  -1.555  1.00  0.00    -0.226 N
ATOM     26  H6  UNL     1     101.947  33.037  -0.747  1.00  0.00     0.210 HD
BRANCH  25  27
HETATM   27  N7  UNL     1     100.702  33.639  -2.298  1.00  0.00    -0.329 N
ATOM     28  H72 UNL     1     100.461  34.487  -2.811  1.00  0.00     0.178 HD
ATOM     29  H71 UNL     1     100.085  32.829  -2.350  1.00  0.00     0.178 HD
ENDBRANCH  25  27
ENDBRANCH  23  25
ENDBRANCH  17  19
ENDBRANCH   4  15
BRANCH   1  30
HETATM   30  C2  UNL     1     104.545  27.193  -0.641  1.00  0.00     0.232 C
BRANCH  30  31
HETATM   31  N1  UNL     1     103.258  27.861  -0.857  1.00  0.00    -0.237 N
HETATM   32  C1  UNL     1     102.088  27.868  -0.305  1.00  0.00     0.153 C
BRANCH  31  33
HETATM   33  O1  UNL     1     103.177  28.272  -2.173  1.00  0.00    -0.285 OA
ATOM     34  H1  UNL     1     103.786  27.783  -2.714  1.00  0.00     0.245 HD
ENDBRANCH  31  33
ENDBRANCH  30  31
BRANCH  30  35
HETATM   35  O2  UNL     1     105.352  27.383  -1.917  1.00  0.00    -0.361 OA
ATOM     36  H2  UNL     1     106.000  26.687  -1.935  1.00  0.00     0.213 HD
ENDBRANCH  30  35
BRANCH  30  37
HETATM   37  C14 UNL     1     104.131  26.064  -1.361  1.00  0.00     0.109 C
HETATM   38  C15 UNL     1     105.280  25.418  -2.212  1.00  0.00     0.051 C
HETATM   39  C16 UNL     1     103.602  24.774  -0.740  1.00  0.00     0.051 C
BRANCH  37  40
HETATM   40  O4  UNL     1     103.106  26.178  -2.362  1.00  0.00    -0.385 OA
ATOM     41  H4  UNL     1     103.339  26.235  -3.281  1.00  0.00     0.210 HD
ENDBRANCH  37  40
ENDBRANCH  30  37
ENDBRANCH   1  30
BRANCH   8  42
HETATM   42  N9  UNL     1     108.784  30.924   1.509  1.00  0.00    -0.383 N
ATOM     43  H92 UNL     1     108.859  31.507   0.675  1.00  0.00     0.157 HD
ATOM     44  H91 UNL     1     109.217  31.210   2.387  1.00  0.00     0.157 HD
ENDBRANCH   8  42
BRANCH  11  45
HETATM   45  N11 UNL     1     108.065  26.626   2.913  1.00  0.00    -0.234 N
ATOM     46 2H11 UNL     1     107.967  26.717   3.925  1.00  0.00     0.174 HD
ATOM     47 1H11 UNL     1     108.383  25.766   2.465  1.00  0.00     0.174 HD
ENDBRANCH  11  45
TORSDOF 12
ENDMDL