MODEL 1
REMARK VINA RESULT: -7.423673313      0.000      0.000
REMARK  12 active torsions:
REMARK  status: ('A' for Active; 'I' for Inactive)
REMARK    1  A    between atoms: C2_7  and  C3_8
REMARK    2  A    between atoms: C3_8  and  N4_9
REMARK    3  A    between atoms: C5_11  and  C6_12
REMARK    4  A    between atoms: C6_12  and  N5_13
REMARK    5  A    between atoms: N5_13  and  C7_15
REMARK    6  A    between atoms: C8_18  and  N7_19
REMARK    7  A    between atoms: C10_26  and  N10_27
REMARK    8  A    between atoms: C11_28  and  O1_29
REMARK    9  A    between atoms: C12_31  and  C13_32
REMARK   10  A    between atoms: C13_32  and  N11_33
REMARK   11  A    between atoms: C13_32  and  O2_37
REMARK   12  A    between atoms: C14_41  and  N13_42
ROOT
HETATM    1  C7  UNL     1     104.474  26.532  -1.864  1.00  0.00     0.148 A
HETATM    2  N6  UNL     1     105.221  27.590  -2.219  1.00  0.00    -0.175 N
ATOM      3  H6  UNL     1     106.091  27.440  -2.731  1.00  0.00     0.186 HD
HETATM    4  C8  UNL     1     104.840  28.849  -1.910  1.00  0.00     0.678 A
HETATM    5  N8  UNL     1     103.692  29.041  -1.236  1.00  0.00    -0.177 N
ATOM      6  H8  UNL     1     103.400  29.989  -1.000  1.00  0.00     0.185 HD
HETATM    7  C9  UNL     1     102.923  27.998  -0.866  1.00  0.00     0.163 A
HETATM    8  N9  UNL     1     101.727  28.217  -0.162  1.00  0.00    -0.080 NA
HETATM    9  C10 UNL     1     103.282  26.703  -1.166  1.00  0.00     0.145 A
ENDROOT
BRANCH   1  10
HETATM   10  N5  UNL     1     104.813  25.329  -2.146  1.00  0.00    -0.368 N
ATOM     11  H5  UNL     1     104.235  24.763  -2.768  1.00  0.00     0.161 HD
BRANCH  10  12
HETATM   12  C6  UNL     1     106.024  24.784  -1.573  1.00  0.00     0.181 C
BRANCH  12  13
HETATM   13  C5  UNL     1     106.002  23.303  -1.469  1.00  0.00     0.062 A
HETATM   14  C4  UNL     1     104.980  22.448  -1.799  1.00  0.00     0.140 A
HETATM   15  N4  UNL     1     105.395  21.192  -1.535  1.00  0.00    -0.280 N
HETATM   16  N15 UNL     1     106.623  21.300  -1.064  1.00  0.00    -0.240 N
HETATM   17  N14 UNL     1     107.010  22.556  -1.014  1.00  0.00    -0.287 N
ATOM     18  H15 UNL     1     107.200  20.510  -0.776  1.00  0.00     0.208 HD
ATOM     19  H14 UNL     1     107.914  22.897  -0.688  1.00  0.00     0.188 HD
BRANCH  15  20
HETATM   20  C3  UNL     1     104.627  19.974  -1.742  1.00  0.00     0.229 C
BRANCH  20  21
HETATM   21  C2  UNL     1     103.384  19.961  -0.933  1.00  0.00     0.133 A
HETATM   22  N3  UNL     1     103.343  20.259   0.376  1.00  0.00    -0.271 N
HETATM   23  N2  UNL     1     102.117  20.168   0.838  1.00  0.00    -0.225 N
ATOM     24  H3  UNL     1     104.155  20.522   0.937  1.00  0.00     0.190 HD
HETATM   25  N1  UNL     1     101.353  19.805  -0.180  1.00  0.00    -0.223 N
ATOM     26  H2  UNL     1     101.814  20.342   1.796  1.00  0.00     0.210 HD
HETATM   27  C1  UNL     1      99.923  19.600  -0.061  1.00  0.00     0.202 C
HETATM   28  N16 UNL     1     102.114  19.673  -1.272  1.00  0.00    -0.269 N
ATOM     29  H16 UNL     1     101.789  19.403  -2.201  1.00  0.00     0.190 HD
ENDBRANCH  20  21
ENDBRANCH  15  20
ENDBRANCH  12  13
ENDBRANCH  10  12
ENDBRANCH   1  10
BRANCH   9  30
HETATM   30  N10 UNL     1     102.533  25.549  -0.821  1.00  0.00    -0.117 N
HETATM   31  C11 UNL     1     101.475  25.016  -1.458  1.00  0.00     0.191 A
HETATM   32  C12 UNL     1     101.022  23.891  -0.816  1.00  0.00     0.134 A
HETATM   33  N12 UNL     1     101.826  23.734   0.242  1.00  0.00    -0.186 N
HETATM   34  C14 UNL     1     102.737  24.723   0.250  1.00  0.00     0.685 A
ATOM     35  H12 UNL     1     101.760  22.985   0.931  1.00  0.00     0.184 HD
BRANCH  31  36
HETATM   36  O1  UNL     1     100.903  25.522  -2.612  1.00  0.00    -0.344 OA
ATOM     37  H1  UNL     1     100.013  25.845  -2.684  1.00  0.00     0.219 HD
ENDBRANCH  31  36
BRANCH  32  38
HETATM   38  C13 UNL     1      99.885  23.007  -1.185  1.00  0.00     0.372 C
BRANCH  38  39
HETATM   39  N11 UNL     1     100.163  22.432  -2.506  1.00  0.00    -0.047 N
ATOM     40 3H11 UNL     1      99.407  22.591  -3.171  1.00  0.00     0.277 HD
ATOM     41 2H11 UNL     1     100.895  22.935  -3.008  1.00  0.00     0.277 HD
ATOM     42 1H11 UNL     1     100.379  21.442  -2.383  1.00  0.00     0.277 HD
ENDBRANCH  38  39
BRANCH  38  43
HETATM   43  O2  UNL     1      98.721  23.745  -1.319  1.00  0.00    -0.365 OA
ATOM     44  H2  UNL     1      98.017  23.198  -1.645  1.00  0.00     0.212 HD
ENDBRANCH  38  43
ENDBRANCH  32  38
BRANCH  34  45
HETATM   45  N13 UNL     1     103.642  24.840   1.146  1.00  0.00    -0.234 N
ATOM     46 2H13 UNL     1     103.466  24.710   2.142  1.00  0.00     0.174 HD
ATOM     47 1H13 UNL     1     104.623  25.071   0.996  1.00  0.00     0.174 HD
ENDBRANCH  34  45
ENDBRANCH   9  30
BRANCH   4  48
HETATM   48  N7  UNL     1     105.571  29.869  -2.258  1.00  0.00    -0.234 N
ATOM     49  H72 UNL     1     105.701  30.092  -3.245  1.00  0.00     0.174 HD
ATOM     50  H71 UNL     1     106.018  30.454  -1.553  1.00  0.00     0.174 HD
ENDBRANCH   4  48
TORSDOF 12
ENDMDL