MODEL 3
REMARK VINA RESULT: -7.372636092      2.370      3.311
REMARK  14 active torsions:
REMARK  status: ('A' for Active; 'I' for Inactive)
REMARK    1  A    between atoms: C2_5  and  C3_6
REMARK    2  A    between atoms: C3_6  and  C4_7
REMARK    3  A    between atoms: C4_7  and  O1_8
REMARK    4  A    between atoms: C4_7  and  N3_10
REMARK    5  A    between atoms: N3_10  and  C5_12
REMARK    6  A    between atoms: C7_19  and  C8_20
REMARK    7  A    between atoms: N7_23  and  C9_24
REMARK    8  A    between atoms: C9_24  and  O2_25
REMARK    9  A    between atoms: C9_24  and  C10_27
REMARK   10  A    between atoms: C10_27  and  O3_28
REMARK   11  A    between atoms: C12_33  and  O5_34
REMARK   12  A    between atoms: C13_36  and  O6_37
REMARK   13  A    between atoms: C14_39  and  N8_40
REMARK   14  A    between atoms: N8_40  and  N9_42
ROOT
HETATM    1  C5  UNL     1     103.158  25.837   0.981  1.00  0.00     0.145 A
HETATM    2  N4  UNL     1     104.326  26.396   1.320  1.00  0.00    -0.326 N
ATOM      3  H4  UNL     1     104.749  26.123   2.208  1.00  0.00     0.169 HD
HETATM    4  C6  UNL     1     104.972  27.293   0.565  1.00  0.00     0.116 A
HETATM    5  N5  UNL     1     106.108  27.793   0.962  1.00  0.00    -0.385 N
ATOM      6  H51 UNL     1     106.600  28.476   0.386  1.00  0.00     0.157 HD
ATOM      7  H52 UNL     1     106.481  27.483   1.859  1.00  0.00     0.157 HD
HETATM    8  C7  UNL     1     104.470  27.710  -0.642  1.00  0.00     0.076 A
HETATM    9  C12 UNL     1     103.295  27.171  -1.026  1.00  0.00     0.119 A
HETATM   10  C13 UNL     1     102.616  26.244  -0.255  1.00  0.00     0.144 A
ENDROOT
BRANCH   1  11
HETATM   11  N3  UNL     1     102.479  24.846   1.751  1.00  0.00    -0.324 N
ATOM     12  H3  UNL     1     102.223  25.159   2.687  1.00  0.00     0.169 HD
BRANCH  11  13
HETATM   13  C4  UNL     1     102.101  23.546   1.481  1.00  0.00     0.122 C
BRANCH  13  14
HETATM   14  C3  UNL     1     102.483  22.615   0.442  1.00  0.00     0.146 C
BRANCH  14  15
HETATM   15  C2  UNL     1     101.480  21.592   0.079  1.00  0.00     0.081 A
HETATM   16  N2  UNL     1     101.448  20.302   0.522  1.00  0.00    -0.284 N
HETATM   17  N1  UNL     1     100.448  19.653  -0.003  1.00  0.00    -0.237 N
ATOM     18  H2  UNL     1     102.117  19.900   1.177  1.00  0.00     0.188 HD
HETATM   19  C1  UNL     1     100.108  18.251   0.251  1.00  0.00     0.200 C
HETATM   20  N10 UNL     1      99.814  20.487  -0.786  1.00  0.00    -0.266 N
HETATM   21  C14 UNL     1     100.413  21.719  -0.778  1.00  0.00     0.160 A
ATOM     22  H10 UNL     1      98.985  20.250  -1.330  1.00  0.00     0.190 HD
BRANCH  21  23
HETATM   23  N8  UNL     1      99.962  22.851  -1.497  1.00  0.00    -0.289 N
ATOM     24  H8  UNL     1     100.392  23.106  -2.386  1.00  0.00     0.188 HD
BRANCH  23  25
HETATM   25  N9  UNL     1      98.919  23.614  -0.971  1.00  0.00    -0.344 N
ATOM     26  H92 UNL     1      98.872  24.613  -1.175  1.00  0.00     0.176 HD
ATOM     27  H91 UNL     1      98.218  23.156  -0.388  1.00  0.00     0.176 HD
ENDBRANCH  23  25
ENDBRANCH  21  23
ENDBRANCH  14  15
ENDBRANCH  13  14
BRANCH  13  28
HETATM   28  O1  UNL     1     101.227  23.061   2.331  1.00  0.00    -0.349 OA
ATOM     29  H1  UNL     1     100.331  23.321   2.151  1.00  0.00     0.219 HD
ENDBRANCH  13  28
ENDBRANCH  11  13
ENDBRANCH   1  11
BRANCH  10  30
HETATM   30  O6  UNL     1     101.424  25.729  -0.688  1.00  0.00    -0.355 OA
ATOM     31  H6  UNL     1     101.224  24.810  -0.560  1.00  0.00     0.218 HD
ENDBRANCH  10  30
BRANCH   9  32
HETATM   32  O5  UNL     1     102.721  27.545  -2.241  1.00  0.00    -0.357 OA
ATOM     33  H5  UNL     1     103.142  27.303  -3.058  1.00  0.00     0.218 HD
ENDBRANCH   9  32
BRANCH   8  34
HETATM   34  C8  UNL     1     105.216  28.713  -1.451  1.00  0.00     0.124 A
HETATM   35  N6  UNL     1     105.079  29.988  -1.250  1.00  0.00    -0.284 N
HETATM   36  N7  UNL     1     105.747  30.840  -1.972  1.00  0.00    -0.225 N
ATOM     37  H6  UNL     1     104.446  30.323  -0.524  1.00  0.00     0.188 HD
HETATM   38  S1  UNL     1     106.630  29.839  -3.002  1.00  0.00     0.052 SA
HETATM   39  C11 UNL     1     106.079  28.317  -2.437  1.00  0.00     0.259 A
HETATM   40  O4  UNL     1     106.386  27.136  -2.828  1.00  0.00    -0.276 OA
BRANCH  36  41
HETATM   41  C9  UNL     1     105.720  32.316  -1.880  1.00  0.00     0.272 C
BRANCH  41  42
HETATM   42  O2  UNL     1     105.658  32.773  -3.195  1.00  0.00    -0.372 OA
ATOM     43  H2  UNL     1     104.965  33.422  -3.208  1.00  0.00     0.212 HD
ENDBRANCH  41  42
BRANCH  41  44
HETATM   44  C10 UNL     1     104.407  32.671  -1.218  1.00  0.00     0.219 C
BRANCH  44  45
HETATM   45  O3  UNL     1     103.301  32.264  -1.947  1.00  0.00    -0.396 OA
ATOM     46  H3  UNL     1     102.605  31.910  -1.405  1.00  0.00     0.209 HD
ENDBRANCH  44  45
ENDBRANCH  41  44
ENDBRANCH  36  41
ENDBRANCH   8  34
TORSDOF 14
ENDMDL