MODEL 4
REMARK VINA RESULT: -7.596623173      2.580      9.517
REMARK  10 active torsions:
REMARK  status: ('A' for Active; 'I' for Inactive)
REMARK       I    between atoms: C2_2  and  N1_4
REMARK    1  A    between atoms: N1_4  and  C3_6
REMARK    2  A    between atoms: C5_10  and  C6_11
REMARK    3  A    between atoms: N3_13  and  N4_15
REMARK    4  A    between atoms: C8_17  and  O2_18
REMARK    5  A    between atoms: C8_17  and  C12_34
REMARK    6  A    between atoms: O2_18  and  C9_19
REMARK    7  A    between atoms: C10_22  and  N6_23
REMARK    8  A    between atoms: C11_28  and  N8_29
REMARK    9  A    between atoms: N13_41  and  N14_42
REMARK   10  A    between atoms: C14_47  and  N16_48
ROOT
HETATM    1  N4  UNL     1     104.656  30.551  -1.239  1.00  0.00    -0.277 N
ATOM      2  H4  UNL     1     104.229  31.111  -0.501  1.00  0.00     0.189 HD
HETATM    3  C8  UNL     1     105.362  31.300  -1.907  1.00  0.00     0.200 C
ENDROOT
BRANCH   3   4
HETATM    4  O2  UNL     1     105.354  32.664  -1.448  1.00  0.00    -0.257 OA
BRANCH   4   5
HETATM    5  C9  UNL     1     104.236  33.443  -1.646  1.00  0.00     0.259 A
HETATM    6  N5  UNL     1     102.987  32.966  -1.545  1.00  0.00    -0.154 N
HETATM    7  C10 UNL     1     101.904  33.762  -1.747  1.00  0.00     0.693 A
ATOM      8  H5  UNL     1     102.847  31.983  -1.313  1.00  0.00     0.188 HD
HETATM    9  N7  UNL     1     102.096  35.053  -2.052  1.00  0.00    -0.023 N
HETATM   10  C11 UNL     1     103.338  35.559  -2.158  1.00  0.00     0.693 A
ATOM     11  H7  UNL     1     101.291  35.660  -2.204  1.00  0.00     0.203 HD
HETATM   12  N9  UNL     1     104.395  34.733  -1.951  1.00  0.00    -0.154 N
ATOM     13  H9  UNL     1     105.339  35.110  -2.029  1.00  0.00     0.188 HD
BRANCH   7  14
HETATM   14  N6  UNL     1     100.707  33.318  -1.655  1.00  0.00    -0.234 N
ATOM     15  H62 UNL     1     100.494  32.616  -0.947  1.00  0.00     0.174 HD
ATOM     16  H61 UNL     1      99.958  33.645  -2.267  1.00  0.00     0.174 HD
ENDBRANCH   7  14
BRANCH  10  17
HETATM   17  N8  UNL     1     103.481  36.798  -2.451  1.00  0.00    -0.234 N
ATOM     18  H82 UNL     1     102.988  37.539  -1.951  1.00  0.00     0.174 HD
ATOM     19  H81 UNL     1     104.110  37.057  -3.212  1.00  0.00     0.174 HD
ENDBRANCH  10  17
ENDBRANCH   4   5
ENDBRANCH   3   4
BRANCH   3  20
HETATM   20  C12 UNL     1     106.187  31.028  -3.071  1.00  0.00     0.170 A
HETATM   21  C13 UNL     1     106.613  29.835  -3.587  1.00  0.00     0.167 A
HETATM   22  N10 UNL     1     106.368  28.525  -3.125  1.00  0.00    -0.079 NA
HETATM   23  N11 UNL     1     107.368  30.070  -4.693  1.00  0.00    -0.270 N
HETATM   24  N12 UNL     1     107.403  31.361  -4.849  1.00  0.00    -0.220 N
ATOM     25  H11 UNL     1     107.819  29.371  -5.284  1.00  0.00     0.190 HD
HETATM   26  N13 UNL     1     106.714  31.971  -3.905  1.00  0.00    -0.181 N
ATOM     27  H12 UNL     1     107.898  31.838  -5.602  1.00  0.00     0.210 HD
BRANCH  26  28
HETATM   28  N14 UNL     1     106.582  33.360  -3.829  1.00  0.00    -0.322 N
ATOM     29 2H14 UNL     1     105.682  33.835  -3.769  1.00  0.00     0.179 HD
ATOM     30 1H14 UNL     1     107.322  34.063  -3.820  1.00  0.00     0.179 HD
ENDBRANCH  26  28
ENDBRANCH   3  20
BRANCH   1  31
HETATM   31  N3  UNL     1     104.229  29.314  -1.090  1.00  0.00    -0.299 N
HETATM   32  C6  UNL     1     104.515  28.395  -0.275  1.00  0.00     0.066 C
HETATM   33  C7  UNL     1     105.508  28.540   0.809  1.00  0.00     0.074 C
ATOM     34  H3  UNL     1     103.523  29.043  -1.774  1.00  0.00     0.186 HD
BRANCH  32  35
HETATM   35  C5  UNL     1     103.817  27.103  -0.414  1.00  0.00     0.130 A
HETATM   36  N2  UNL     1     103.514  26.602  -1.617  1.00  0.00    -0.348 N
HETATM   37  C4  UNL     1     102.869  25.406  -1.705  1.00  0.00     0.123 A
ATOM     38  H2  UNL     1     103.765  27.114  -2.464  1.00  0.00     0.167 HD
HETATM   39  C3  UNL     1     102.499  24.662  -0.610  1.00  0.00     0.094 A
HETATM   40  C14 UNL     1     102.837  25.225   0.622  1.00  0.00     0.129 A
HETATM   41  N15 UNL     1     103.465  26.392   0.662  1.00  0.00    -0.325 N
ATOM     42  H15 UNL     1     103.697  26.774   1.579  1.00  0.00     0.169 HD
BRANCH  39  43
HETATM   43  N1  UNL     1     101.834  23.424  -0.630  1.00  0.00    -0.323 N
HETATM   44  C2  UNL     1     100.526  23.133  -1.030  1.00  0.00     0.218 C
HETATM   45  C1  UNL     1     100.019  21.712  -0.964  1.00  0.00     0.117 C
HETATM   46  O1  UNL     1      99.693  23.959  -1.456  1.00  0.00    -0.274 OA
ATOM     47  H1  UNL     1     102.382  22.627  -0.307  1.00  0.00     0.169 HD
ENDBRANCH  39  43
BRANCH  40  48
HETATM   48  N16 UNL     1     102.527  24.591   1.695  1.00  0.00    -0.384 N
ATOM     49 2H16 UNL     1     103.018  24.757   2.574  1.00  0.00     0.157 HD
ATOM     50 1H16 UNL     1     101.772  23.906   1.657  1.00  0.00     0.157 HD
ENDBRANCH  40  48
ENDBRANCH  32  35
ENDBRANCH   1  31
TORSDOF 10
ENDMDL