MODEL 2
REMARK VINA RESULT: -7.230505695      5.688      7.961
REMARK  10 active torsions:
REMARK  status: ('A' for Active; 'I' for Inactive)
REMARK    1  A    between atoms: N1_2  and  O1_3
REMARK    2  A    between atoms: N1_2  and  C2_5
REMARK    3  A    between atoms: C3_8  and  N3_9
REMARK    4  A    between atoms: N3_9  and  C4_11
REMARK    5  A    between atoms: C5_14  and  N5_15
REMARK    6  A    between atoms: N5_15  and  N6_17
REMARK    7  A    between atoms: N6_17  and  C6_19
REMARK    8  A    between atoms: C9_30  and  C10_31
REMARK    9  A    between atoms: C10_31  and  C11_32
REMARK   10  A    between atoms: C13_40  and  N16_41
ROOT
HETATM    1  C11 UNL     1     101.307  34.022  -2.022  1.00  0.00     0.104 C
HETATM    2  N12 UNL     1     101.440  35.378  -1.604  1.00  0.00    -0.087 NA
HETATM    3  N13 UNL     1     100.219  33.655  -2.594  1.00  0.00    -0.285 N
ATOM      4  H13 UNL     1     100.101  32.691  -2.905  1.00  0.00     0.179 HD
HETATM    5  C12 UNL     1      99.201  34.584  -2.788  1.00  0.00     0.182 C
HETATM    6  N14 UNL     1      98.371  35.364  -2.961  1.00  0.00    -0.172 NA
ENDROOT
BRANCH   1   7
HETATM    7  C10 UNL     1     102.429  33.040  -1.799  1.00  0.00     0.106 C
BRANCH   7   8
HETATM    8  C9  UNL     1     103.665  33.763  -1.363  1.00  0.00     0.160 C
HETATM    9  C6  UNL     1     104.840  32.915  -1.206  1.00  0.00     0.122 C
HETATM   10  N7  UNL     1     106.046  33.311  -0.965  1.00  0.00    -0.317 N
HETATM   11  C7  UNL     1     106.547  34.659  -0.798  1.00  0.00     0.196 C
ATOM     12  H7  UNL     1     106.742  32.571  -0.880  1.00  0.00     0.170 HD
HETATM   13  N8  UNL     1     107.694  34.808   0.034  1.00  0.00    -0.063 NA
HETATM   14  N9  UNL     1     106.062  35.758  -1.330  1.00  0.00    -0.305 N
HETATM   15  C8  UNL     1     104.905  35.744  -2.195  1.00  0.00     0.191 C
ATOM     16  H9  UNL     1     106.517  36.648  -1.127  1.00  0.00     0.171 HD
HETATM   17  N10 UNL     1     104.816  36.791  -3.184  1.00  0.00    -0.063 NA
HETATM   18  N11 UNL     1     103.935  34.910  -2.185  1.00  0.00    -0.352 N
ATOM     19  H11 UNL     1     103.221  35.093  -2.890  1.00  0.00     0.163 HD
BRANCH   9  20
HETATM   20  N6  UNL     1     104.670  31.481  -1.318  1.00  0.00    -0.273 N
ATOM     21  H6  UNL     1     103.759  31.100  -1.578  1.00  0.00     0.189 HD
BRANCH  20  22
HETATM   22  N5  UNL     1     105.738  30.613  -1.075  1.00  0.00    -0.130 N
ATOM     23  H5  UNL     1     106.682  30.842  -1.383  1.00  0.00     0.205 HD
BRANCH  22  24
HETATM   24  C5  UNL     1     105.465  29.392  -0.380  1.00  0.00     0.726 A
HETATM   25  N4  UNL     1     104.286  28.755  -0.504  1.00  0.00    -0.020 N
HETATM   26  C4  UNL     1     104.030  27.609   0.147  1.00  0.00     0.713 A
ATOM     27  H4  UNL     1     103.568  29.154  -1.108  1.00  0.00     0.203 HD
HETATM   28  N17 UNL     1     104.958  27.079   0.938  1.00  0.00    -0.021 N
HETATM   29  C13 UNL     1     106.144  27.678   1.090  1.00  0.00     0.705 A
ATOM     30  H17 UNL     1     104.765  26.208   1.433  1.00  0.00     0.203 HD
HETATM   31  N15 UNL     1     106.376  28.825   0.427  1.00  0.00    -0.020 N
ATOM     32  H15 UNL     1     107.281  29.282   0.541  1.00  0.00     0.203 HD
BRANCH  26  33
HETATM   33  N3  UNL     1     102.778  26.926   0.022  1.00  0.00    -0.175 N
ATOM     34  H3  UNL     1     101.902  27.418   0.198  1.00  0.00     0.186 HD
BRANCH  33  35
HETATM   35  C3  UNL     1     102.769  25.696  -0.311  1.00  0.00     0.138 A
HETATM   36  N2  UNL     1     102.228  24.824   0.579  1.00  0.00    -0.174 N
HETATM   37  C2  UNL     1     102.197  23.521   0.269  1.00  0.00     0.705 A
ATOM     38  H2  UNL     1     101.852  25.155   1.467  1.00  0.00     0.186 HD
HETATM   39  N18 UNL     1     102.691  23.064  -0.906  1.00  0.00    -0.200 N
HETATM   40  C15 UNL     1     103.229  23.895  -1.805  1.00  0.00     0.110 A
ATOM     41  H18 UNL     1     102.650  22.066  -1.109  1.00  0.00     0.183 HD
HETATM   42  C14 UNL     1     103.269  25.240  -1.501  1.00  0.00     0.067 A
BRANCH  37  43
HETATM   43  N1  UNL     1     101.639  22.588   1.178  1.00  0.00    -0.095 N
HETATM   44  C1  UNL     1     101.625  21.181   0.856  1.00  0.00     0.205 C
BRANCH  43  45
HETATM   45  O1  UNL     1     101.122  23.007   2.343  1.00  0.00    -0.274 OA
ATOM     46  H1  UNL     1     100.838  23.909   2.432  1.00  0.00     0.245 HD
ENDBRANCH  43  45
ENDBRANCH  37  43
ENDBRANCH  33  35
ENDBRANCH  26  33
BRANCH  29  47
HETATM   47  N16 UNL     1     107.072  27.184   1.855  1.00  0.00    -0.234 N
ATOM     48 2H16 UNL     1     107.746  26.499   1.513  1.00  0.00     0.174 HD
ATOM     49 1H16 UNL     1     107.135  27.488   2.827  1.00  0.00     0.174 HD
ENDBRANCH  29  47
ENDBRANCH  22  24
ENDBRANCH  20  22
ENDBRANCH   9  20
ENDBRANCH   7   8
ENDBRANCH   1   7
TORSDOF 10
ENDMDL