MODEL 4
REMARK VINA RESULT: -7.278111657      1.440      3.943
REMARK  11 active torsions:
REMARK  status: ('A' for Active; 'I' for Inactive)
REMARK    1  A    between atoms: C4_6  and  C5_7
REMARK    2  A    between atoms: C5_7  and  O1_8
REMARK    3  A    between atoms: C5_7  and  O2_10
REMARK    4  A    between atoms: C6_14  and  N3_15
REMARK    5  A    between atoms: N3_15  and  C7_16
REMARK    6  A    between atoms: N3_15  and  C12_34
REMARK    7  A    between atoms: C8_19  and  N5_20
REMARK    8  A    between atoms: N7_27  and  N8_28
REMARK    9  A    between atoms: N8_28  and  C10_30
REMARK   10  A    between atoms: C10_30  and  O3_32
REMARK   11  A    between atoms: C14_43  and  N12_44
ROOT
HETATM    1  N3  UNL     1     103.406  24.327  -1.223  1.00  0.00     0.044 N
ENDROOT
BRANCH   1   2
HETATM    2  C6  UNL     1     104.403  23.306  -1.634  1.00  0.00     0.707 A
HETATM    3  N2  UNL     1     104.190  22.010  -1.430  1.00  0.00    -0.189 N
HETATM    4  C4  UNL     1     105.116  21.113  -1.832  1.00  0.00     0.084 A
ATOM      5  H2  UNL     1     103.334  21.695  -0.975  1.00  0.00     0.184 HD
HETATM    6  C3  UNL     1     106.260  21.570  -2.443  1.00  0.00     0.079 A
HETATM    7  C2  UNL     1     106.492  22.908  -2.660  1.00  0.00     0.118 A
HETATM    8  N1  UNL     1     107.529  23.323  -3.225  1.00  0.00    -0.380 N
HETATM    9  N13 UNL     1     105.512  23.765  -2.228  1.00  0.00    -0.176 N
HETATM   10  C1  UNL     1     108.617  22.578  -3.730  1.00  0.00     0.147 C
ATOM     11  H1  UNL     1     107.596  24.334  -3.336  1.00  0.00     0.160 HD
ATOM     12  H13 UNL     1     105.631  24.770  -2.361  1.00  0.00     0.186 HD
BRANCH   4  13
HETATM   13  C5  UNL     1     104.917  19.680  -1.618  1.00  0.00     0.305 C
BRANCH  13  14
HETATM   14  O1  UNL     1     105.681  18.941  -2.535  1.00  0.00    -0.366 OA
ATOM     15  H1  UNL     1     105.919  18.100  -2.163  1.00  0.00     0.213 HD
ENDBRANCH  13  14
BRANCH  13  16
HETATM   16  O2  UNL     1     103.583  19.363  -1.816  1.00  0.00    -0.366 OA
ATOM     17  H2  UNL     1     103.223  18.993  -1.017  1.00  0.00     0.213 HD
ENDBRANCH  13  16
ENDBRANCH   4  13
ENDBRANCH   1   2
BRANCH   1  18
HETATM   18  C7  UNL     1     102.371  23.699  -0.527  1.00  0.00     0.726 A
HETATM   19  N4  UNL     1     101.338  23.201  -1.127  1.00  0.00    -0.177 N
HETATM   20  C8  UNL     1     100.220  22.539  -0.585  1.00  0.00     0.402 A
ATOM     21  H4  UNL     1     101.333  23.302  -2.142  1.00  0.00     0.181 HD
HETATM   22  N6  UNL     1     100.324  22.382   0.830  1.00  0.00    -0.341 N
HETATM   23  C9  UNL     1     101.296  22.818   1.512  1.00  0.00     0.223 A
ATOM     24  H6  UNL     1      99.573  21.892   1.318  1.00  0.00     0.164 HD
HETATM   25  N7  UNL     1     102.369  23.498   0.914  1.00  0.00    -0.083 N
BRANCH  20  26
HETATM   26  N5  UNL     1      98.957  23.229  -0.825  1.00  0.00    -0.040 N
ATOM     27  H53 UNL     1      98.312  22.630  -1.339  1.00  0.00     0.279 HD
ATOM     28  H52 UNL     1      98.435  23.336   0.044  1.00  0.00     0.279 HD
ATOM     29  H51 UNL     1      99.064  24.128  -1.294  1.00  0.00     0.279 HD
ENDBRANCH  20  26
BRANCH  25  30
HETATM   30  N8  UNL     1     103.431  24.006   1.613  1.00  0.00    -0.286 N
ATOM     31  H8  UNL     1     104.220  23.411   1.867  1.00  0.00     0.184 HD
BRANCH  30  32
HETATM   32  C10 UNL     1     103.411  25.375   1.978  1.00  0.00     0.230 C
HETATM   33  C11 UNL     1     104.740  26.092   1.891  1.00  0.00     0.064 C
BRANCH  32  34
HETATM   34  O3  UNL     1     102.436  26.160   1.414  1.00  0.00    -0.376 OA
ATOM     35  H3  UNL     1     101.715  26.424   1.973  1.00  0.00     0.212 HD
ENDBRANCH  32  34
ENDBRANCH  30  32
ENDBRANCH  25  30
ENDBRANCH   1  18
BRANCH   1  36
HETATM   36  C12 UNL     1     103.700  25.623  -1.607  1.00  0.00     0.213 A
HETATM   37  N9  UNL     1     104.975  26.148  -1.573  1.00  0.00    -0.171 N
HETATM   38  C13 UNL     1     104.980  27.416  -1.973  1.00  0.00     0.679 A
ATOM     39  H9  UNL     1     105.805  25.632  -1.278  1.00  0.00     0.186 HD
HETATM   40  N10 UNL     1     106.011  28.184  -2.050  1.00  0.00    -0.234 N
HETATM   41  N11 UNL     1     103.745  27.759  -2.278  1.00  0.00    -0.167 N
ATOM     42 2H10 UNL     1     106.968  27.919  -1.813  1.00  0.00     0.174 HD
ATOM     43 1H10 UNL     1     106.016  29.157  -2.357  1.00  0.00     0.174 HD
HETATM   44  C14 UNL     1     102.929  26.660  -2.060  1.00  0.00     0.234 A
ATOM     45  H11 UNL     1     103.443  28.673  -2.616  1.00  0.00     0.186 HD
BRANCH  44  46
HETATM   46  N12 UNL     1     101.563  26.763  -2.316  1.00  0.00    -0.093 N
HETATM   47  O4  UNL     1     100.772  26.848  -1.307  1.00  0.00    -0.530 OA
HETATM   48  O5  UNL     1     100.917  26.784  -3.493  1.00  0.00    -0.530 OA
ENDBRANCH  44  46
ENDBRANCH   1  36
TORSDOF 11
ENDMDL