MODEL 2
REMARK VINA RESULT: -7.328166175      2.660      7.860
REMARK  11 active torsions:
REMARK  status: ('A' for Active; 'I' for Inactive)
REMARK       I    between atoms: C2_2  and  N1_4
REMARK    1  A    between atoms: N1_4  and  N2_6
REMARK    2  A    between atoms: C3_7  and  S1_8
REMARK    3  A    between atoms: S1_8  and  C4_9
REMARK    4  A    between atoms: C5_10  and  C6_11
REMARK    5  A    between atoms: C9_25  and  C10_26
REMARK    6  A    between atoms: C10_26  and  N8_27
REMARK    7  A    between atoms: C10_26  and  N9_31
REMARK    8  A    between atoms: C11_33  and  C12_34
REMARK    9  A    between atoms: C12_34  and  O5_35
REMARK   10  A    between atoms: C12_34  and  O6_37
REMARK   11  A    between atoms: C14_40  and  N10_41
ROOT
HETATM    1  N2  UNL     1     105.788  28.110  -1.200  1.00  0.00    -0.212 N
HETATM    2  C3  UNL     1     104.797  27.412  -1.771  1.00  0.00     0.187 A
HETATM    3  N6  UNL     1     103.798  28.310  -2.022  1.00  0.00    -0.277 N
ATOM      4  H6  UNL     1     102.903  28.089  -2.457  1.00  0.00     0.189 HD
HETATM    5  N7  UNL     1     104.166  29.486  -1.620  1.00  0.00    -0.282 N
ATOM      6  H7  UNL     1     103.604  30.334  -1.689  1.00  0.00     0.188 HD
HETATM    7  C9  UNL     1     105.405  29.416  -1.096  1.00  0.00     0.173 A
ENDROOT
BRANCH   7   8
HETATM    8  C10 UNL     1     106.085  30.593  -0.536  1.00  0.00     0.383 C
BRANCH   8   9
HETATM    9  N8  UNL     1     106.140  30.674   0.886  1.00  0.00    -0.049 N
ATOM     10  H83 UNL     1     105.277  30.305   1.286  1.00  0.00     0.277 HD
ATOM     11  H82 UNL     1     106.813  29.996   1.244  1.00  0.00     0.277 HD
ATOM     12  H81 UNL     1     106.337  31.593   1.279  1.00  0.00     0.277 HD
ENDBRANCH   8   9
BRANCH   8  13
HETATM   13  N9  UNL     1     105.549  31.813  -1.105  1.00  0.00    -0.198 N
HETATM   14  O4  UNL     1     104.352  32.306  -0.931  1.00  0.00    -0.231 OA
HETATM   15  C11 UNL     1     104.224  33.444  -1.615  1.00  0.00     0.134 A
HETATM   16  C13 UNL     1     105.406  33.694  -2.264  1.00  0.00     0.090 A
HETATM   17  C14 UNL     1     106.235  32.642  -1.924  1.00  0.00     0.127 A
BRANCH  15  18
HETATM   18  C12 UNL     1     102.988  34.230  -1.615  1.00  0.00     0.314 C
BRANCH  18  19
HETATM   19  O5  UNL     1     101.962  33.456  -2.167  1.00  0.00    -0.365 OA
ATOM     20  H5  UNL     1     101.308  33.294  -1.498  1.00  0.00     0.213 HD
ENDBRANCH  18  19
BRANCH  18  21
HETATM   21  O6  UNL     1     103.090  35.383  -2.366  1.00  0.00    -0.365 OA
ATOM     22  H6  UNL     1     102.983  36.171  -1.846  1.00  0.00     0.213 HD
ENDBRANCH  18  21
ENDBRANCH  15  18
BRANCH  17  23
HETATM   23  N10 UNL     1     107.443  32.545  -2.360  1.00  0.00    -0.384 N
ATOM     24 2H10 UNL     1     108.157  32.001  -1.877  1.00  0.00     0.157 HD
ATOM     25 1H10 UNL     1     107.867  32.958  -3.191  1.00  0.00     0.157 HD
ENDBRANCH  17  23
ENDBRANCH   8  13
ENDBRANCH   7   8
BRANCH   1  26
HETATM   26  N1  UNL     1     107.035  27.694  -0.792  1.00  0.00    -0.260 N
HETATM   27  C2  UNL     1     107.614  27.515   0.465  1.00  0.00     0.232 C
HETATM   28  C1  UNL     1     109.071  27.034   0.565  1.00  0.00     0.119 C
HETATM   29  O1  UNL     1     107.106  27.695   1.577  1.00  0.00    -0.272 OA
ATOM     30  H1  UNL     1     107.663  27.473  -1.564  1.00  0.00     0.190 HD
ENDBRANCH   1  26
BRANCH   2  31
HETATM   31  S1  UNL     1     104.583  25.704  -2.169  1.00  0.00    -0.051 SA
BRANCH  31  32
HETATM   32  C4  UNL     1     103.533  24.871  -0.973  1.00  0.00     0.037 A
HETATM   33  C5  UNL     1     102.232  24.811  -1.144  1.00  0.00     0.127 A
HETATM   34  N3  UNL     1     101.417  24.150  -0.191  1.00  0.00    -0.324 N
HETATM   35  C7  UNL     1     102.020  23.563   0.935  1.00  0.00     0.189 A
ATOM     36  H3  UNL     1     100.406  24.102  -0.320  1.00  0.00     0.169 HD
HETATM   37  N4  UNL     1     101.233  22.893   1.909  1.00  0.00    -0.064 NA
HETATM   38  N5  UNL     1     103.294  23.615   1.112  1.00  0.00    -0.360 N
HETATM   39  C8  UNL     1     104.196  24.264   0.198  1.00  0.00     0.171 A
ATOM     40  H5  UNL     1     103.685  23.174   1.944  1.00  0.00     0.162 HD
BRANCH  33  41
HETATM   41  C6  UNL     1     101.624  25.429  -2.322  1.00  0.00     0.228 C
HETATM   42  O2  UNL     1     101.392  24.729  -3.339  1.00  0.00    -0.643 OA
HETATM   43  O3  UNL     1     101.289  26.770  -2.366  1.00  0.00    -0.643 OA
ENDBRANCH  33  41
ENDBRANCH  31  32
ENDBRANCH   2  31
TORSDOF 11
ENDMDL