MODEL 3
REMARK VINA RESULT: -7.734472762      2.823      3.387
REMARK  10 active torsions:
REMARK  status: ('A' for Active; 'I' for Inactive)
REMARK    1  A    between atoms: C1_2  and  O2_4
REMARK    2  A    between atoms: O2_4  and  C2_5
REMARK    3  A    between atoms: C2_5  and  C3_6
REMARK    4  A    between atoms: C4_7  and  O3_8
REMARK    5  A    between atoms: C7_12  and  O4_13
REMARK    6  A    between atoms: C8_15  and  N2_16
REMARK    7  A    between atoms: N2_16  and  N3_18
REMARK    8  A    between atoms: N3_18  and  N4_19
REMARK       I    between atoms: N4_19  and  C9_21
REMARK       I    between atoms: C9_21  and  N5_23
REMARK    9  A    between atoms: C10_25  and  C11_26
REMARK   10  A    between atoms: C13_34  and  N10_35
ROOT
HETATM    1  C3  UNL     1     104.228  26.855  -0.688  1.00  0.00     0.052 A
HETATM    2  C4  UNL     1     105.493  27.407  -0.869  1.00  0.00     0.107 A
HETATM    3  C5  UNL     1     106.402  27.286   0.211  1.00  0.00     0.083 A
HETATM    4  C6  UNL     1     106.099  26.668   1.388  1.00  0.00     0.067 A
HETATM    5  C7  UNL     1     104.831  26.130   1.529  1.00  0.00     0.110 A
HETATM    6  C8  UNL     1     103.904  26.214   0.519  1.00  0.00     0.095 A
HETATM    7  C12 UNL     1     107.187  26.754   2.131  1.00  0.00     0.145 A
HETATM    8  O6  UNL     1     107.689  26.440   3.299  1.00  0.00    -0.233 OA
HETATM    9  N9  UNL     1     108.927  26.857   3.399  1.00  0.00    -0.237 N
ATOM     10  H9  UNL     1     109.520  26.726   4.220  1.00  0.00     0.197 HD
HETATM   11  C13 UNL     1     109.308  27.482   2.275  1.00  0.00     0.223 A
HETATM   12  C14 UNL     1     108.193  27.423   1.448  1.00  0.00     0.122 A
HETATM   13  N11 UNL     1     107.750  27.763   0.271  1.00  0.00    -0.348 N
ATOM     14  H11 UNL     1     108.258  28.264  -0.457  1.00  0.00     0.166 HD
ENDROOT
BRANCH   6  15
HETATM   15  N2  UNL     1     102.601  25.640   0.672  1.00  0.00    -0.280 N
ATOM     16  H2  UNL     1     101.787  26.222   0.479  1.00  0.00     0.184 HD
BRANCH  15  17
HETATM   17  N3  UNL     1     102.399  24.327   1.072  1.00  0.00    -0.018 NA
BRANCH  17  18
HETATM   18  N4  UNL     1     101.619  23.670   0.147  1.00  0.00    -0.235 N
HETATM   19  C9  UNL     1     100.987  22.452   0.504  1.00  0.00     0.337 C
HETATM   20  O5  UNL     1     101.105  21.930   1.654  1.00  0.00    -0.246 OA
HETATM   21  N5  UNL     1     100.183  21.770  -0.451  1.00  0.00    -0.319 N
HETATM   22  C10 UNL     1     100.327  20.517  -0.712  1.00  0.00     0.106 C
ATOM     23  H5  UNL     1      99.465  22.295  -0.950  1.00  0.00     0.169 HD
ATOM     24  H4  UNL     1     101.498  24.056  -0.790  1.00  0.00     0.189 HD
BRANCH  22  25
HETATM   25  C11 UNL     1     101.362  19.749  -0.000  1.00  0.00     0.245 C
HETATM   26  N6  UNL     1     102.334  19.111  -0.882  1.00  0.00    -0.102 NA
HETATM   27  N7  UNL     1     101.479  18.013  -0.958  1.00  0.00    -0.036 NA
HETATM   28  N8  UNL     1     100.914  18.400   0.276  1.00  0.00    -0.102 NA
ENDBRANCH  22  25
ENDBRANCH  17  18
ENDBRANCH  15  17
ENDBRANCH   6  15
BRANCH   1  29
HETATM   29  C2  UNL     1     103.256  26.940  -1.554  1.00  0.00     0.163 C
BRANCH  29  30
HETATM   30  O2  UNL     1     102.530  25.950  -2.184  1.00  0.00    -0.275 OA
BRANCH  30  31
HETATM   31  C1  UNL     1     101.154  26.169  -2.469  1.00  0.00     0.377 C
HETATM   32  N1  UNL     1     100.722  26.579  -3.737  1.00  0.00    -0.032 NA
HETATM   33  O1  UNL     1     100.360  25.975  -1.526  1.00  0.00    -0.242 OA
ENDBRANCH  30  31
ENDBRANCH  29  30
ENDBRANCH   1  29
BRANCH   5  34
HETATM   34  O4  UNL     1     104.502  25.493   2.724  1.00  0.00    -0.357 OA
ATOM     35  H4  UNL     1     104.585  24.547   2.776  1.00  0.00     0.217 HD
ENDBRANCH   5  34
BRANCH   2  36
HETATM   36  O3  UNL     1     105.898  28.030  -1.997  1.00  0.00    -0.357 OA
ATOM     37  H3  UNL     1     105.399  28.702  -2.447  1.00  0.00     0.217 HD
ENDBRANCH   2  36
BRANCH  11  38
HETATM   38  N10 UNL     1     110.551  28.087   1.942  1.00  0.00    -0.094 N
HETATM   39  O7  UNL     1     111.470  28.029   2.784  1.00  0.00    -0.530 OA
HETATM   40  O8  UNL     1     110.806  28.732   0.760  1.00  0.00    -0.530 OA
ENDBRANCH  11  38
TORSDOF 10
ENDMDL