MODEL 3
REMARK VINA RESULT: -7.858039289      2.422      8.108
REMARK  11 active torsions:
REMARK  status: ('A' for Active; 'I' for Inactive)
REMARK    1  A    between atoms: N1_1  and  C1_4
REMARK    2  A    between atoms: C2_7  and  C3_8
REMARK       I    between atoms: C3_8  and  N3_10
REMARK    3  A    between atoms: N3_10  and  C4_12
REMARK    4  A    between atoms: C5_15  and  N5_16
REMARK    5  A    between atoms: C6_21  and  N7_22
REMARK    6  A    between atoms: C7_25  and  N8_26
REMARK    7  A    between atoms: C8_30  and  C9_31
REMARK    8  A    between atoms: C11_35  and  C12_36
REMARK    9  A    between atoms: C12_36  and  O2_37
REMARK   10  A    between atoms: C13_44  and  N14_45
REMARK   11  A    between atoms: N14_45  and  O4_47
ROOT
HETATM    1  C4  UNL     1     106.982  32.373  -3.732  1.00  0.00     0.158 A
HETATM    2  N4  UNL     1     107.458  33.229  -4.673  1.00  0.00    -0.174 N
ATOM      3  H4  UNL     1     107.520  34.221  -4.447  1.00  0.00     0.186 HD
HETATM    4  C5  UNL     1     107.847  32.822  -5.885  1.00  0.00     0.679 A
HETATM    5  N6  UNL     1     107.780  31.518  -6.223  1.00  0.00    -0.175 N
ATOM      6  H6  UNL     1     108.075  31.196  -7.144  1.00  0.00     0.186 HD
HETATM    7  C6  UNL     1     107.313  30.660  -5.305  1.00  0.00     0.148 A
HETATM    8  C7  UNL     1     106.903  31.040  -4.049  1.00  0.00     0.161 A
ENDROOT
BRANCH   1   9
HETATM    9  N3  UNL     1     106.578  32.863  -2.451  1.00  0.00    -0.304 N
HETATM   10  C3  UNL     1     105.217  33.235  -2.311  1.00  0.00     0.292 C
HETATM   11  O1  UNL     1     104.353  32.346  -2.263  1.00  0.00    -0.264 OA
ATOM     12  H3  UNL     1     107.237  32.940  -1.676  1.00  0.00     0.171 HD
BRANCH  10  13
HETATM   13  C2  UNL     1     104.813  34.631  -2.226  1.00  0.00     0.204 A
HETATM   14  N2  UNL     1     105.758  35.586  -2.158  1.00  0.00    -0.170 N
HETATM   15  C1  UNL     1     105.440  36.880  -2.078  1.00  0.00     0.692 A
ATOM     16  H2  UNL     1     106.741  35.315  -2.168  1.00  0.00     0.186 HD
HETATM   17  N15 UNL     1     104.159  37.258  -2.062  1.00  0.00    -0.021 N
HETATM   18  C13 UNL     1     103.210  36.305  -2.129  1.00  0.00     0.718 A
ATOM     19  H15 UNL     1     103.905  38.244  -2.000  1.00  0.00     0.203 HD
HETATM   20  N13 UNL     1     103.539  34.986  -2.211  1.00  0.00    -0.168 N
ATOM     21  H13 UNL     1     102.808  34.276  -2.261  1.00  0.00     0.186 HD
BRANCH  15  22
HETATM   22  N1  UNL     1     106.368  37.770  -2.015  1.00  0.00    -0.234 N
ATOM     23  H12 UNL     1     107.303  37.550  -2.357  1.00  0.00     0.174 HD
ATOM     24  H11 UNL     1     106.168  38.690  -1.626  1.00  0.00     0.174 HD
ENDBRANCH  15  22
BRANCH  18  25
HETATM   25  N14 UNL     1     101.982  36.686  -2.113  1.00  0.00    -0.098 N
ATOM     26  H14 UNL     1     101.767  37.647  -1.847  1.00  0.00     0.213 HD
BRANCH  25  27
HETATM   27  O4  UNL     1     100.954  35.843  -2.443  1.00  0.00    -0.276 OA
ATOM     28  H4  UNL     1     100.121  35.858  -1.986  1.00  0.00     0.245 HD
ENDBRANCH  25  27
ENDBRANCH  18  25
ENDBRANCH  10  13
ENDBRANCH   1   9
BRANCH   8  29
HETATM   29  N8  UNL     1     106.407  30.090  -3.092  1.00  0.00    -0.171 N
HETATM   30  N9  UNL     1     107.067  29.585  -2.063  1.00  0.00     0.003 NA
HETATM   31  N10 UNL     1     106.289  28.729  -1.388  1.00  0.00    -0.263 N
HETATM   32  C8  UNL     1     105.101  28.691  -2.009  1.00  0.00     0.187 A
ATOM     33  H10 UNL     1     106.551  28.204  -0.554  1.00  0.00     0.186 HD
HETATM   34  N12 UNL     1     105.207  29.535  -3.048  1.00  0.00    -0.261 N
ATOM     35  H12 UNL     1     104.460  29.725  -3.716  1.00  0.00     0.190 HD
BRANCH  32  36
HETATM   36  C9  UNL     1     103.949  27.883  -1.607  1.00  0.00     0.195 A
HETATM   37  N11 UNL     1     103.661  27.415  -0.380  1.00  0.00    -0.341 N
HETATM   38  C10 UNL     1     102.516  26.714  -0.416  1.00  0.00     0.125 A
ATOM     39  H11 UNL     1     104.228  27.567   0.454  1.00  0.00     0.167 HD
HETATM   40  C11 UNL     1     102.089  26.762  -1.725  1.00  0.00     0.094 A
HETATM   41  O3  UNL     1     102.978  27.466  -2.377  1.00  0.00    -0.291 OA
BRANCH  40  42
HETATM   42  C12 UNL     1     100.842  26.123  -2.281  1.00  0.00     0.230 C
BRANCH  42  43
HETATM   43  O2  UNL     1     100.671  26.533  -3.616  1.00  0.00    -0.394 OA
ATOM     44  H2  UNL     1     100.986  27.425  -3.710  1.00  0.00     0.209 HD
ENDBRANCH  42  43
ENDBRANCH  40  42
ENDBRANCH  32  36
ENDBRANCH   8  29
BRANCH   4  45
HETATM   45  N5  UNL     1     108.300  33.652  -6.774  1.00  0.00    -0.234 N
ATOM     46  H52 UNL     1     109.110  34.217  -6.524  1.00  0.00     0.174 HD
ATOM     47  H51 UNL     1     107.868  33.745  -7.694  1.00  0.00     0.174 HD
ENDBRANCH   4  45
BRANCH   7  48
HETATM   48  N7  UNL     1     107.246  29.416  -5.622  1.00  0.00    -0.383 N
ATOM     49  H72 UNL     1     108.083  28.842  -5.518  1.00  0.00     0.157 HD
ATOM     50  H71 UNL     1     106.355  29.057  -5.965  1.00  0.00     0.157 HD
ENDBRANCH   7  48
TORSDOF 11
ENDMDL