MODEL 2
REMARK VINA RESULT: -6.437938448      1.713      3.041
REMARK  11 active torsions:
REMARK  status: ('A' for Active; 'I' for Inactive)
REMARK    1  A    between atoms: O1_2  and  C2_3
REMARK    2  A    between atoms: N2_9  and  N3_10
REMARK    3  A    between atoms: C4_11  and  O3_12
REMARK    4  A    between atoms: C5_14  and  N4_15
REMARK    5  A    between atoms: N4_15  and  O4_17
REMARK    6  A    between atoms: C6_19  and  N5_20
REMARK    7  A    between atoms: N7_26  and  N8_28
REMARK    8  A    between atoms: N8_28  and  O5_30
REMARK    9  A    between atoms: C9_33  and  C10_34
REMARK   10  A    between atoms: C11_40  and  C12_41
REMARK   11  A    between atoms: C12_41  and  N10_42
ROOT
HETATM    1  C2  UNL     1     105.382  26.587   0.622  1.00  0.00     0.231 C
HETATM    2  O2  UNL     1     104.382  26.333   1.606  1.00  0.00    -0.278 OA
HETATM    3  C3  UNL     1     103.534  25.362   1.152  1.00  0.00     0.238 C
HETATM    4  N1  UNL     1     102.641  24.766   1.883  1.00  0.00    -0.364 N
ATOM      5  H11 UNL     1     102.008  24.041   1.544  1.00  0.00     0.159 HD
ATOM      6  H12 UNL     1     102.470  24.948   2.871  1.00  0.00     0.159 HD
HETATM    7  N2  UNL     1     103.776  25.104  -0.246  1.00  0.00    -0.220 N
HETATM    8  C8  UNL     1     104.881  25.925  -0.637  1.00  0.00     0.220 C
HETATM    9  C9  UNL     1     106.067  25.186  -1.178  1.00  0.00     0.317 C
HETATM   10  N9  UNL     1     107.160  25.302  -0.275  1.00  0.00    -0.045 N
ATOM     11  H91 UNL     1     107.951  25.808  -0.674  1.00  0.00     0.279 HD
ATOM     12  H92 UNL     1     107.636  24.415  -0.113  1.00  0.00     0.279 HD
HETATM   13  C11 UNL     1     106.663  25.910   0.953  1.00  0.00     0.289 C
ENDROOT
BRANCH   7  14
HETATM   14  N3  UNL     1     102.982  24.214  -0.955  1.00  0.00    -0.054 N
HETATM   15  C4  UNL     1     103.303  22.896  -0.862  1.00  0.00     0.213 A
HETATM   16  C5  UNL     1     102.568  21.950  -1.545  1.00  0.00     0.151 A
HETATM   17  C6  UNL     1     101.497  22.320  -2.333  1.00  0.00     0.148 A
HETATM   18  N6  UNL     1     101.209  23.627  -2.401  1.00  0.00    -0.171 N
HETATM   19  C7  UNL     1     101.937  24.564  -1.723  1.00  0.00     0.723 A
ATOM     20  H6  UNL     1     100.422  23.931  -2.975  1.00  0.00     0.186 HD
HETATM   21  N7  UNL     1     101.644  25.819  -1.817  1.00  0.00    -0.111 N
ATOM     22  H7  UNL     1     102.185  26.528  -1.323  1.00  0.00     0.207 HD
BRANCH  15  23
HETATM   23  O3  UNL     1     104.376  22.499  -0.075  1.00  0.00    -0.343 OA
ATOM     24  H3  UNL     1     104.258  21.819   0.578  1.00  0.00     0.219 HD
ENDBRANCH  15  23
BRANCH  16  25
HETATM   25  N4  UNL     1     102.875  20.557  -1.471  1.00  0.00    -0.261 N
ATOM     26  H4  UNL     1     102.344  19.972  -0.825  1.00  0.00     0.194 HD
BRANCH  25  27
HETATM   27  O4  UNL     1     103.772  20.028  -2.168  1.00  0.00    -0.289 OA
ATOM     28  H4  UNL     1     104.570  20.485  -2.403  1.00  0.00     0.244 HD
ENDBRANCH  25  27
ENDBRANCH  16  25
BRANCH  17  29
HETATM   29  N5  UNL     1     100.799  21.438  -2.980  1.00  0.00    -0.383 N
ATOM     30  H52 UNL     1      99.901  21.109  -2.628  1.00  0.00     0.157 HD
ATOM     31  H51 UNL     1     101.127  21.045  -3.862  1.00  0.00     0.157 HD
ENDBRANCH  17  29
BRANCH  21  32
HETATM   32  N8  UNL     1     100.557  26.167  -2.620  1.00  0.00    -0.196 N
ATOM     33  H8  UNL     1      99.615  26.120  -2.234  1.00  0.00     0.216 HD
BRANCH  32  34
HETATM   34  O5  UNL     1     100.732  26.569  -3.914  1.00  0.00    -0.274 OA
ATOM     35  H5  UNL     1     101.574  26.877  -4.226  1.00  0.00     0.246 HD
ENDBRANCH  32  34
ENDBRANCH  21  32
ENDBRANCH   7  14
BRANCH   1  36
HETATM   36  O1  UNL     1     105.498  27.954   0.510  1.00  0.00    -0.356 OA
HETATM   37  C1  UNL     1     104.581  28.583  -0.261  1.00  0.00     0.205 C
ENDBRANCH   1  36
BRANCH   9  38
HETATM   38  C10 UNL     1     106.454  25.805  -2.504  1.00  0.00     0.207 C
HETATM   39  O6  UNL     1     106.463  27.063  -2.625  1.00  0.00    -0.646 OA
HETATM   40  O7  UNL     1     106.791  24.991  -3.553  1.00  0.00    -0.646 OA
ENDBRANCH   9  38
BRANCH  13  41
HETATM   41  C12 UNL     1     107.725  26.687   1.646  1.00  0.00     0.096 C
BRANCH  41  42
HETATM   42  N10 UNL     1     108.508  26.149   2.645  1.00  0.00    -0.400 N
HETATM   43  C13 UNL     1     108.514  26.513   3.986  1.00  0.00     0.148 C
HETATM   44  C14 UNL     1     109.843  25.754   2.173  1.00  0.00     0.148 C
ENDBRANCH  41  42
ENDBRANCH  13  41
TORSDOF 11
ENDMDL