MODEL 2
REMARK VINA RESULT: -6.959562730      2.472      6.253
REMARK  17 active torsions:
REMARK  status: ('A' for Active; 'I' for Inactive)
REMARK    1  A    between atoms: C2_2  and  C3_3
REMARK    2  A    between atoms: C3_3  and  N1_4
REMARK    3  A    between atoms: N1_4  and  C4_6
REMARK    4  A    between atoms: C4_6  and  O1_7
REMARK    5  A    between atoms: C4_6  and  C5_9
REMARK    6  A    between atoms: C5_9  and  C6_11
REMARK       I    between atoms: C6_11  and  N2_13
REMARK    7  A    between atoms: N2_13  and  C7_15
REMARK    8  A    between atoms: C9_17  and  C10_18
REMARK    9  A    between atoms: C10_18  and  C11_19
REMARK   10  A    between atoms: C13_21  and  N3_22
REMARK   11  A    between atoms: N3_22  and  C14_23
REMARK   12  A    between atoms: C14_23  and  O4_24
REMARK   13  A    between atoms: C14_23  and  C15_26
REMARK   14  A    between atoms: C19_32  and  C20_33
REMARK   15  A    between atoms: C19_32  and  C23_38
REMARK   16  A    between atoms: C20_33  and  C21_34
REMARK   17  A    between atoms: C21_34  and  C22_35
ROOT
HETATM    1  C7  UNL     1      16.720 -16.096  21.289  1.00  0.00     0.137 C
HETATM    2  C8  UNL     1      17.032 -16.679  22.634  1.00  0.00     0.028 C
HETATM    3  C9  UNL     1      16.795 -18.048  22.994  1.00  0.00     0.104 C
HETATM    4  C13 UNL     1      17.049 -17.993  24.489  1.00  0.00     0.164 C
HETATM    5  C18 UNL     1      17.722 -16.667  24.719  1.00  0.00     0.286 C
HETATM    6  O5  UNL     1      17.834 -16.230  25.865  1.00  0.00    -0.265 OA
HETATM    7  N4  UNL     1      18.117 -16.170  23.416  1.00  0.00    -0.296 N
HETATM    8  C19 UNL     1      19.167 -15.325  22.904  1.00  0.00     0.133 C
HETATM    9  C24 UNL     1      18.363 -14.324  22.056  1.00  0.00     0.041 C
HETATM   10  C25 UNL     1      17.510 -14.903  21.004  1.00  0.00     0.030 C
HETATM   11  C26 UNL     1      16.870 -13.656  20.459  1.00  0.00    -0.037 C
HETATM   12  C27 UNL     1      16.014 -12.823  21.310  1.00  0.00     0.015 C
HETATM   13  C28 UNL     1      16.333 -13.862  19.064  1.00  0.00     0.015 C
HETATM   14  C29 UNL     1      18.171 -12.814  20.268  1.00  0.00     0.003 A
HETATM   15  C30 UNL     1      18.539 -11.885  21.369  1.00  0.00     0.016 A
HETATM   16  C31 UNL     1      19.152 -13.318  21.316  1.00  0.00    -0.032 A
HETATM   17  C32 UNL     1      20.536 -13.441  20.824  1.00  0.00     0.016 C
ENDROOT
BRANCH   1  18
HETATM   18  N2  UNL     1      15.280 -15.913  21.311  1.00  0.00    -0.344 N
HETATM   19  C6  UNL     1      14.219 -16.702  20.858  1.00  0.00     0.296 C
HETATM   20  O3  UNL     1      14.302 -17.832  20.298  1.00  0.00    -0.264 OA
ATOM     21  H2  UNL     1      14.985 -15.037  21.742  1.00  0.00     0.163 HD
BRANCH  19  22
HETATM   22  C5  UNL     1      12.858 -16.185  21.067  1.00  0.00     0.289 C
HETATM   23  O2  UNL     1      11.920 -17.078  21.174  1.00  0.00    -0.278 OA
BRANCH  22  24
HETATM   24  C4  UNL     1      12.433 -14.846  21.151  1.00  0.00     0.193 C
BRANCH  24  25
HETATM   25  N1  UNL     1      12.576 -14.065  22.356  1.00  0.00    -0.364 N
ATOM     26  H1  UNL     1      13.206 -14.387  23.089  1.00  0.00     0.162 HD
BRANCH  25  27
HETATM   27  C3  UNL     1      11.834 -12.824  22.543  1.00  0.00     0.148 C
BRANCH  27  28
HETATM   28  C2  UNL     1      12.788 -11.668  22.463  1.00  0.00    -0.018 C
HETATM   29  C1  UNL     1      12.758 -10.823  21.444  1.00  0.00     0.008 C
ENDBRANCH  27  28
ENDBRANCH  25  27
ENDBRANCH  24  25
BRANCH  24  30
HETATM   30  O1  UNL     1      11.876 -14.154  20.190  1.00  0.00    -0.343 OA
ATOM     31  H1  UNL     1      11.340 -14.701  19.628  1.00  0.00     0.219 HD
ENDBRANCH  24  30
ENDBRANCH  22  24
ENDBRANCH  19  22
ENDBRANCH   1  18
BRANCH   3  32
HETATM   32  C10 UNL     1      17.350 -19.261  22.437  1.00  0.00     0.018 C
BRANCH  32  33
HETATM   33  C11 UNL     1      18.748 -19.675  22.388  1.00  0.00    -0.004 C
HETATM   34  C12 UNL     1      19.438 -19.665  21.051  1.00  0.00     0.005 C
ENDBRANCH  32  33
ENDBRANCH   3  32
BRANCH   4  35
HETATM   35  N3  UNL     1      16.789 -18.791  25.335  1.00  0.00    -0.383 NA
BRANCH  35  36
HETATM   36  C14 UNL     1      16.517 -19.686  26.254  1.00  0.00     0.193 C
BRANCH  36  37
HETATM   37  O4  UNL     1      17.206 -19.607  27.380  1.00  0.00    -0.339 OA
ATOM     38  H4  UNL     1      17.803 -20.323  27.565  1.00  0.00     0.220 HD
ENDBRANCH  36  37
BRANCH  36  39
HETATM   39  C15 UNL     1      15.544 -20.790  26.249  1.00  0.00     0.067 C
HETATM   40  C16 UNL     1      14.988 -21.036  27.609  1.00  0.00     0.019 C
HETATM   41  C17 UNL     1      14.333 -20.394  25.372  1.00  0.00     0.019 C
ENDBRANCH  36  39
ENDBRANCH  35  36
ENDBRANCH   4  35
BRANCH   8  42
HETATM   42  C20 UNL     1      19.821 -14.515  23.948  1.00  0.00     0.054 C
BRANCH  42  43
HETATM   43  C21 UNL     1      21.278 -14.423  24.110  1.00  0.00     0.116 C
BRANCH  43  44
HETATM   44  C22 UNL     1      21.738 -13.740  25.278  1.00  0.00     0.172 C
HETATM   45  O6  UNL     1      23.104 -13.609  25.334  1.00  0.00    -0.648 OA
HETATM   46  O7  UNL     1      21.187 -13.180  26.354  1.00  0.00    -0.648 OA
ENDBRANCH  43  44
ENDBRANCH  42  43
ENDBRANCH   8  42
BRANCH   8  47
HETATM   47  C23 UNL     1      20.082 -16.082  22.057  1.00  0.00     0.203 C
HETATM   48  O8  UNL     1      20.055 -16.102  20.785  1.00  0.00    -0.646 OA
HETATM   49  O9  UNL     1      21.081 -16.864  22.555  1.00  0.00    -0.646 OA
ENDBRANCH   8  47
TORSDOF 17
ENDMDL