MODEL 4
REMARK VINA RESULT: -8.664885501      2.106      2.979
REMARK  15 active torsions:
REMARK  status: ('A' for Active; 'I' for Inactive)
REMARK    1  A    between atoms: C2_2  and  C3_3
REMARK    2  A    between atoms: C3_3  and  C5_5
REMARK    3  A    between atoms: C5_5  and  N1_6
REMARK    4  A    between atoms: C5_5  and  C21_28
REMARK       I    between atoms: N1_6  and  C6_8
REMARK    5  A    between atoms: C6_8  and  C7_10
REMARK    6  A    between atoms: C7_10  and  N2_11
REMARK    7  A    between atoms: C7_10  and  C16_22
REMARK       I    between atoms: N2_11  and  C8_13
REMARK    8  A    between atoms: C8_13  and  C9_15
REMARK    9  A    between atoms: C16_22  and  O3_23
REMARK   10  A    between atoms: C16_22  and  C18_25
REMARK   11  A    between atoms: C21_28  and  O4_29
REMARK   12  A    between atoms: C21_28  and  N3_31
REMARK   13  A    between atoms: C22_32  and  C23_33
REMARK       I    between atoms: C23_33  and  N4_35
REMARK   14  A    between atoms: N4_35  and  C24_37
REMARK   15  A    between atoms: C24_37  and  C25_38
ROOT
HETATM    1  C5  UNL     1      19.708 -14.972  23.857  1.00  0.00     0.163 C
ENDROOT
BRANCH   1   2
HETATM    2  C3  UNL     1      19.603 -14.325  25.273  1.00  0.00     0.012 C
HETATM    3  C4  UNL     1      19.257 -15.444  26.233  1.00  0.00     0.012 C
BRANCH   2   4
HETATM    4  C2  UNL     1      20.876 -13.695  25.732  1.00  0.00     0.002 C
HETATM    5  C1  UNL     1      21.053 -13.795  27.238  1.00  0.00     0.005 C
ENDBRANCH   2   4
ENDBRANCH   1   2
BRANCH   1   6
HETATM    6  N1  UNL     1      19.705 -16.442  24.180  1.00  0.00    -0.347 N
HETATM    7  C6  UNL     1      20.896 -17.217  23.959  1.00  0.00     0.243 C
HETATM    8  O1  UNL     1      21.876 -16.537  23.477  1.00  0.00    -0.271 OA
ATOM      9  H1  UNL     1      18.865 -16.884  24.554  1.00  0.00     0.163 HD
BRANCH   7  10
HETATM   10  C7  UNL     1      21.011 -18.620  24.260  1.00  0.00     0.205 C
BRANCH  10  11
HETATM   11  N2  UNL     1      19.888 -19.269  23.618  1.00  0.00    -0.345 N
HETATM   12  C8  UNL     1      19.704 -19.612  22.287  1.00  0.00     0.223 C
HETATM   13  O2  UNL     1      20.536 -19.405  21.385  1.00  0.00    -0.273 OA
ATOM     14  H2  UNL     1      19.115 -19.511  24.239  1.00  0.00     0.163 HD
BRANCH  12  15
HETATM   15  C9  UNL     1      18.416 -20.281  21.880  1.00  0.00     0.082 C
HETATM   16  C10 UNL     1      17.221 -19.929  22.723  1.00  0.00     0.019 C
HETATM   17  C11 UNL     1      16.842 -18.884  21.660  1.00  0.00    -0.009 C
HETATM   18  C12 UNL     1      15.431 -19.098  21.151  1.00  0.00     0.005 C
HETATM   19  C15 UNL     1      17.771 -19.580  20.718  1.00  0.00     0.003 C
HETATM   20  C13 UNL     1      15.582 -19.746  19.794  1.00  0.00     0.001 C
HETATM   21  C14 UNL     1      16.876 -20.508  19.933  1.00  0.00     0.006 C
ENDBRANCH  12  15
ENDBRANCH  10  11
BRANCH  10  22
HETATM   22  C16 UNL     1      20.473 -18.748  25.914  1.00  0.00     0.156 C
BRANCH  22  23
HETATM   23  O3  UNL     1      20.484 -19.999  25.886  1.00  0.00    -0.388 OA
HETATM   24  C17 UNL     1      19.554 -20.915  26.215  1.00  0.00     0.202 C
ENDBRANCH  22  23
BRANCH  22  25
HETATM   25  C18 UNL     1      22.036 -18.667  26.616  1.00  0.00     0.009 C
HETATM   26  C19 UNL     1      22.430 -17.278  26.774  1.00  0.00     0.012 C
HETATM   27  C20 UNL     1      21.749 -19.278  27.946  1.00  0.00     0.012 C
ENDBRANCH  22  25
ENDBRANCH  10  22
ENDBRANCH   7  10
ENDBRANCH   1   6
BRANCH   1  28
HETATM   28  C21 UNL     1      18.498 -14.720  23.102  1.00  0.00     0.142 C
BRANCH  28  29
HETATM   29  O4  UNL     1      17.449 -15.273  23.675  1.00  0.00    -0.348 OA
ATOM     30  H4  UNL     1      16.897 -14.622  24.092  1.00  0.00     0.219 HD
ENDBRANCH  28  29
BRANCH  28  31
HETATM   31  N3  UNL     1      18.229 -14.025  21.918  1.00  0.00    -0.318 N
HETATM   32  C22 UNL     1      17.366 -12.968  21.488  1.00  0.00     0.087 C
HETATM   33  C28 UNL     1      17.859 -12.636  20.126  1.00  0.00     0.048 A
HETATM   34  C29 UNL     1      17.615 -13.089  18.820  1.00  0.00     0.019 A
HETATM   35  C30 UNL     1      17.903 -14.142  19.704  1.00  0.00     0.024 A
HETATM   36  C31 UNL     1      18.982 -14.431  20.671  1.00  0.00     0.036 C
HETATM   37  C32 UNL     1      20.251 -13.688  20.551  1.00  0.00     0.039 C
HETATM   38  C33 UNL     1      19.273 -15.894  20.630  1.00  0.00     0.039 C
BRANCH  32  39
HETATM   39  C23 UNL     1      15.953 -12.943  21.683  1.00  0.00     0.265 C
HETATM   40  O5  UNL     1      15.308 -13.775  22.336  1.00  0.00    -0.266 OA
HETATM   41  N4  UNL     1      15.112 -11.916  21.125  1.00  0.00    -0.338 N
ATOM     42  H4  UNL     1      15.566 -11.201  20.556  1.00  0.00     0.164 HD
BRANCH  41  43
HETATM   43  C24 UNL     1      13.706 -11.811  21.297  1.00  0.00     0.112 A
HETATM   44  C26 UNL     1      12.993 -11.231  22.430  1.00  0.00     0.043 A
HETATM   45  C27 UNL     1      13.116 -10.434  21.140  1.00  0.00     0.043 A
BRANCH  43  46
HETATM   46  C25 UNL     1      12.934 -12.852  20.507  1.00  0.00     0.259 C
HETATM   47  N5  UNL     1      11.840 -13.487  21.109  1.00  0.00    -0.060 NA
HETATM   48  O6  UNL     1      13.250 -13.153  19.345  1.00  0.00    -0.274 OA
ENDBRANCH  43  46
ENDBRANCH  41  43
ENDBRANCH  32  39
ENDBRANCH  28  31
ENDBRANCH   1  28
TORSDOF 15
ENDMDL