MODEL 2
REMARK VINA RESULT: -8.513806227      3.117      9.266
REMARK  16 active torsions:
REMARK  status: ('A' for Active; 'I' for Inactive)
REMARK    1  A    between atoms: C2_2  and  C4_4
REMARK    2  A    between atoms: C4_4  and  C5_5
REMARK    3  A    between atoms: C5_5  and  O1_6
REMARK    4  A    between atoms: C5_5  and  C6_8
REMARK    5  A    between atoms: C6_8  and  N1_9
REMARK    6  A    between atoms: C6_8  and  C28_41
REMARK       I    between atoms: N1_9  and  C7_11
REMARK    7  A    between atoms: C7_11  and  C8_13
REMARK    8  A    between atoms: C8_13  and  C9_14
REMARK    9  A    between atoms: C9_14  and  N2_15
REMARK   10  A    between atoms: C9_14  and  C10_19
REMARK   11  A    between atoms: C10_19  and  C11_20
REMARK   12  A    between atoms: C12_21  and  C13_22
REMARK       I    between atoms: C13_22  and  N3_24
REMARK   13  A    between atoms: C17_28  and  C18_29
REMARK   14  A    between atoms: C18_29  and  C20_31
REMARK       I    between atoms: C20_31  and  N4_33
REMARK       I    between atoms: C28_41  and  N5_43
REMARK   15  A    between atoms: N5_43  and  C29_45
REMARK   16  A    between atoms: C29_45  and  C30_46
ROOT
HETATM    1  C9  UNL     1      13.054 -15.356  21.284  1.00  0.00     0.195 C
ENDROOT
BRANCH   1   2
HETATM    2  C8  UNL     1      14.441 -15.058  21.699  1.00  0.00     0.136 C
BRANCH   2   3
HETATM    3  C7  UNL     1      14.985 -13.770  21.150  1.00  0.00     0.224 C
HETATM    4  N1  UNL     1      16.045 -13.854  20.246  1.00  0.00    -0.324 N
ATOM      5  H1  UNL     1      16.326 -14.796  19.974  1.00  0.00     0.169 HD
HETATM    6  O2  UNL     1      14.498 -12.703  21.524  1.00  0.00    -0.273 OA
BRANCH   4   7
HETATM    7  C6  UNL     1      16.776 -12.801  19.662  1.00  0.00     0.109 C
BRANCH   7   8
HETATM    8  C5  UNL     1      18.019 -12.427  20.472  1.00  0.00     0.174 C
BRANCH   8   9
HETATM    9  C4  UNL     1      18.385 -13.648  21.301  1.00  0.00     0.042 C
BRANCH   9  10
HETATM   10  C2  UNL     1      19.812 -14.083  21.001  1.00  0.00    -0.020 C
HETATM   11  C1  UNL     1      19.685 -15.315  20.117  1.00  0.00     0.009 C
HETATM   12  C3  UNL     1      20.551 -12.983  20.328  1.00  0.00     0.009 C
ENDBRANCH   9  10
ENDBRANCH   8   9
BRANCH   8  13
HETATM   13  O1  UNL     1      17.492 -11.514  21.446  1.00  0.00    -0.389 OA
ATOM     14  H1  UNL     1      18.251 -11.297  21.975  1.00  0.00     0.210 HD
ENDBRANCH   8  13
ENDBRANCH   7   8
BRANCH   7  15
HETATM   15  C28 UNL     1      17.011 -12.773  18.239  1.00  0.00     0.267 C
HETATM   16  O5  UNL     1      18.207 -12.873  17.788  1.00  0.00    -0.266 OA
HETATM   17  N5  UNL     1      15.973 -12.634  17.277  1.00  0.00    -0.337 N
ATOM     18  H5  UNL     1      15.038 -12.493  17.661  1.00  0.00     0.164 HD
BRANCH  17  19
HETATM   19  C29 UNL     1      16.053 -12.664  15.851  1.00  0.00     0.121 A
HETATM   20  C31 UNL     1      14.978 -13.620  15.241  1.00  0.00     0.045 A
HETATM   21  C32 UNL     1      16.419 -13.760  14.970  1.00  0.00     0.045 A
BRANCH  19  22
HETATM   22  C30 UNL     1      15.783 -11.284  15.254  1.00  0.00     0.202 C
HETATM   23  O6  UNL     1      14.783 -10.650  15.625  1.00  0.00    -0.646 OA
HETATM   24  O7  UNL     1      16.631 -10.736  14.316  1.00  0.00    -0.646 OA
ENDBRANCH  19  22
ENDBRANCH  17  19
ENDBRANCH   7  15
ENDBRANCH   4   7
ENDBRANCH   2   3
ENDBRANCH   1   2
BRANCH   1  25
HETATM   25  N2  UNL     1      12.513 -14.552  20.241  1.00  0.00    -0.074 N
ATOM     26  H23 UNL     1      11.735 -14.001  20.603  1.00  0.00     0.274 HD
ATOM     27  H22 UNL     1      13.173 -13.810  20.004  1.00  0.00     0.274 HD
ATOM     28  H21 UNL     1      12.223 -15.037  19.393  1.00  0.00     0.274 HD
ENDBRANCH   1  25
BRANCH   1  29
HETATM   29  C10 UNL     1      12.617 -16.789  21.199  1.00  0.00     0.060 C
BRANCH  29  30
HETATM   30  C11 UNL     1      13.698 -17.597  20.601  1.00  0.00    -0.019 C
HETATM   31  C12 UNL     1      14.350 -18.618  21.027  1.00  0.00     0.070 C
BRANCH  31  32
HETATM   32  C13 UNL     1      14.219 -19.328  22.273  1.00  0.00     0.243 C
HETATM   33  O3  UNL     1      13.433 -20.330  22.324  1.00  0.00    -0.268 OA
HETATM   34  N3  UNL     1      14.938 -18.974  23.434  1.00  0.00    -0.348 N
HETATM   35  C14 UNL     1      14.936 -19.712  24.659  1.00  0.00     0.126 C
HETATM   36  C27 UNL     1      15.889 -17.829  23.438  1.00  0.00     0.131 C
HETATM   37  C15 UNL     1      16.373 -19.885  25.122  1.00  0.00     0.020 C
HETATM   38  C16 UNL     1      17.384 -19.730  24.031  1.00  0.00     0.009 C
HETATM   39  C17 UNL     1      17.180 -18.587  23.091  1.00  0.00     0.016 C
BRANCH  39  40
HETATM   40  C18 UNL     1      18.269 -17.919  22.425  1.00  0.00     0.079 C
HETATM   41  C19 UNL     1      18.592 -18.773  21.155  1.00  0.00     0.020 C
BRANCH  40  42
HETATM   42  C20 UNL     1      19.560 -17.740  23.094  1.00  0.00     0.224 C
HETATM   43  O4  UNL     1      20.535 -18.450  22.698  1.00  0.00    -0.273 OA
HETATM   44  N4  UNL     1      19.778 -16.843  24.138  1.00  0.00    -0.352 N
HETATM   45  C21 UNL     1      18.848 -15.945  24.762  1.00  0.00     0.126 C
HETATM   46  C26 UNL     1      21.149 -16.755  24.715  1.00  0.00     0.126 C
HETATM   47  C22 UNL     1      19.320 -14.532  24.836  1.00  0.00     0.024 C
HETATM   48  C23 UNL     1      20.751 -14.263  24.598  1.00  0.00    -0.015 C
HETATM   49  C24 UNL     1      21.422 -13.453  25.700  1.00  0.00     0.010 C
HETATM   50  C25 UNL     1      21.631 -15.396  24.231  1.00  0.00     0.024 C
ENDBRANCH  40  42
ENDBRANCH  39  40
ENDBRANCH  31  32
ENDBRANCH  29  30
ENDBRANCH   1  29
TORSDOF 16
ENDMDL