MODEL 2
REMARK VINA RESULT: -5.890931378      4.933      8.847
REMARK  15 active torsions:
REMARK  status: ('A' for Active; 'I' for Inactive)
REMARK    1  A    between atoms: C2_2  and  C3_3
REMARK    2  A    between atoms: C3_3  and  C4_4
REMARK    3  A    between atoms: C4_4  and  N1_5
REMARK       I    between atoms: N1_5  and  C6_7
REMARK    4  A    between atoms: C6_7  and  C7_9
REMARK    5  A    between atoms: C8_12  and  O2_13
REMARK    6  A    between atoms: C9_15  and  C10_16
REMARK    7  A    between atoms: C10_16  and  C11_17
REMARK    8  A    between atoms: C11_17  and  S1_18
REMARK    9  A    between atoms: C13_22  and  O3_23
REMARK   10  A    between atoms: C14_25  and  C15_26
REMARK   11  A    between atoms: C15_26  and  C16_27
REMARK   12  A    between atoms: C18_31  and  O4_32
REMARK   13  A    between atoms: C19_34  and  C20_35
REMARK   14  A    between atoms: C24_41  and  C25_42
REMARK   15  A    between atoms: C25_42  and  C27_44
ROOT
HETATM    1  C7  UNL     1      14.096 -14.551  20.684  1.00  0.00     0.208 C
HETATM    2  N2  UNL     1      13.602 -15.640  19.847  1.00  0.00    -0.354 N
ATOM      3  H2  UNL     1      13.308 -15.354  18.912  1.00  0.00     0.162 HD
HETATM    4  C8  UNL     1      13.462 -17.008  20.105  1.00  0.00     0.160 C
HETATM    5  C9  UNL     1      14.372 -18.139  20.193  1.00  0.00     0.062 C
HETATM    6  N3  UNL     1      15.089 -18.387  21.403  1.00  0.00    -0.339 N
ATOM      7  H3  UNL     1      15.297 -19.379  21.519  1.00  0.00     0.167 HD
HETATM    8  C13 UNL     1      15.572 -17.643  22.453  1.00  0.00     0.139 C
HETATM    9  C14 UNL     1      16.726 -16.718  22.611  1.00  0.00     0.158 C
HETATM   10  N4  UNL     1      17.438 -16.422  21.404  1.00  0.00    -0.357 N
ATOM     11  H4  UNL     1      17.501 -17.215  20.765  1.00  0.00     0.162 HD
HETATM   12  C18 UNL     1      18.051 -15.292  20.932  1.00  0.00     0.160 C
HETATM   13  C19 UNL     1      17.514 -13.919  20.620  1.00  0.00     0.069 C
HETATM   14  N5  UNL     1      16.359 -13.976  19.783  1.00  0.00    -0.299 N
HETATM   15  C23 UNL     1      16.648 -14.558  18.471  1.00  0.00     0.248 C
HETATM   16  O5  UNL     1      17.713 -15.204  18.350  1.00  0.00    -0.271 OA
HETATM   17  C24 UNL     1      15.796 -14.447  17.289  1.00  0.00     0.181 C
HETATM   18  N6  UNL     1      14.591 -13.717  17.510  1.00  0.00    -0.346 N
ATOM     19  H6  UNL     1      13.866 -13.701  16.794  1.00  0.00     0.163 HD
HETATM   20  C29 UNL     1      14.407 -13.023  18.709  1.00  0.00     0.244 C
HETATM   21  O6  UNL     1      13.732 -11.935  18.692  1.00  0.00    -0.271 OA
HETATM   22  C30 UNL     1      15.006 -13.577  19.973  1.00  0.00     0.216 C
ENDROOT
BRANCH   1  23
HETATM   23  C6  UNL     1      12.915 -13.746  21.156  1.00  0.00     0.244 C
HETATM   24  N1  UNL     1      13.091 -12.609  21.948  1.00  0.00    -0.355 N
HETATM   25  C5  UNL     1      14.438 -12.208  22.346  1.00  0.00     0.152 C
HETATM   26  O1  UNL     1      11.776 -14.124  20.830  1.00  0.00    -0.271 OA
BRANCH  24  27
HETATM   27  C4  UNL     1      12.016 -11.774  22.438  1.00  0.00     0.125 C
BRANCH  27  28
HETATM   28  C3  UNL     1      12.457 -10.534  23.138  1.00  0.00     0.019 C
BRANCH  28  29
HETATM   29  C2  UNL     1      11.672 -10.232  24.376  1.00  0.00    -0.003 C
HETATM   30  C1  UNL     1      11.938  -8.806  24.845  1.00  0.00     0.005 C
ENDBRANCH  28  29
ENDBRANCH  27  28
ENDBRANCH  24  27
ENDBRANCH   1  23
BRANCH   4  31
HETATM   31  O2  UNL     1      12.204 -17.360  20.318  1.00  0.00    -0.345 OA
ATOM     32  H2  UNL     1      11.918 -17.172  21.204  1.00  0.00     0.219 HD
ENDBRANCH   4  31
BRANCH   5  33
HETATM   33  C10 UNL     1      15.228 -18.369  18.935  1.00  0.00     0.072 C
BRANCH  33  34
HETATM   34  C11 UNL     1      14.649 -19.567  18.213  1.00  0.00     0.079 C
BRANCH  34  35
HETATM   35  S1  UNL     1      13.497 -19.013  16.899  1.00  0.00    -0.173 SA
HETATM   36  C12 UNL     1      14.041 -17.460  16.178  1.00  0.00     0.089 C
ENDBRANCH  34  35
ENDBRANCH  33  34
ENDBRANCH   5  33
BRANCH  13  37
HETATM   37  C20 UNL     1      17.561 -13.031  21.808  1.00  0.00     0.032 C
HETATM   38  C21 UNL     1      17.946 -11.600  21.563  1.00  0.00     0.016 C
HETATM   39  C22 UNL     1      18.698 -13.587  22.705  1.00  0.00     0.016 C
ENDBRANCH  13  37
BRANCH  12  40
HETATM   40  O4  UNL     1      19.327 -15.401  20.707  1.00  0.00    -0.345 OA
ATOM     41  H4  UNL     1      19.690 -14.767  20.099  1.00  0.00     0.219 HD
ENDBRANCH  12  40
BRANCH  17  42
HETATM   42  C25 UNL     1      16.625 -13.713  16.227  1.00  0.00     0.013 C
HETATM   43  C26 UNL     1      16.837 -12.283  16.607  1.00  0.00     0.012 C
BRANCH  42  44
HETATM   44  C27 UNL     1      15.999 -13.867  14.859  1.00  0.00     0.002 C
HETATM   45  C28 UNL     1      17.069 -13.966  13.813  1.00  0.00     0.005 C
ENDBRANCH  42  44
ENDBRANCH  17  42
BRANCH   8  46
HETATM   46  O3  UNL     1      14.909 -17.737  23.569  1.00  0.00    -0.348 OA
ATOM     47  H3  UNL     1      15.153 -18.457  24.138  1.00  0.00     0.219 HD
ENDBRANCH   8  46
BRANCH   9  48
HETATM   48  C15 UNL     1      17.565 -17.276  23.728  1.00  0.00     0.033 C
BRANCH  48  49
HETATM   49  C16 UNL     1      18.317 -16.324  24.559  1.00  0.00    -0.002 C
HETATM   50  C17 UNL     1      17.520 -16.167  25.868  1.00  0.00     0.005 C
ENDBRANCH  48  49
ENDBRANCH   9  48
TORSDOF 15
ENDMDL