MODEL 1
REMARK VINA RESULT: -9.000756046      0.000      0.000
REMARK  17 active torsions:
REMARK  status: ('A' for Active; 'I' for Inactive)
REMARK    1  A    between atoms: C2_2  and  C3_3
REMARK    2  A    between atoms: C3_3  and  N1_4
REMARK    3  A    between atoms: C3_3  and  C11_15
REMARK       I    between atoms: N1_4  and  C4_6
REMARK    4  A    between atoms: C4_6  and  C5_8
REMARK       I    between atoms: C11_15  and  N2_17
REMARK    5  A    between atoms: N2_17  and  C12_19
REMARK    6  A    between atoms: C12_19  and  C13_20
REMARK    7  A    between atoms: C12_19  and  C29_46
REMARK       I    between atoms: C13_20  and  N3_22
REMARK    8  A    between atoms: N3_22  and  C14_24
REMARK    9  A    between atoms: C14_24  and  C15_25
REMARK   10  A    between atoms: C14_24  and  C19_29
REMARK   11  A    between atoms: C15_25  and  C16_26
REMARK   12  A    between atoms: C19_29  and  O5_30
REMARK   13  A    between atoms: C19_29  and  N4_32
REMARK   14  A    between atoms: N4_32  and  C20_34
REMARK   15  A    between atoms: C20_34  and  C21_35
REMARK   16  A    between atoms: C20_34  and  C26_41
REMARK   17  A    between atoms: C21_35  and  C22_37
REMARK       I    between atoms: C26_41  and  N5_43
ROOT
HETATM    1  C13 UNL     1      18.231 -15.027  21.661  1.00  0.00     0.241 C
HETATM    2  O4  UNL     1      17.314 -15.909  21.525  1.00  0.00    -0.271 OA
HETATM    3  N3  UNL     1      19.136 -15.242  22.677  1.00  0.00    -0.347 N
ATOM      4  H3  UNL     1      19.896 -14.577  22.822  1.00  0.00     0.163 HD
ENDROOT
BRANCH   1   5
HETATM    5  C12 UNL     1      18.193 -13.911  20.715  1.00  0.00     0.184 C
BRANCH   5   6
HETATM    6  N2  UNL     1      16.874 -13.831  20.115  1.00  0.00    -0.345 N
HETATM    7  C11 UNL     1      16.139 -12.626  20.031  1.00  0.00     0.241 C
HETATM    8  O3  UNL     1      16.644 -11.578  20.504  1.00  0.00    -0.271 OA
ATOM      9  H2  UNL     1      16.458 -14.682  19.738  1.00  0.00     0.163 HD
BRANCH   7  10
HETATM   10  C3  UNL     1      14.811 -12.564  19.402  1.00  0.00     0.176 C
BRANCH  10  11
HETATM   11  C2  UNL     1      14.522 -13.844  18.663  1.00  0.00     0.030 C
HETATM   12  C1  UNL     1      14.890 -13.720  17.222  1.00  0.00     0.007 C
ENDBRANCH  10  11
BRANCH  10  13
HETATM   13  N1  UNL     1      13.836 -12.421  20.505  1.00  0.00    -0.347 N
HETATM   14  C4  UNL     1      13.012 -11.270  20.532  1.00  0.00     0.225 C
HETATM   15  O1  UNL     1      13.130 -10.391  19.605  1.00  0.00    -0.273 OA
ATOM     16  H1  UNL     1      13.760 -13.135  21.229  1.00  0.00     0.163 HD
BRANCH  14  17
HETATM   17  C5  UNL     1      12.008 -11.011  21.576  1.00  0.00     0.109 C
HETATM   18  C6  UNL     1      11.408 -12.322  22.036  1.00  0.00     0.048 C
HETATM   19  C7  UNL     1      11.740 -12.299  23.512  1.00  0.00     0.122 C
HETATM   20  C8  UNL     1      10.978 -11.229  24.219  1.00  0.00     0.034 C
HETATM   21  O2  UNL     1      13.038 -11.732  23.450  1.00  0.00    -0.380 OA
HETATM   22  C9  UNL     1      11.696  -9.959  23.775  1.00  0.00     0.035 C
HETATM   23  C10 UNL     1      12.720 -10.525  22.815  1.00  0.00     0.135 C
ENDBRANCH  14  17
ENDBRANCH  10  13
ENDBRANCH   7  10
ENDBRANCH   5   6
BRANCH   5  24
HETATM   24  C29 UNL     1      19.161 -13.938  19.584  1.00  0.00    -0.022 C
HETATM   25  C30 UNL     1      18.667 -13.555  18.242  1.00  0.00     0.017 C
HETATM   26  C31 UNL     1      19.741 -15.334  19.490  1.00  0.00     0.017 C
HETATM   27  C32 UNL     1      20.342 -13.006  19.905  1.00  0.00     0.017 C
ENDBRANCH   5  24
ENDBRANCH   1   5
BRANCH   3  28
HETATM   28  C14 UNL     1      19.021 -16.426  23.563  1.00  0.00     0.159 C
BRANCH  28  29
HETATM   29  C15 UNL     1      18.495 -15.966  24.844  1.00  0.00     0.037 C
BRANCH  29  30
HETATM   30  C16 UNL     1      17.572 -16.790  25.635  1.00  0.00    -0.020 C
HETATM   31  C17 UNL     1      16.742 -17.612  24.610  1.00  0.00     0.009 C
HETATM   32  C18 UNL     1      18.294 -17.770  26.559  1.00  0.00     0.009 C
ENDBRANCH  29  30
ENDBRANCH  28  29
BRANCH  28  33
HETATM   33  C19 UNL     1      20.202 -17.253  23.448  1.00  0.00     0.135 C
BRANCH  33  34
HETATM   34  O5  UNL     1      19.913 -18.527  23.382  1.00  0.00    -0.348 OA
ATOM     35  H5  UNL     1      19.546 -18.772  22.540  1.00  0.00     0.219 HD
ENDBRANCH  33  34
BRANCH  33  36
HETATM   36  N4  UNL     1      21.567 -16.983  23.393  1.00  0.00    -0.353 N
ATOM     37  H4  UNL     1      22.090 -17.106  22.525  1.00  0.00     0.162 HD
BRANCH  36  38
HETATM   38  C20 UNL     1      22.253 -16.504  24.648  1.00  0.00     0.246 C
BRANCH  38  39
HETATM   39  C21 UNL     1      22.191 -15.029  24.572  1.00  0.00     0.162 C
HETATM   40  O6  UNL     1      22.009 -14.460  23.519  1.00  0.00    -0.295 OA
BRANCH  39  41
HETATM   41  C22 UNL     1      22.345 -14.194  25.780  1.00  0.00     0.058 C
HETATM   42  C23 UNL     1      21.224 -13.170  25.964  1.00  0.00     0.012 C
HETATM   43  C24 UNL     1      20.509 -14.262  26.773  1.00  0.00     0.002 C
HETATM   44  C25 UNL     1      21.868 -14.909  27.054  1.00  0.00     0.012 C
ENDBRANCH  39  41
ENDBRANCH  38  39
BRANCH  38  45
HETATM   45  C26 UNL     1      23.632 -17.000  24.649  1.00  0.00     0.249 C
HETATM   46  O7  UNL     1      24.348 -16.716  23.627  1.00  0.00    -0.271 OA
HETATM   47  N5  UNL     1      24.211 -17.749  25.674  1.00  0.00    -0.359 N
HETATM   48  C27 UNL     1      25.615 -18.167  25.632  1.00  0.00     0.152 C
HETATM   49  C28 UNL     1      23.454 -18.169  26.822  1.00  0.00     0.152 C
ENDBRANCH  38  45
ENDBRANCH  36  38
ENDBRANCH  33  36
ENDBRANCH  28  33
ENDBRANCH   3  28
TORSDOF 17
ENDMDL