MODEL 4
REMARK VINA RESULT: -7.969284110      0.969      1.098
REMARK  14 active torsions:
REMARK  status: ('A' for Active; 'I' for Inactive)
REMARK    1  A    between atoms: C2_2  and  C3_4
REMARK    2  A    between atoms: C3_4  and  N1_6
REMARK       I    between atoms: N1_6  and  C5_8
REMARK    3  A    between atoms: C5_8  and  C6_10
REMARK       I    between atoms: N2_13  and  C9_14
REMARK    4  A    between atoms: C9_14  and  C10_16
REMARK    5  A    between atoms: C10_16  and  N3_19
REMARK       I    between atoms: N3_19  and  C13_21
REMARK    6  A    between atoms: C13_21  and  C14_23
REMARK    7  A    between atoms: C14_23  and  C15_24
REMARK    8  A    between atoms: C14_23  and  N4_32
REMARK    9  A    between atoms: C15_24  and  S1_25
REMARK   10  A    between atoms: S1_25  and  C16_28
REMARK       I    between atoms: N4_32  and  C20_34
REMARK       I    between atoms: C20_34  and  N5_36
REMARK   11  A    between atoms: N5_36  and  C21_38
REMARK   12  A    between atoms: C21_38  and  C22_39
REMARK   13  A    between atoms: C21_38  and  C26_44
REMARK   14  A    between atoms: C22_39  and  C23_41
ROOT
HETATM    1  C14 UNL     1      17.804 -15.578  23.826  1.00  0.00     0.095 C
ENDROOT
BRANCH   1   2
HETATM    2  C13 UNL     1      17.609 -14.662  22.681  1.00  0.00     0.266 C
HETATM    3  N3  UNL     1      18.466 -14.769  21.591  1.00  0.00    -0.339 N
ATOM      4  H3  UNL     1      19.129 -15.533  21.720  1.00  0.00     0.164 HD
HETATM    5  O4  UNL     1      16.665 -13.791  22.763  1.00  0.00    -0.266 OA
BRANCH   3   6
HETATM    6  C10 UNL     1      18.678 -14.116  20.352  1.00  0.00     0.107 C
HETATM    7  C11 UNL     1      19.514 -15.089  19.493  1.00  0.00     0.048 C
HETATM    8  C12 UNL     1      19.688 -12.965  20.731  1.00  0.00     0.048 C
BRANCH   6   9
HETATM    9  C9  UNL     1      17.636 -13.518  19.591  1.00  0.00     0.248 C
HETATM   10  N2  UNL     1      16.329 -14.054  19.358  1.00  0.00    -0.336 N
HETATM   11  C6  UNL     1      15.135 -13.486  18.664  1.00  0.00     0.180 C
HETATM   12  C8  UNL     1      15.606 -15.244  19.575  1.00  0.00     0.129 C
HETATM   13  C7  UNL     1      14.780 -14.933  18.313  1.00  0.00     0.055 C
HETATM   14  O3  UNL     1      17.810 -12.380  19.026  1.00  0.00    -0.271 OA
BRANCH  11  15
HETATM   15  C5  UNL     1      14.046 -12.939  19.438  1.00  0.00     0.241 C
HETATM   16  N1  UNL     1      14.042 -11.758  20.243  1.00  0.00    -0.348 N
ATOM     17  H1  UNL     1      14.898 -11.214  20.350  1.00  0.00     0.163 HD
HETATM   18  O2  UNL     1      12.899 -13.541  19.442  1.00  0.00    -0.271 OA
BRANCH  16  19
HETATM   19  C3  UNL     1      12.809 -11.322  20.918  1.00  0.00     0.149 C
HETATM   20  C4  UNL     1      12.495  -9.897  20.571  1.00  0.00     0.040 C
BRANCH  19  21
HETATM   21  C2  UNL     1      12.952 -11.492  22.367  1.00  0.00     0.145 C
HETATM   22  C1  UNL     1      12.581 -10.493  23.385  1.00  0.00     0.093 C
HETATM   23  O1  UNL     1      13.430 -12.564  22.746  1.00  0.00    -0.296 OA
ENDBRANCH  19  21
ENDBRANCH  16  19
ENDBRANCH  11  15
ENDBRANCH   6   9
ENDBRANCH   3   6
ENDBRANCH   1   2
BRANCH   1  24
HETATM   24  C15 UNL     1      18.399 -15.140  25.074  1.00  0.00     0.204 C
BRANCH  24  25
HETATM   25  S1  UNL     1      19.990 -15.880  25.299  1.00  0.00     0.157 S
HETATM   26  O5  UNL     1      20.058 -16.463  26.680  1.00  0.00    -0.227 OA
HETATM   27  O6  UNL     1      20.181 -17.005  24.338  1.00  0.00    -0.227 OA
BRANCH  25  28
HETATM   28  C16 UNL     1      21.330 -14.753  25.084  1.00  0.00     0.053 C
HETATM   29  C17 UNL     1      21.463 -14.424  23.614  1.00  0.00     0.031 C
HETATM   30  C18 UNL     1      21.178 -13.516  25.881  1.00  0.00     0.031 C
HETATM   31  C19 UNL     1      22.659 -15.433  25.466  1.00  0.00     0.031 C
ENDBRANCH  25  28
ENDBRANCH  24  25
ENDBRANCH   1  24
BRANCH   1  32
HETATM   32  N4  UNL     1      16.777 -16.565  23.839  1.00  0.00    -0.307 N
HETATM   33  C20 UNL     1      16.459 -17.593  22.955  1.00  0.00     0.321 C
HETATM   34  O7  UNL     1      17.126 -17.742  21.913  1.00  0.00    -0.247 OA
HETATM   35  N5  UNL     1      15.387 -18.437  23.320  1.00  0.00    -0.331 N
ATOM     36  H5  UNL     1      14.855 -18.212  24.160  1.00  0.00     0.165 HD
ATOM     37  H4  UNL     1      16.158 -16.508  24.648  1.00  0.00     0.170 HD
BRANCH  35  38
HETATM   38  C21 UNL     1      15.000 -19.635  22.539  1.00  0.00     0.159 C
BRANCH  38  39
HETATM   39  C22 UNL     1      14.213 -19.230  21.387  1.00  0.00     0.153 C
HETATM   40  O8  UNL     1      14.770 -19.502  20.285  1.00  0.00    -0.295 OA
BRANCH  39  41
HETATM   41  C23 UNL     1      12.916 -18.580  21.283  1.00  0.00     0.049 C
HETATM   42  C24 UNL     1      12.151 -19.210  20.122  1.00  0.00     0.017 C
HETATM   43  C25 UNL     1      12.886 -17.093  21.174  1.00  0.00     0.017 C
ENDBRANCH  39  41
ENDBRANCH  38  39
BRANCH  38  44
HETATM   44  C26 UNL     1      14.127 -20.390  23.578  1.00  0.00     0.007 C
HETATM   45  C27 UNL     1      14.578 -20.220  24.975  1.00  0.00     0.012 C
HETATM   46  C28 UNL     1      13.963 -21.827  23.174  1.00  0.00     0.012 C
ENDBRANCH  38  44
ENDBRANCH  35  38
ENDBRANCH   1  32
TORSDOF 14
ENDMDL