MODEL 5
REMARK VINA RESULT: -7.382726337      2.847      8.003
REMARK  13 active torsions:
REMARK  status: ('A' for Active; 'I' for Inactive)
REMARK    1  A    between atoms: C2_2  and  C3_3
REMARK    2  A    between atoms: C3_3  and  C4_5
REMARK    3  A    between atoms: C6_7  and  C7_8
REMARK    4  A    between atoms: C7_8  and  C8_9
REMARK    5  A    between atoms: C8_9  and  C9_10
REMARK    6  A    between atoms: C9_10  and  C10_11
REMARK    7  A    between atoms: C10_11  and  C11_12
REMARK    8  A    between atoms: C11_12  and  N1_13
REMARK    9  A    between atoms: C14_19  and  C15_20
REMARK   10  A    between atoms: C15_20  and  C16_21
REMARK   11  A    between atoms: C23_33  and  C24_34
REMARK   12  A    between atoms: C24_34  and  C25_35
REMARK   13  A    between atoms: C29_42  and  C30_43
ROOT
HETATM    1  N1  UNL     1      18.895 -14.362  22.224  1.00  0.00    -0.341 N
HETATM    2  C12 UNL     1      17.615 -14.060  22.780  1.00  0.00     0.228 C
HETATM    3  C13 UNL     1      16.446 -14.579  22.045  1.00  0.00     0.236 C
HETATM    4  O2  UNL     1      15.823 -13.684  21.347  1.00  0.00    -0.272 OA
HETATM    5  N2  UNL     1      15.931 -15.879  22.004  1.00  0.00    -0.346 N
ATOM      6  H2  UNL     1      14.976 -15.981  22.349  1.00  0.00     0.163 HD
HETATM    7  C14 UNL     1      16.554 -17.094  21.545  1.00  0.00     0.177 C
HETATM    8  C19 UNL     1      16.454 -18.264  22.410  1.00  0.00     0.242 C
HETATM    9  O3  UNL     1      16.589 -19.397  21.795  1.00  0.00    -0.271 OA
HETATM   10  N3  UNL     1      16.237 -18.340  23.788  1.00  0.00    -0.346 N
HETATM   11  C20 UNL     1      15.118 -19.117  24.277  1.00  0.00     0.153 C
HETATM   12  C21 UNL     1      17.080 -17.701  24.819  1.00  0.00     0.228 C
HETATM   13  C22 UNL     1      18.191 -18.627  25.187  1.00  0.00     0.236 C
HETATM   14  O4  UNL     1      17.783 -19.730  25.695  1.00  0.00    -0.272 OA
HETATM   15  N4  UNL     1      19.571 -18.385  25.021  1.00  0.00    -0.346 N
ATOM     16  H4  UNL     1      20.066 -19.034  24.410  1.00  0.00     0.163 HD
HETATM   17  C23 UNL     1      20.366 -17.347  25.599  1.00  0.00     0.177 C
HETATM   18  C28 UNL     1      19.584 -16.147  25.979  1.00  0.00     0.241 C
HETATM   19  O5  UNL     1      18.815 -16.360  26.996  1.00  0.00    -0.271 OA
HETATM   20  N5  UNL     1      19.561 -14.879  25.421  1.00  0.00    -0.337 N
ATOM     21  H5  UNL     1      18.871 -14.256  25.842  1.00  0.00     0.163 HD
HETATM   22  C29 UNL     1      20.313 -14.281  24.376  1.00  0.00     0.278 C
HETATM   23  C31 UNL     1      20.033 -14.787  23.003  1.00  0.00     0.253 C
HETATM   24  O8  UNL     1      20.785 -15.626  22.439  1.00  0.00    -0.270 OA
ENDROOT
BRANCH   1  25
HETATM   25  C11 UNL     1      19.025 -14.204  20.761  1.00  0.00     0.126 C
BRANCH  25  26
HETATM   26  C10 UNL     1      19.854 -12.941  20.504  1.00  0.00     0.020 C
BRANCH  26  27
HETATM   27  C9  UNL     1      20.334 -12.917  19.068  1.00  0.00     0.002 C
BRANCH  27  28
HETATM   28  C8  UNL     1      19.628 -13.909  18.208  1.00  0.00     0.004 C
BRANCH  28  29
HETATM   29  C7  UNL     1      18.761 -13.242  17.151  1.00  0.00     0.028 C
BRANCH  29  30
HETATM   30  C6  UNL     1      17.350 -13.251  17.569  1.00  0.00    -0.016 C
HETATM   31  C4  UNL     1      16.343 -12.554  17.103  1.00  0.00    -0.016 C
HETATM   32  C5  UNL     1      14.972 -12.757  17.719  1.00  0.00     0.052 C
BRANCH  31  33
HETATM   33  C3  UNL     1      16.385 -11.577  16.034  1.00  0.00     0.176 C
HETATM   34  O1  UNL     1      16.990 -10.492  16.102  1.00  0.00    -0.288 OA
BRANCH  33  35
HETATM   35  C2  UNL     1      15.671 -11.866  14.768  1.00  0.00     0.045 C
HETATM   36  C1  UNL     1      15.984 -12.928  14.055  1.00  0.00     0.015 C
ENDBRANCH  33  35
ENDBRANCH  31  33
ENDBRANCH  29  30
ENDBRANCH  28  29
ENDBRANCH  27  28
ENDBRANCH  26  27
ENDBRANCH  25  26
ENDBRANCH   1  25
BRANCH  22  37
HETATM   37  C30 UNL     1      21.772 -14.193  24.611  1.00  0.00     0.206 C
HETATM   38  O6  UNL     1      22.211 -13.795  25.696  1.00  0.00    -0.646 OA
HETATM   39  O7  UNL     1      22.632 -14.560  23.602  1.00  0.00    -0.646 OA
ENDBRANCH  22  37
BRANCH   7  40
HETATM   40  C15 UNL     1      16.235 -17.376  20.105  1.00  0.00     0.038 C
BRANCH  40  41
HETATM   41  C16 UNL     1      14.844 -17.202  19.662  1.00  0.00    -0.020 C
HETATM   42  C17 UNL     1      14.912 -16.371  18.360  1.00  0.00     0.009 C
HETATM   43  C18 UNL     1      14.044 -18.397  19.311  1.00  0.00     0.009 C
ENDBRANCH  40  41
ENDBRANCH   7  40
BRANCH  17  44
HETATM   44  C24 UNL     1      21.116 -17.794  26.818  1.00  0.00     0.038 C
BRANCH  44  45
HETATM   45  C25 UNL     1      22.447 -17.243  27.103  1.00  0.00    -0.020 C
HETATM   46  C26 UNL     1      23.410 -17.342  25.967  1.00  0.00     0.009 C
HETATM   47  C27 UNL     1      23.043 -18.118  28.231  1.00  0.00     0.009 C
ENDBRANCH  44  45
ENDBRANCH  17  44
TORSDOF 13
ENDMDL