MODEL 2
REMARK VINA RESULT: -8.788368316      6.382     12.657
REMARK  13 active torsions:
REMARK  status: ('A' for Active; 'I' for Inactive)
REMARK    1  A    between atoms: C2_2  and  N1_3
REMARK    2  A    between atoms: C2_2  and  C28_41
REMARK       I    between atoms: N1_3  and  C3_5
REMARK    3  A    between atoms: C3_5  and  C4_7
REMARK    4  A    between atoms: C4_7  and  N2_8
REMARK    5  A    between atoms: C4_7  and  C22_35
REMARK    6  A    between atoms: N2_8  and  C5_10
REMARK    7  A    between atoms: C5_10  and  C6_11
REMARK    8  A    between atoms: C5_10  and  C19_32
REMARK       I    between atoms: C6_11  and  N3_13
REMARK       I    between atoms: N3_13  and  C7_15
REMARK    9  A    between atoms: C7_15  and  C8_17
REMARK   10  A    between atoms: C8_17  and  N4_18
REMARK   11  A    between atoms: C8_17  and  C16_29
REMARK       I    between atoms: N4_18  and  C9_20
REMARK   12  A    between atoms: C9_20  and  C10_22
REMARK   13  A    between atoms: C10_22  and  C11_23
REMARK       I    between atoms: C28_41  and  N5_43
ROOT
HETATM    1  C5  UNL     1      18.341 -16.708  21.691  1.00  0.00     0.174 C
ENDROOT
BRANCH   1   2
HETATM    2  N2  UNL     1      18.626 -15.427  22.087  1.00  0.00    -0.396 N
ATOM      3  H2  UNL     1      17.877 -14.869  22.497  1.00  0.00     0.154 HD
BRANCH   2   4
HETATM    4  C4  UNL     1      19.920 -14.834  21.951  1.00  0.00     0.174 C
BRANCH   4   5
HETATM    5  C3  UNL     1      20.691 -14.762  23.169  1.00  0.00     0.241 C
HETATM    6  N1  UNL     1      21.967 -15.272  23.444  1.00  0.00    -0.346 N
ATOM      7  H1  UNL     1      22.476 -15.761  22.706  1.00  0.00     0.163 HD
HETATM    8  O1  UNL     1      20.129 -14.152  24.156  1.00  0.00    -0.271 OA
BRANCH   6   9
HETATM    9  C2  UNL     1      22.592 -15.126  24.760  1.00  0.00     0.172 C
HETATM   10  C1  UNL     1      23.842 -14.235  24.561  1.00  0.00     0.042 C
BRANCH   9  11
HETATM   11  C28 UNL     1      23.099 -16.404  25.257  1.00  0.00     0.242 C
HETATM   12  O6  UNL     1      24.180 -16.912  24.789  1.00  0.00    -0.271 OA
HETATM   13  N5  UNL     1      22.447 -17.136  26.257  1.00  0.00    -0.346 N
HETATM   14  C29 UNL     1      22.996 -18.382  26.802  1.00  0.00     0.152 C
HETATM   15  C32 UNL     1      21.174 -16.714  26.793  1.00  0.00     0.152 C
HETATM   16  C30 UNL     1      22.077 -18.801  27.933  1.00  0.00     0.187 C
HETATM   17  O7  UNL     1      20.774 -18.974  27.538  1.00  0.00    -0.388 OA
HETATM   18  C31 UNL     1      20.279 -17.956  26.746  1.00  0.00     0.187 C
ENDBRANCH   9  11
ENDBRANCH   6   9
ENDBRANCH   4   5
BRANCH   4  19
HETATM   19  C22 UNL     1      19.656 -13.409  21.399  1.00  0.00     0.017 C
HETATM   20  C23 UNL     1      18.166 -13.225  21.237  1.00  0.00     0.007 C
HETATM   21  C24 UNL     1      17.848 -12.647  19.899  1.00  0.00     0.000 C
HETATM   22  C25 UNL     1      18.351 -13.598  18.824  1.00  0.00     0.000 C
HETATM   23  C26 UNL     1      19.846 -13.711  18.906  1.00  0.00     0.000 C
HETATM   24  C27 UNL     1      20.379 -13.047  20.175  1.00  0.00     0.007 C
ENDBRANCH   4  19
ENDBRANCH   2   4
ENDBRANCH   1   2
BRANCH   1  25
HETATM   25  C6  UNL     1      17.077 -16.972  20.970  1.00  0.00     0.247 C
HETATM   26  O2  UNL     1      16.526 -18.076  21.051  1.00  0.00    -0.271 OA
HETATM   27  N3  UNL     1      16.460 -15.953  20.166  1.00  0.00    -0.291 N
HETATM   28  C7  UNL     1      15.209 -16.116  19.534  1.00  0.00     0.271 C
ATOM     29  H3  UNL     1      16.950 -15.066  20.048  1.00  0.00     0.172 HD
HETATM   30  O3  UNL     1      14.627 -17.225  19.718  1.00  0.00    -0.266 OA
BRANCH  28  31
HETATM   31  C8  UNL     1      14.628 -15.067  18.722  1.00  0.00     0.084 C
BRANCH  31  32
HETATM   32  N4  UNL     1      14.459 -13.784  19.365  1.00  0.00    -0.326 N
HETATM   33  C9  UNL     1      13.290 -13.352  20.009  1.00  0.00     0.222 C
HETATM   34  O4  UNL     1      12.304 -14.106  20.057  1.00  0.00    -0.273 OA
ATOM     35  H4  UNL     1      15.252 -13.142  19.349  1.00  0.00     0.168 HD
BRANCH  33  36
HETATM   36  C10 UNL     1      13.232 -12.021  20.619  1.00  0.00     0.108 C
BRANCH  36  37
HETATM   37  C11 UNL     1      12.117 -11.765  21.564  1.00  0.00    -0.002 C
HETATM   38  C12 UNL     1      12.200 -10.273  21.929  1.00  0.00     0.031 C
HETATM   39  C13 UNL     1      12.440 -10.090  23.402  1.00  0.00     0.168 C
HETATM   40  O5  UNL     1      11.365 -10.606  24.091  1.00  0.00    -0.391 OA
HETATM   41  C14 UNL     1      11.295 -11.964  23.913  1.00  0.00     0.168 C
HETATM   42  C15 UNL     1      12.250 -12.504  22.864  1.00  0.00     0.031 C
ENDBRANCH  36  37
ENDBRANCH  33  36
ENDBRANCH  31  32
BRANCH  31  43
HETATM   43  C16 UNL     1      15.177 -15.018  17.348  1.00  0.00     0.033 C
HETATM   44  C17 UNL     1      15.245 -13.703  16.668  1.00  0.00     0.016 C
HETATM   45  C18 UNL     1      14.559 -16.100  16.446  1.00  0.00     0.016 C
ENDBRANCH  31  43
ENDBRANCH  28  31
ENDBRANCH   1  25
BRANCH   1  46
HETATM   46  C19 UNL     1      18.207 -17.555  22.994  1.00  0.00     0.009 C
HETATM   47  C20 UNL     1      19.494 -18.286  23.289  1.00  0.00     0.012 C
HETATM   48  C21 UNL     1      17.703 -16.734  24.137  1.00  0.00     0.012 C
ENDBRANCH   1  46
TORSDOF 13
ENDMDL