MODEL 4
REMARK VINA RESULT: -8.332979713      4.759      7.872
REMARK  16 active torsions:
REMARK  status: ('A' for Active; 'I' for Inactive)
REMARK    1  A    between atoms: C2_2  and  C3_3
REMARK    2  A    between atoms: C3_3  and  C4_4
REMARK    3  A    between atoms: C3_3  and  N1_6
REMARK    4  A    between atoms: N1_6  and  C5_8
REMARK    5  A    between atoms: C5_8  and  O2_9
REMARK    6  A    between atoms: C5_8  and  C6_11
REMARK    7  A    between atoms: C6_11  and  N2_12
REMARK    8  A    between atoms: C6_11  and  C29_46
REMARK       I    between atoms: N2_12  and  C7_14
REMARK    9  A    between atoms: C7_14  and  C8_16
REMARK   10  A    between atoms: C8_16  and  N3_17
REMARK   11  A    between atoms: C8_16  and  C26_43
REMARK       I    between atoms: N3_17  and  C9_19
REMARK   12  A    between atoms: C9_19  and  C10_21
REMARK       I    between atoms: N4_26  and  C15_27
REMARK   13  A    between atoms: C15_27  and  C16_29
REMARK   14  A    between atoms: C16_29  and  N5_31
REMARK       I    between atoms: N5_31  and  C18_33
REMARK   15  A    between atoms: C18_33  and  C19_35
REMARK   16  A    between atoms: N6_39  and  C23_40
ROOT
HETATM    1  N3  UNL     1      19.520 -14.738  23.250  1.00  0.00    -0.345 N
ATOM      2  H3  UNL     1      19.068 -15.116  24.083  1.00  0.00     0.163 HD
HETATM    3  C9  UNL     1      20.865 -14.393  23.425  1.00  0.00     0.246 C
HETATM    4  O4  UNL     1      21.634 -13.897  22.561  1.00  0.00    -0.271 OA
ENDROOT
BRANCH   1   5
HETATM    5  C8  UNL     1      18.681 -14.653  22.115  1.00  0.00     0.180 C
BRANCH   5   6
HETATM    6  C7  UNL     1      17.215 -14.518  22.408  1.00  0.00     0.241 C
HETATM    7  N2  UNL     1      16.283 -14.254  21.377  1.00  0.00    -0.347 N
ATOM      8  H2  UNL     1      16.631 -14.162  20.423  1.00  0.00     0.163 HD
HETATM    9  O3  UNL     1      16.759 -14.626  23.560  1.00  0.00    -0.271 OA
BRANCH   7  10
HETATM   10  C6  UNL     1      14.857 -14.108  21.606  1.00  0.00     0.166 C
BRANCH  10  11
HETATM   11  C5  UNL     1      14.509 -12.693  21.800  1.00  0.00     0.136 C
BRANCH  11  12
HETATM   12  N1  UNL     1      13.380 -12.133  22.397  1.00  0.00    -0.362 N
ATOM     13  H1  UNL     1      12.701 -12.737  22.860  1.00  0.00     0.162 HD
BRANCH  12  14
HETATM   14  C3  UNL     1      13.160 -10.680  22.367  1.00  0.00     0.144 C
BRANCH  14  15
HETATM   15  C2  UNL     1      12.331 -10.213  23.533  1.00  0.00     0.028 C
HETATM   16  C1  UNL     1      11.363 -11.298  23.978  1.00  0.00     0.007 C
ENDBRANCH  14  15
BRANCH  14  17
HETATM   17  C4  UNL     1      12.468 -10.339  21.109  1.00  0.00     0.256 C
HETATM   18  O1  UNL     1      13.034 -10.048  20.067  1.00  0.00    -0.305 OA
ENDBRANCH  14  17
ENDBRANCH  12  14
ENDBRANCH  11  12
BRANCH  11  19
HETATM   19  O2  UNL     1      15.368 -11.822  21.352  1.00  0.00    -0.348 OA
ATOM     20  H2  UNL     1      16.234 -12.175  21.189  1.00  0.00     0.219 HD
ENDBRANCH  11  19
ENDBRANCH  10  11
BRANCH  10  21
HETATM   21  C29 UNL     1      13.975 -14.805  20.660  1.00  0.00    -0.023 C
HETATM   22  C30 UNL     1      13.732 -13.975  19.387  1.00  0.00     0.017 C
HETATM   23  C31 UNL     1      14.696 -16.056  20.126  1.00  0.00     0.017 C
HETATM   24  C32 UNL     1      12.637 -15.226  21.155  1.00  0.00     0.017 C
ENDBRANCH  10  21
ENDBRANCH   7  10
ENDBRANCH   5   6
BRANCH   5  25
HETATM   25  C26 UNL     1      18.959 -15.664  21.055  1.00  0.00     0.009 C
HETATM   26  C27 UNL     1      19.844 -16.795  21.495  1.00  0.00     0.012 C
HETATM   27  C28 UNL     1      19.653 -14.956  19.907  1.00  0.00     0.012 C
ENDBRANCH   5  25
ENDBRANCH   1   5
BRANCH   3  28
HETATM   28  C10 UNL     1      21.518 -14.616  24.764  1.00  0.00     0.112 C
HETATM   29  C11 UNL     1      22.982 -14.252  24.723  1.00  0.00     0.049 C
HETATM   30  C12 UNL     1      20.838 -13.670  25.702  1.00  0.00     0.042 C
HETATM   31  C13 UNL     1      20.596 -14.460  26.940  1.00  0.00     0.023 C
HETATM   32  C14 UNL     1      20.349 -15.842  26.368  1.00  0.00     0.127 C
HETATM   33  N4  UNL     1      21.326 -15.937  25.270  1.00  0.00    -0.332 N
HETATM   34  C15 UNL     1      21.911 -17.169  24.888  1.00  0.00     0.243 C
HETATM   35  O5  UNL     1      22.749 -17.181  23.956  1.00  0.00    -0.271 OA
BRANCH  34  36
HETATM   36  C16 UNL     1      21.580 -18.456  25.544  1.00  0.00     0.172 C
HETATM   37  C17 UNL     1      21.625 -19.626  24.576  1.00  0.00     0.042 C
BRANCH  36  38
HETATM   38  N5  UNL     1      22.484 -18.736  26.626  1.00  0.00    -0.348 N
HETATM   39  C18 UNL     1      22.006 -19.106  27.923  1.00  0.00     0.224 C
HETATM   40  O6  UNL     1      20.766 -19.179  28.088  1.00  0.00    -0.273 OA
ATOM     41  H5  UNL     1      23.489 -18.669  26.466  1.00  0.00     0.163 HD
BRANCH  39  42
HETATM   42  C19 UNL     1      22.910 -19.401  29.048  1.00  0.00     0.095 C
HETATM   43  C20 UNL     1      22.120 -19.614  30.288  1.00  0.00     0.017 C
HETATM   44  C21 UNL     1      22.906 -19.441  31.563  1.00  0.00     0.020 C
HETATM   45  C22 UNL     1      23.594 -18.093  31.507  1.00  0.00     0.117 C
HETATM   46  N6  UNL     1      24.518 -18.135  30.429  1.00  0.00    -0.412 N
HETATM   47  C25 UNL     1      24.010 -18.400  29.136  1.00  0.00     0.131 C
BRANCH  46  48
HETATM   48  C23 UNL     1      25.766 -18.780  30.681  1.00  0.00     0.112 C
HETATM   49  C24 UNL     1      26.890 -18.254  29.829  1.00  0.00     0.026 C
ENDBRANCH  46  48
ENDBRANCH  39  42
ENDBRANCH  36  38
ENDBRANCH  34  36
ENDBRANCH   3  28
TORSDOF 16
ENDMDL