MODEL 2
REMARK VINA RESULT: -7.651282007      1.617      3.463
REMARK  16 active torsions:
REMARK  status: ('A' for Active; 'I' for Inactive)
REMARK    1  A    between atoms: C2_2  and  C3_3
REMARK    2  A    between atoms: C3_3  and  N1_5
REMARK    3  A    between atoms: C3_3  and  C28_43
REMARK       I    between atoms: N1_5  and  C5_7
REMARK    4  A    between atoms: C5_7  and  C6_9
REMARK       I    between atoms: N2_12  and  C9_13
REMARK    5  A    between atoms: C9_13  and  C10_15
REMARK    6  A    between atoms: C10_15  and  N3_16
REMARK    7  A    between atoms: C10_15  and  C16_25
REMARK       I    between atoms: N3_16  and  C11_18
REMARK    8  A    between atoms: C11_18  and  O4_20
REMARK    9  A    between atoms: O4_20  and  C12_21
REMARK       I    between atoms: N4_31  and  C22_32
REMARK   10  A    between atoms: C22_32  and  C23_34
REMARK   11  A    between atoms: C23_34  and  N5_35
REMARK   12  A    between atoms: C23_34  and  C24_39
REMARK   13  A    between atoms: C24_39  and  C26_41
REMARK       I    between atoms: C28_43  and  N6_45
REMARK   14  A    between atoms: N6_45  and  C29_47
REMARK   15  A    between atoms: C29_47  and  C30_48
REMARK   16  A    between atoms: C30_48  and  N7_49
ROOT
HETATM    1  C6  UNL     1      18.522 -14.200  22.474  1.00  0.00     0.185 C
HETATM    2  C7  UNL     1      18.430 -13.472  21.205  1.00  0.00     0.043 C
HETATM    3  C8  UNL     1      17.439 -13.814  20.165  1.00  0.00     0.133 C
HETATM    4  N2  UNL     1      18.124 -13.298  18.990  1.00  0.00    -0.349 N
HETATM    5  C9  UNL     1      17.599 -12.953  17.723  1.00  0.00     0.243 C
HETATM    6  O2  UNL     1      18.354 -12.458  16.812  1.00  0.00    -0.271 OA
HETATM    7  C19 UNL     1      19.567 -13.172  19.283  1.00  0.00     0.132 C
HETATM    8  C20 UNL     1      19.654 -14.077  20.472  1.00  0.00     0.030 C
HETATM    9  C21 UNL     1      20.661 -13.824  21.483  1.00  0.00     0.133 C
HETATM   10  N4  UNL     1      19.949 -14.154  22.745  1.00  0.00    -0.336 N
HETATM   11  C22 UNL     1      20.686 -14.351  23.946  1.00  0.00     0.251 C
HETATM   12  O5  UNL     1      21.964 -14.266  23.819  1.00  0.00    -0.271 OA
ENDROOT
BRANCH   1  13
HETATM   13  C5  UNL     1      18.013 -15.578  22.436  1.00  0.00     0.242 C
HETATM   14  N1  UNL     1      16.625 -15.869  22.438  1.00  0.00    -0.338 N
ATOM     15  H1  UNL     1      15.978 -15.081  22.469  1.00  0.00     0.164 HD
HETATM   16  O1  UNL     1      18.820 -16.529  22.402  1.00  0.00    -0.271 OA
BRANCH  14  17
HETATM   17  C3  UNL     1      16.065 -17.182  22.400  1.00  0.00     0.128 C
HETATM   18  C4  UNL     1      16.726 -18.025  21.343  1.00  0.00     0.054 C
BRANCH  17  19
HETATM   19  C2  UNL     1      16.186 -17.873  23.726  1.00  0.00     0.003 C
HETATM   20  C1  UNL     1      16.885 -18.975  23.835  1.00  0.00     0.010 C
ENDBRANCH  17  19
BRANCH  17  21
HETATM   21  C28 UNL     1      14.606 -17.084  22.112  1.00  0.00     0.249 C
HETATM   22  O6  UNL     1      13.853 -18.069  22.270  1.00  0.00    -0.270 OA
HETATM   23  N6  UNL     1      14.066 -15.865  21.653  1.00  0.00    -0.357 N
ATOM     24  H6  UNL     1      14.680 -15.060  21.528  1.00  0.00     0.162 HD
BRANCH  23  25
HETATM   25  C29 UNL     1      12.680 -15.739  21.362  1.00  0.00     0.150 C
BRANCH  25  26
HETATM   26  C30 UNL     1      12.140 -14.347  21.311  1.00  0.00     0.251 C
BRANCH  26  27
HETATM   27  N7  UNL     1      12.556 -13.667  22.535  1.00  0.00    -0.077 N
HETATM   28  C31 UNL     1      11.954 -12.353  22.603  1.00  0.00     0.267 C
ATOM     29  H72 UNL     1      12.356 -14.222  23.368  1.00  0.00     0.276 HD
ATOM     30  H71 UNL     1      13.571 -13.627  22.623  1.00  0.00     0.276 HD
ENDBRANCH  26  27
ENDBRANCH  25  26
ENDBRANCH  23  25
ENDBRANCH  17  21
ENDBRANCH  14  17
ENDBRANCH   1  13
BRANCH  11  31
HETATM   31  C23 UNL     1      20.159 -14.634  25.277  1.00  0.00     0.278 C
BRANCH  31  32
HETATM   32  N5  UNL     1      20.744 -13.859  26.351  1.00  0.00    -0.066 N
ATOM     33  H53 UNL     1      21.584 -13.383  26.022  1.00  0.00     0.275 HD
ATOM     34  H52 UNL     1      20.155 -13.055  26.565  1.00  0.00     0.275 HD
ATOM     35  H51 UNL     1      20.948 -14.380  27.203  1.00  0.00     0.275 HD
ENDBRANCH  31  32
BRANCH  31  36
HETATM   36  C24 UNL     1      20.185 -16.064  25.720  1.00  0.00     0.021 C
HETATM   37  C25 UNL     1      21.426 -16.206  26.614  1.00  0.00     0.012 C
BRANCH  36  38
HETATM   38  C26 UNL     1      19.013 -16.531  26.516  1.00  0.00     0.002 C
HETATM   39  C27 UNL     1      17.790 -15.765  25.962  1.00  0.00     0.005 C
ENDBRANCH  36  38
ENDBRANCH  31  36
ENDBRANCH  11  31
BRANCH   5  40
HETATM   40  C10 UNL     1      16.187 -13.109  17.308  1.00  0.00     0.182 C
BRANCH  40  41
HETATM   41  N3  UNL     1      16.084 -12.681  15.896  1.00  0.00    -0.323 N
HETATM   42  C11 UNL     1      15.075 -11.746  15.517  1.00  0.00     0.362 C
HETATM   43  O3  UNL     1      14.291 -11.309  16.385  1.00  0.00    -0.238 OA
ATOM     44  H3  UNL     1      16.730 -13.053  15.199  1.00  0.00     0.165 HD
BRANCH  42  45
HETATM   45  O4  UNL     1      14.957 -11.324  14.218  1.00  0.00    -0.294 OA
BRANCH  45  46
HETATM   46  C12 UNL     1      14.478 -12.174  13.203  1.00  0.00     0.061 C
HETATM   47  C13 UNL     1      13.698 -11.306  12.235  1.00  0.00     0.046 C
HETATM   48  C14 UNL     1      15.620 -12.780  12.403  1.00  0.00     0.046 C
HETATM   49  C15 UNL     1      13.574 -13.264  13.710  1.00  0.00     0.046 C
ENDBRANCH  45  46
ENDBRANCH  42  45
ENDBRANCH  40  41
BRANCH  40  50
HETATM   50  C16 UNL     1      15.744 -14.565  17.397  1.00  0.00     0.009 C
HETATM   51  C17 UNL     1      15.433 -15.047  16.007  1.00  0.00     0.012 C
HETATM   52  C18 UNL     1      14.482 -14.720  18.209  1.00  0.00     0.012 C
ENDBRANCH  40  50
ENDBRANCH   5  40
TORSDOF 16
ENDMDL