MODEL 2
REMARK VINA RESULT: -7.702622099      0.298      1.966
REMARK  6 active torsions:
REMARK  status: ('A' for Active; 'I' for Inactive)
REMARK    1  A    between atoms: N1_1  and  C1_5
REMARK       I    between atoms: N3_9  and  C3_11
REMARK    2  A    between atoms: C3_11  and  C4_13
REMARK    3  A    between atoms: C4_13  and  N4_14
REMARK    4  A    between atoms: C4_13  and  N5_18
REMARK    5  A    between atoms: C5_19  and  O2_20
REMARK    6  A    between atoms: C8_24  and  O3_25
ROOT
HETATM    1  C4  UNL     1     -19.176  69.535  67.126  1.00  0.00     0.384 C
ENDROOT
BRANCH   1   2
HETATM    2  C3  UNL     1     -19.414  69.671  68.588  1.00  0.00     0.274 C
HETATM    3  N3  UNL     1     -18.421  69.259  69.514  1.00  0.00    -0.310 N
HETATM    4  C2  UNL     1     -18.159  69.880  70.602  1.00  0.00     0.132 A
ATOM      5  H3  UNL     1     -17.885  68.419  69.300  1.00  0.00     0.170 HD
HETATM    6  C1  UNL     1     -17.501  70.183  71.881  1.00  0.00     0.351 A
HETATM    7  N2  UNL     1     -18.541  71.045  71.408  1.00  0.00    -0.343 N
ATOM      8  H2  UNL     1     -19.125  71.871  71.537  1.00  0.00     0.163 HD
HETATM    9  O1  UNL     1     -20.480  70.146  69.049  1.00  0.00    -0.269 OA
BRANCH   6  10
HETATM   10  N1  UNL     1     -16.154  70.744  71.864  1.00  0.00    -0.051 N
ATOM     11  H13 UNL     1     -16.012  71.281  71.009  1.00  0.00     0.277 HD
ATOM     12  H12 UNL     1     -16.079  71.485  72.560  1.00  0.00     0.277 HD
ATOM     13  H11 UNL     1     -15.393  70.076  71.984  1.00  0.00     0.277 HD
ENDBRANCH   6  10
ENDBRANCH   1   2
BRANCH   1  14
HETATM   14  N4  UNL     1     -20.309  68.995  66.440  1.00  0.00    -0.049 N
ATOM     15  H43 UNL     1     -20.661  69.647  65.739  1.00  0.00     0.277 HD
ATOM     16  H42 UNL     1     -20.035  68.228  65.825  1.00  0.00     0.277 HD
ATOM     17  H41 UNL     1     -21.049  68.707  67.081  1.00  0.00     0.277 HD
ENDBRANCH   1  14
BRANCH   1  18
HETATM   18  N5  UNL     1     -18.809  70.818  66.538  1.00  0.00    -0.270 N
HETATM   19  C5  UNL     1     -17.801  71.604  66.926  1.00  0.00     0.153 A
HETATM   20  C6  UNL     1     -17.809  72.707  66.109  1.00  0.00     0.004 A
HETATM   21  C7  UNL     1     -18.841  72.586  65.214  1.00  0.00     0.004 A
HETATM   22  C11 UNL     1     -17.114  73.993  65.831  1.00  0.00     0.044 C
HETATM   23  C8  UNL     1     -19.448  71.387  65.513  1.00  0.00     0.153 A
HETATM   24  C9  UNL     1     -18.886  73.778  64.301  1.00  0.00     0.044 C
HETATM   25  C10 UNL     1     -17.463  74.273  64.384  1.00  0.00     0.009 C
BRANCH  19  26
HETATM   26  O2  UNL     1     -16.887  71.351  67.983  1.00  0.00    -0.345 OA
ATOM     27  H2  UNL     1     -15.995  71.671  68.050  1.00  0.00     0.219 HD
ENDBRANCH  19  26
BRANCH  23  28
HETATM   28  O3  UNL     1     -20.559  70.904  64.806  1.00  0.00    -0.345 OA
ATOM     29  H3  UNL     1     -20.594  70.191  64.180  1.00  0.00     0.219 HD
ENDBRANCH  23  28
ENDBRANCH   1  18
TORSDOF 6
ENDMDL