MODEL 2
REMARK VINA RESULT: -7.434148615      1.175      1.684
REMARK  7 active torsions:
REMARK  status: ('A' for Active; 'I' for Inactive)
REMARK    1  A    between atoms: C3_3  and  O1_5
REMARK    2  A    between atoms: C3_3  and  C5_7
REMARK    3  A    between atoms: C5_7  and  N1_8
REMARK    4  A    between atoms: N1_8  and  N2_10
REMARK    5  A    between atoms: C7_16  and  N4_17
REMARK    6  A    between atoms: N4_17  and  N5_19
REMARK    7  A    between atoms: N5_19  and  O2_20
ROOT
HETATM    1  C1  UNL     1     -16.060  71.899  71.804  1.00  0.00     0.015 C
HETATM    2  C2  UNL     1     -16.464  70.990  71.118  1.00  0.00    -0.075 C
HETATM    3  C3  UNL     1     -16.970  69.885  70.304  1.00  0.00     0.163 C
HETATM    4  C4  UNL     1     -17.672  68.845  71.129  1.00  0.00     0.065 C
ENDROOT
BRANCH   3   5
HETATM    5  O1  UNL     1     -15.880  69.326  69.636  1.00  0.00    -0.373 OA
ATOM      6  H1  UNL     1     -15.756  68.449  69.980  1.00  0.00     0.212 HD
ENDBRANCH   3   5
BRANCH   3   7
HETATM    7  C5  UNL     1     -17.977  70.406  69.264  1.00  0.00     0.178 C
HETATM    8  C6  UNL     1     -17.193  71.218  68.300  1.00  0.00     0.181 C
HETATM    9  N3  UNL     1     -17.755  71.384  66.998  1.00  0.00    -0.366 N
HETATM   10  C7  UNL     1     -18.638  70.617  66.477  1.00  0.00     0.187 C
ATOM     11  H3  UNL     1     -17.430  72.174  66.442  1.00  0.00     0.161 HD
HETATM   12  C10 UNL     1     -19.107  69.495  67.266  1.00  0.00     0.288 C
HETATM   13  O3  UNL     1     -19.972  68.695  66.827  1.00  0.00    -0.264 OA
HETATM   14  N6  UNL     1     -18.579  69.272  68.598  1.00  0.00    -0.322 N
ATOM     15  H6  UNL     1     -18.631  68.357  69.044  1.00  0.00     0.165 HD
BRANCH   7  16
HETATM   16  N1  UNL     1     -19.008  71.119  69.966  1.00  0.00    -0.309 N
ATOM     17  H1  UNL     1     -18.811  71.972  70.490  1.00  0.00     0.182 HD
BRANCH  16  18
HETATM   18  N2  UNL     1     -20.267  70.592  69.894  1.00  0.00    -0.347 N
ATOM     19  H22 UNL     1     -20.410  69.595  69.734  1.00  0.00     0.176 HD
ATOM     20  H21 UNL     1     -21.040  71.249  70.008  1.00  0.00     0.176 HD
ENDBRANCH  16  18
ENDBRANCH   7  16
BRANCH  10  21
HETATM   21  N4  UNL     1     -19.124  70.873  65.184  1.00  0.00    -0.255 N
ATOM     22  H4  UNL     1     -18.634  70.457  64.392  1.00  0.00     0.191 HD
BRANCH  21  23
HETATM   23  N5  UNL     1     -20.243  71.666  64.928  1.00  0.00    -0.178 N
HETATM   24  C8  UNL     1     -20.203  72.750  64.239  1.00  0.00     0.112 C
HETATM   25  C9  UNL     1     -18.938  73.264  63.644  1.00  0.00     0.059 C
BRANCH  23  26
HETATM   26  O2  UNL     1     -21.449  71.267  65.437  1.00  0.00    -0.268 OA
ATOM     27  H2  UNL     1     -22.055  71.936  65.733  1.00  0.00     0.247 HD
ENDBRANCH  23  26
ENDBRANCH  21  23
ENDBRANCH  10  21
ENDBRANCH   3   7
TORSDOF 7
ENDMDL