MODEL 3
REMARK VINA RESULT: -7.280791527      1.767      3.995
REMARK  5 active torsions:
REMARK  status: ('A' for Active; 'I' for Inactive)
REMARK    1  A    between atoms: O1_2  and  C2_3
REMARK    2  A    between atoms: C3_6  and  N2_7
REMARK    3  A    between atoms: N2_7  and  C4_9
REMARK    4  A    between atoms: C4_9  and  O2_10
REMARK    5  A    between atoms: C9_18  and  N4_19
REMARK       I    between atoms: N4_19  and  C10_21
REMARK       I    between atoms: C10_21  and  N5_22
REMARK       I    between atoms: C10_21  and  N6_26
ROOT
HETATM    1  C2  UNL     1     -19.388  71.565  65.072  1.00  0.00     0.252 A
HETATM    2  N1  UNL     1     -20.589  71.588  64.446  1.00  0.00    -0.154 N
ATOM      3  H1  UNL     1     -21.177  70.754  64.457  1.00  0.00     0.188 HD
HETATM    4  C3  UNL     1     -21.021  72.698  63.808  1.00  0.00     0.698 A
HETATM    5  N3  UNL     1     -20.211  73.762  63.826  1.00  0.00    -0.022 N
ATOM      6  H3  UNL     1     -20.520  74.611  63.350  1.00  0.00     0.203 HD
HETATM    7  C9  UNL     1     -19.004  73.775  64.440  1.00  0.00     0.698 A
HETATM    8  N7  UNL     1     -18.601  72.673  65.061  1.00  0.00    -0.154 N
ATOM      9  H7  UNL     1     -17.696  72.657  65.531  1.00  0.00     0.188 HD
ENDROOT
BRANCH   7  10
HETATM   10  N4  UNL     1     -18.257  74.822  64.432  1.00  0.00    -0.173 N
HETATM   11  C10 UNL     1     -17.891  75.499  63.212  1.00  0.00     0.494 C
HETATM   12  N5  UNL     1     -16.814  76.428  63.577  1.00  0.00    -0.032 N
HETATM   13  N6  UNL     1     -18.984  76.273  62.650  1.00  0.00    -0.032 N
ATOM     14  H53 UNL     1     -17.063  77.062  64.337  1.00  0.00     0.278 HD
ATOM     15  H52 UNL     1     -16.028  75.978  64.046  1.00  0.00     0.278 HD
ATOM     16  H51 UNL     1     -16.556  76.907  62.715  1.00  0.00     0.278 HD
ATOM     17  H63 UNL     1     -19.810  75.691  62.512  1.00  0.00     0.278 HD
ATOM     18  H62 UNL     1     -19.357  76.930  63.336  1.00  0.00     0.278 HD
ATOM     19  H61 UNL     1     -18.725  76.751  61.788  1.00  0.00     0.278 HD
ATOM     20  H4  UNL     1     -17.912  75.186  65.321  1.00  0.00     0.181 HD
ENDBRANCH   7  10
BRANCH   4  21
HETATM   21  N2  UNL     1     -22.165  72.627  63.247  1.00  0.00    -0.193 N
ATOM     22  H2  UNL     1     -22.232  71.997  62.447  1.00  0.00     0.181 HD
BRANCH  21  23
HETATM   23  C4  UNL     1     -23.363  73.317  63.598  1.00  0.00     0.147 C
HETATM   24  C5  UNL     1     -24.352  73.198  62.444  1.00  0.00     0.061 C
HETATM   25  C6  UNL     1     -25.631  72.673  63.000  1.00  0.00     0.005 C
HETATM   26  C7  UNL     1     -25.540  73.039  64.452  1.00  0.00     0.005 C
HETATM   27  C8  UNL     1     -24.089  72.689  64.767  1.00  0.00     0.061 C
BRANCH  23  28
HETATM   28  O2  UNL     1     -23.188  74.669  63.882  1.00  0.00    -0.370 OA
ATOM     29  H2  UNL     1     -22.476  74.855  64.483  1.00  0.00     0.212 HD
ENDBRANCH  23  28
ENDBRANCH  21  23
ENDBRANCH   4  21
BRANCH   1  30
HETATM   30  O1  UNL     1     -18.911  70.455  65.731  1.00  0.00    -0.326 OA
HETATM   31  C1  UNL     1     -19.662  69.745  66.688  1.00  0.00     0.213 C
ENDBRANCH   1  30
TORSDOF 5
ENDMDL