MODEL 3
REMARK VINA RESULT: -7.570799879      3.885      7.096
REMARK  2 active torsions:
REMARK  status: ('A' for Active; 'I' for Inactive)
REMARK    1  A    between atoms: N1_1  and  C1_4
REMARK    2  A    between atoms: C2_7  and  N3_8
REMARK       I    between atoms: N6_22  and  C10_23
ROOT
HETATM    1  C1  UNL     1     -16.477  71.441  71.199  1.00  0.00     0.134 A
HETATM    2  N2  UNL     1     -16.891  71.508  69.922  1.00  0.00    -0.176 N
ATOM      3  H2  UNL     1     -16.748  72.371  69.396  1.00  0.00     0.186 HD
HETATM    4  C2  UNL     1     -17.497  70.452  69.314  1.00  0.00     0.683 A
HETATM    5  N5  UNL     1     -17.695  69.306  69.993  1.00  0.00    -0.175 N
ATOM      6  H5  UNL     1     -18.151  68.521  69.528  1.00  0.00     0.186 HD
HETATM    7  C7  UNL     1     -17.304  69.179  71.272  1.00  0.00     0.154 A
HETATM    8  C8  UNL     1     -16.690  70.264  71.867  1.00  0.00     0.122 A
HETATM    9  C9  UNL     1     -16.573  69.471  73.077  1.00  0.00     0.275 A
HETATM   10  O1  UNL     1     -16.110  69.642  74.235  1.00  0.00    -0.266 OA
HETATM   11  N6  UNL     1     -17.217  68.355  72.427  1.00  0.00    -0.215 N
HETATM   12  C10 UNL     1     -17.577  67.038  72.822  1.00  0.00     0.343 C
HETATM   13  N7  UNL     1     -18.220  66.179  71.892  1.00  0.00    -0.039 NA
HETATM   14  O2  UNL     1     -17.342  66.623  73.960  1.00  0.00    -0.250 OA
ENDROOT
BRANCH   4  15
HETATM   15  N3  UNL     1     -17.914  70.583  67.961  1.00  0.00    -0.214 N
HETATM   16  C3  UNL     1     -17.667  71.777  67.194  1.00  0.00     0.168 C
HETATM   17  C4  UNL     1     -18.194  71.550  65.796  1.00  0.00     0.252 C
HETATM   18  N4  UNL     1     -19.593  71.181  65.786  1.00  0.00    -0.072 N
HETATM   19  C5  UNL     1     -19.887  70.059  66.646  1.00  0.00     0.252 C
ATOM     20  H42 UNL     1     -20.182  71.981  66.017  1.00  0.00     0.277 HD
ATOM     21  H41 UNL     1     -19.916  71.005  64.834  1.00  0.00     0.277 HD
HETATM   22  C6  UNL     1     -18.615  69.501  67.296  1.00  0.00     0.168 C
ENDBRANCH   4  15
BRANCH   1  23
HETATM   23  N1  UNL     1     -15.908  72.461  71.739  1.00  0.00    -0.384 N
ATOM     24  H12 UNL     1     -14.960  72.757  71.506  1.00  0.00     0.157 HD
ATOM     25  H11 UNL     1     -16.412  73.011  72.434  1.00  0.00     0.157 HD
ENDBRANCH   1  23
TORSDOF 2
ENDMDL