MODEL 3
REMARK VINA RESULT: -6.601698000      2.121      3.499
REMARK  4 active torsions:
REMARK  status: ('A' for Active; 'I' for Inactive)
REMARK    1  A    between atoms: O1_2  and  N1_3
REMARK    2  A    between atoms: N1_3  and  C2_5
REMARK    3  A    between atoms: C3_8  and  N3_9
REMARK       I    between atoms: N5_14  and  C4_15
REMARK       I    between atoms: C4_15  and  N6_17
REMARK    4  A    between atoms: C8_21  and  C9_22
ROOT
HETATM    1  C2  UNL     1     -19.437  73.247  63.780  1.00  0.00     0.742 A
HETATM    2  N2  UNL     1     -18.728  72.286  64.371  1.00  0.00    -0.018 N
ATOM      3  H2  UNL     1     -17.712  72.193  64.380  1.00  0.00     0.203 HD
HETATM    4  C3  UNL     1     -19.607  71.475  64.946  1.00  0.00     0.706 A
HETATM    5  N4  UNL     1     -20.852  71.944  64.703  1.00  0.00    -0.106 N
ATOM      6  H4  UNL     1     -21.715  71.511  65.030  1.00  0.00     0.207 HD
HETATM    7  N5  UNL     1     -20.785  73.046  63.981  1.00  0.00    -0.015 N
HETATM    8  C4  UNL     1     -21.823  73.877  63.493  1.00  0.00     0.360 C
HETATM    9  O2  UNL     1     -21.437  74.893  62.808  1.00  0.00    -0.244 OA
HETATM   10  N6  UNL     1     -23.207  73.690  63.687  1.00  0.00    -0.317 N
HETATM   11  C5  UNL     1     -23.925  72.690  64.383  1.00  0.00     0.129 C
HETATM   12  C6  UNL     1     -25.390  72.971  64.236  1.00  0.00     0.022 C
HETATM   13  C7  UNL     1     -25.473  73.844  63.034  1.00  0.00     0.038 C
HETATM   14  C8  UNL     1     -24.192  74.634  63.120  1.00  0.00     0.190 C
ENDROOT
BRANCH   1  15
HETATM   15  N1  UNL     1     -18.939  74.240  63.106  1.00  0.00    -0.094 N
ATOM     16  H1  UNL     1     -19.139  74.340  62.111  1.00  0.00     0.213 HD
BRANCH  15  17
HETATM   17  O1  UNL     1     -18.152  75.140  63.741  1.00  0.00    -0.271 OA
HETATM   18  C1  UNL     1     -17.347  76.096  63.082  1.00  0.00     0.238 C
ENDBRANCH  15  17
ENDBRANCH   1  15
BRANCH   4  19
HETATM   19  N3  UNL     1     -19.348  70.395  65.637  1.00  0.00    -0.233 N
ATOM     20  H32 UNL     1     -18.538  70.284  66.249  1.00  0.00     0.174 HD
ATOM     21  H31 UNL     1     -19.898  69.536  65.665  1.00  0.00     0.174 HD
ENDBRANCH   4  19
BRANCH  14  22
HETATM   22  C9  UNL     1     -24.300  75.748  64.077  1.00  0.00     0.197 C
HETATM   23  O3  UNL     1     -25.149  75.762  64.985  1.00  0.00    -0.646 OA
HETATM   24  O4  UNL     1     -23.429  76.820  63.969  1.00  0.00    -0.646 OA
ENDBRANCH  14  22
TORSDOF 4
ENDMDL