MODEL 2
REMARK VINA RESULT: -8.313651591      1.122      1.142
REMARK  5 active torsions:
REMARK  status: ('A' for Active; 'I' for Inactive)
REMARK    1  A    between atoms: C3_7  and  O2_8
REMARK    2  A    between atoms: C4_10  and  C5_11
REMARK    3  A    between atoms: N3_12  and  N4_14
REMARK    4  A    between atoms: N4_14  and  C6_16
REMARK    5  A    between atoms: C6_16  and  N5_18
ROOT
HETATM    1  N5  UNL     1     -16.569  68.844  71.789  1.00  0.00    -0.269 N
ATOM      2  H5  UNL     1     -15.605  69.142  71.942  1.00  0.00     0.180 HD
HETATM    3  C7  UNL     1     -17.068  67.798  72.575  1.00  0.00     0.184 C
HETATM    4  N6  UNL     1     -17.463  66.927  73.226  1.00  0.00    -0.172 NA
ENDROOT
BRANCH   1   5
HETATM    5  C6  UNL     1     -17.319  69.507  70.800  1.00  0.00     0.199 C
HETATM    6  S1  UNL     1     -17.813  71.024  71.064  1.00  0.00    -0.038 SA
BRANCH   5   7
HETATM    7  N4  UNL     1     -17.635  68.857  69.597  1.00  0.00    -0.276 N
ATOM      8  H4  UNL     1     -17.363  67.886  69.445  1.00  0.00     0.189 HD
BRANCH   7   9
HETATM    9  N3  UNL     1     -18.330  69.566  68.605  1.00  0.00    -0.309 N
HETATM   10  C5  UNL     1     -17.790  69.958  67.514  1.00  0.00     0.128 C
ATOM     11  H3  UNL     1     -19.315  69.778  68.763  1.00  0.00     0.186 HD
BRANCH  10  12
HETATM   12  C4  UNL     1     -18.575  70.683  66.539  1.00  0.00     0.100 A
HETATM   13  C3  UNL     1     -19.778  70.131  66.086  1.00  0.00     0.161 A
HETATM   14  N2  UNL     1     -20.490  70.813  65.186  1.00  0.00    -0.288 N
HETATM   15  C2  UNL     1     -20.072  72.003  64.718  1.00  0.00     0.331 A
ATOM     16  H2  UNL     1     -21.369  70.423  64.846  1.00  0.00     0.172 HD
HETATM   17  N1  UNL     1     -18.919  72.571  65.127  1.00  0.00    -0.270 N
HETATM   18  O1  UNL     1     -20.737  72.668  63.860  1.00  0.00    -0.246 OA
HETATM   19  C1  UNL     1     -18.494  73.858  64.601  1.00  0.00     0.164 C
HETATM   20  C8  UNL     1     -18.194  71.908  66.023  1.00  0.00     0.267 A
HETATM   21  O3  UNL     1     -17.116  72.422  66.415  1.00  0.00    -0.267 OA
BRANCH  13  22
HETATM   22  O2  UNL     1     -20.155  68.903  66.607  1.00  0.00    -0.345 OA
ATOM     23  H2  UNL     1     -21.039  68.557  66.568  1.00  0.00     0.219 HD
ENDBRANCH  13  22
ENDBRANCH  10  12
ENDBRANCH   7   9
ENDBRANCH   5   7
ENDBRANCH   1   5
TORSDOF 5
ENDMDL