MODEL 1
REMARK VINA RESULT: -6.231204252      0.000      0.000
REMARK  5 active torsions:
REMARK  status: ('A' for Active; 'I' for Inactive)
REMARK    1  A    between atoms: C2_5  and  N3_6
REMARK    2  A    between atoms: N3_6  and  O1_8
REMARK    3  A    between atoms: C4_12  and  C5_13
REMARK    4  A    between atoms: C6_14  and  C7_15
REMARK    5  A    between atoms: N5_21  and  N6_22
ROOT
HETATM    1  C1  UNL     1     -20.555  71.660  64.241  1.00  0.00     0.180 C
HETATM    2  N1  UNL     1     -21.669  72.576  64.273  1.00  0.00    -0.264 N
HETATM    3  N2  UNL     1     -22.954  72.268  64.548  1.00  0.00    -0.125 N
ATOM      4  H2  UNL     1     -23.272  71.374  64.923  1.00  0.00     0.206 HD
HETATM    5  C2  UNL     1     -23.751  73.300  64.259  1.00  0.00     0.741 A
HETATM    6  N4  UNL     1     -22.968  74.287  63.789  1.00  0.00    -0.044 N
HETATM    7  C3  UNL     1     -21.686  73.823  63.822  1.00  0.00     0.174 A
HETATM    8  C4  UNL     1     -20.490  74.563  63.497  1.00  0.00     0.012 C
HETATM    9  C8  UNL     1     -20.461  75.472  62.482  1.00  0.00     0.017 C
HETATM   10  C9  UNL     1     -21.505  75.916  61.574  1.00  0.00     0.022 C
HETATM   11  C10 UNL     1     -22.820  75.908  61.902  1.00  0.00     0.137 C
HETATM   12  N5  UNL     1     -23.438  75.472  63.144  1.00  0.00    -0.192 N
ENDROOT
BRANCH   8  13
HETATM   13  C5  UNL     1     -19.334  74.447  64.281  1.00  0.00     0.022 C
HETATM   14  C6  UNL     1     -18.147  74.905  64.358  1.00  0.00     0.085 C
BRANCH  14  15
HETATM   15  C7  UNL     1     -17.202  74.477  65.438  1.00  0.00     0.198 C
HETATM   16  O2  UNL     1     -16.376  75.299  65.895  1.00  0.00    -0.645 OA
HETATM   17  O3  UNL     1     -17.270  73.188  65.894  1.00  0.00    -0.645 OA
ENDBRANCH  14  15
ENDBRANCH   8  13
BRANCH   5  18
HETATM   18  N3  UNL     1     -25.037  73.460  64.371  1.00  0.00    -0.095 N
ATOM     19  H3  UNL     1     -25.648  73.298  63.571  1.00  0.00     0.213 HD
BRANCH  18  20
HETATM   20  O1  UNL     1     -25.562  73.849  65.574  1.00  0.00    -0.276 OA
ATOM     21  H1  UNL     1     -26.327  74.413  65.587  1.00  0.00     0.245 HD
ENDBRANCH  18  20
ENDBRANCH   5  18
BRANCH  12  22
HETATM   22  N6  UNL     1     -24.502  76.064  63.717  1.00  0.00    -0.324 N
ATOM     23  H62 UNL     1     -24.890  75.805  64.624  1.00  0.00     0.178 HD
ATOM     24  H61 UNL     1     -24.887  76.862  63.212  1.00  0.00     0.178 HD
ENDBRANCH  12  22
TORSDOF 5
ENDMDL