MODEL 2
REMARK VINA RESULT: -7.608182216      2.487      7.175
REMARK  8 active torsions:
REMARK  status: ('A' for Active; 'I' for Inactive)
REMARK    1  A    between atoms: O1_2  and  C2_3
REMARK    2  A    between atoms: C2_3  and  C3_5
REMARK    3  A    between atoms: C3_5  and  C5_7
REMARK       I    between atoms: C5_7  and  N1_9
REMARK    4  A    between atoms: N1_9  and  C6_11
REMARK    5  A    between atoms: C7_14  and  C8_15
REMARK    6  A    between atoms: C8_15  and  N3_16
REMARK    7  A    between atoms: C8_15  and  O4_20
REMARK    8  A    between atoms: C9_24  and  N5_25
ROOT
HETATM    1  C6  UNL     1     -17.235  70.291  68.620  1.00  0.00     0.701 A
HETATM    2  N2  UNL     1     -17.215  71.306  67.736  1.00  0.00    -0.175 N
ATOM      3  H2  UNL     1     -16.483  72.011  67.826  1.00  0.00     0.185 HD
HETATM    4  C7  UNL     1     -18.109  71.439  66.739  1.00  0.00     0.169 A
HETATM    5  N4  UNL     1     -19.065  70.496  66.640  1.00  0.00    -0.175 N
ATOM      6  H4  UNL     1     -19.761  70.560  65.897  1.00  0.00     0.185 HD
HETATM    7  C9  UNL     1     -19.112  69.470  67.508  1.00  0.00     0.691 A
HETATM    8  N6  UNL     1     -18.206  69.371  68.486  1.00  0.00    -0.022 N
ATOM      9  H6  UNL     1     -18.252  68.588  69.139  1.00  0.00     0.203 HD
ENDROOT
BRANCH   1  10
HETATM   10  N1  UNL     1     -16.337  70.270  69.520  1.00  0.00    -0.158 N
HETATM   11  C5  UNL     1     -16.526  70.558  70.885  1.00  0.00     0.249 C
HETATM   12  O3  UNL     1     -17.068  71.602  71.330  1.00  0.00    -0.272 OA
ATOM     13  H1  UNL     1     -15.392  70.023  69.227  1.00  0.00     0.187 HD
BRANCH  11  14
HETATM   14  C3  UNL     1     -16.053  69.563  71.881  1.00  0.00     0.174 C
HETATM   15  C4  UNL     1     -16.342  70.125  73.258  1.00  0.00     0.030 C
BRANCH  14  16
HETATM   16  C2  UNL     1     -16.671  68.248  71.679  1.00  0.00     0.271 C
HETATM   17  O2  UNL     1     -16.347  67.449  70.762  1.00  0.00    -0.264 OA
BRANCH  16  18
HETATM   18  O1  UNL     1     -17.673  67.847  72.540  1.00  0.00    -0.326 OA
HETATM   19  C1  UNL     1     -17.496  66.769  73.440  1.00  0.00     0.213 C
ENDBRANCH  16  18
ENDBRANCH  14  16
ENDBRANCH  11  14
ENDBRANCH   1  10
BRANCH   4  20
HETATM   20  C8  UNL     1     -18.037  72.595  65.780  1.00  0.00     0.386 C
BRANCH  20  21
HETATM   21  N3  UNL     1     -18.477  72.093  64.494  1.00  0.00    -0.046 N
ATOM     22  H33 UNL     1     -19.246  71.426  64.562  1.00  0.00     0.277 HD
ATOM     23  H32 UNL     1     -18.964  72.793  63.934  1.00  0.00     0.277 HD
ATOM     24  H31 UNL     1     -17.652  71.711  64.032  1.00  0.00     0.277 HD
ENDBRANCH  20  21
BRANCH  20  25
HETATM   25  O4  UNL     1     -16.686  72.982  65.737  1.00  0.00    -0.364 OA
ATOM     26  H4  UNL     1     -16.196  72.271  66.131  1.00  0.00     0.212 HD
ENDBRANCH  20  25
ENDBRANCH   4  20
BRANCH   7  27
HETATM   27  N5  UNL     1     -20.037  68.579  67.391  1.00  0.00    -0.234 N
ATOM     28  H52 UNL     1     -19.806  67.589  67.470  1.00  0.00     0.174 HD
ATOM     29  H51 UNL     1     -20.999  68.872  67.220  1.00  0.00     0.174 HD
ENDBRANCH   7  27
TORSDOF 8
ENDMDL