MODEL 5
REMARK VINA RESULT: -5.704557657      8.714     11.337
REMARK  4 active torsions:
REMARK  status: ('A' for Active; 'I' for Inactive)
REMARK    1  A    between atoms: C2_2  and  N1_3
REMARK    2  A    between atoms: C2_2  and  C3_7
REMARK    3  A    between atoms: C3_7  and  O1_8
REMARK    4  A    between atoms: O1_8  and  C4_9
REMARK       I    between atoms: C4_9  and  N2_11
ROOT
HETATM    1  C4  UNL     1     -24.390  74.127  62.257  1.00  0.00     0.364 C
HETATM    2  O2  UNL     1     -23.676  73.162  61.884  1.00  0.00    -0.238 OA
HETATM    3  N2  UNL     1     -24.074  75.473  61.866  1.00  0.00    -0.305 N
HETATM    4  C5  UNL     1     -24.925  76.513  62.325  1.00  0.00     0.132 C
HETATM    5  C6  UNL     1     -24.309  77.755  62.809  1.00  0.00     0.046 C
HETATM    6  C7  UNL     1     -22.870  77.746  63.151  1.00  0.00     0.096 C
HETATM    7  C8  UNL     1     -22.064  78.762  62.340  1.00  0.00     0.147 C
HETATM    8  N3  UNL     1     -22.402  78.773  60.954  1.00  0.00    -0.363 N
ATOM      9  H3  UNL     1     -22.246  79.696  60.551  1.00  0.00     0.162 HD
HETATM   10  C9  UNL     1     -22.899  77.859  59.961  1.00  0.00     0.185 C
HETATM   11  N4  UNL     1     -23.228  78.463  58.723  1.00  0.00    -0.064 NA
HETATM   12  N5  UNL     1     -23.086  76.584  60.027  1.00  0.00    -0.342 N
ATOM     13  H5  UNL     1     -23.452  76.202  59.154  1.00  0.00     0.164 HD
HETATM   14  C10 UNL     1     -22.903  75.561  61.039  1.00  0.00     0.208 C
HETATM   15  C11 UNL     1     -21.749  75.965  61.968  1.00  0.00     0.161 C
HETATM   16  N6  UNL     1     -22.239  76.465  63.201  1.00  0.00    -0.412 N
ATOM     17  H6  UNL     1     -22.147  75.942  64.072  1.00  0.00     0.153 HD
ENDROOT
BRANCH   1  18
HETATM   18  O1  UNL     1     -25.486  73.842  63.057  1.00  0.00    -0.302 OA
BRANCH  18  19
HETATM   19  C3  UNL     1     -25.447  72.700  63.888  1.00  0.00     0.213 C
BRANCH  19  20
HETATM   20  C2  UNL     1     -24.946  73.062  65.270  1.00  0.00     0.203 C
HETATM   21  C1  UNL     1     -25.094  71.841  66.147  1.00  0.00     0.042 C
BRANCH  20  22
HETATM   22  N1  UNL     1     -25.835  74.119  65.766  1.00  0.00    -0.073 N
ATOM     23  H13 UNL     1     -25.717  74.288  66.765  1.00  0.00     0.274 HD
ATOM     24  H12 UNL     1     -25.565  75.043  65.431  1.00  0.00     0.274 HD
ATOM     25  H11 UNL     1     -26.798  73.884  65.523  1.00  0.00     0.274 HD
ENDBRANCH  20  22
ENDBRANCH  19  20
ENDBRANCH  18  19
ENDBRANCH   1  18
TORSDOF 4
ENDMDL