MODEL 1
REMARK VINA RESULT: -6.816192388      0.000      0.000
REMARK  7 active torsions:
REMARK  status: ('A' for Active; 'I' for Inactive)
REMARK    1  A    between atoms: N1_2  and  C2_4
REMARK    2  A    between atoms: C3_7  and  N3_8
REMARK    3  A    between atoms: N3_8  and  N4_10
REMARK    4  A    between atoms: C7_19  and  N7_20
REMARK    5  A    between atoms: N8_23  and  C8_24
REMARK    6  A    between atoms: C8_24  and  C9_25
REMARK    7  A    between atoms: C9_25  and  O1_27
ROOT
HETATM    1  C2  UNL     1     -19.760  74.430  63.307  1.00  0.00     0.148 A
HETATM    2  N2  UNL     1     -19.158  73.370  63.873  1.00  0.00    -0.173 N
ATOM      3  H2  UNL     1     -18.141  73.355  63.940  1.00  0.00     0.186 HD
HETATM    4  C3  UNL     1     -19.863  72.323  64.356  1.00  0.00     0.699 A
HETATM    5  N5  UNL     1     -21.215  72.316  64.280  1.00  0.00    -0.172 N
ATOM      6  H5  UNL     1     -21.731  71.517  64.650  1.00  0.00     0.186 HD
HETATM    7  C4  UNL     1     -21.895  73.338  63.728  1.00  0.00     0.170 A
HETATM    8  C5  UNL     1     -21.139  74.394  63.244  1.00  0.00     0.140 A
HETATM    9  N6  UNL     1     -22.005  75.284  62.744  1.00  0.00    -0.180 N
HETATM   10  C6  UNL     1     -21.625  76.558  62.126  1.00  0.00     0.176 C
HETATM   11  C7  UNL     1     -23.228  74.801  62.913  1.00  0.00     0.682 A
HETATM   12  N8  UNL     1     -23.194  73.598  63.519  1.00  0.00    -0.163 N
ENDROOT
BRANCH   4  13
HETATM   13  N3  UNL     1     -19.298  71.299  64.901  1.00  0.00    -0.138 N
ATOM     14  H3  UNL     1     -18.286  71.176  64.865  1.00  0.00     0.205 HD
BRANCH  13  15
HETATM   15  N4  UNL     1     -20.113  70.362  65.543  1.00  0.00    -0.331 N
ATOM     16  H42 UNL     1     -20.810  70.671  66.220  1.00  0.00     0.177 HD
ATOM     17  H41 UNL     1     -19.984  69.377  65.312  1.00  0.00     0.177 HD
ENDBRANCH  13  15
ENDBRANCH   4  13
BRANCH   1  18
HETATM   18  N1  UNL     1     -19.100  75.417  62.851  1.00  0.00    -0.378 N
HETATM   19  C1  UNL     1     -17.738  75.701  63.246  1.00  0.00     0.147 C
ATOM     20  H1  UNL     1     -19.551  76.036  62.178  1.00  0.00     0.160 HD
ENDBRANCH   1  18
BRANCH  12  21
HETATM   21  C8  UNL     1     -24.321  72.785  63.870  1.00  0.00     0.180 C
BRANCH  21  22
HETATM   22  C9  UNL     1     -24.992  73.124  65.151  1.00  0.00     0.133 C
HETATM   23  C10 UNL     1     -25.242  71.955  66.071  1.00  0.00     0.041 C
BRANCH  22  24
HETATM   24  O1  UNL     1     -26.277  73.617  64.809  1.00  0.00    -0.394 OA
ATOM     25  H1  UNL     1     -26.676  73.906  65.621  1.00  0.00     0.210 HD
ENDBRANCH  22  24
ENDBRANCH  21  22
ENDBRANCH  12  21
BRANCH  11  26
HETATM   26  N7  UNL     1     -24.323  75.370  62.560  1.00  0.00    -0.234 N
ATOM     27  H72 UNL     1     -24.544  76.337  62.800  1.00  0.00     0.174 HD
ATOM     28  H71 UNL     1     -25.075  74.945  62.019  1.00  0.00     0.174 HD
ENDBRANCH  11  26
TORSDOF 7
ENDMDL