MODEL 5
REMARK VINA RESULT: -4.431896530      2.151      4.056
REMARK  2 active torsions:
REMARK  status: ('A' for Active; 'I' for Inactive)
REMARK    1  A    between atoms: N1_2  and  N2_4
REMARK    2  A    between atoms: C2_6  and  N3_7
ROOT
HETATM    1  N2  UNL     1     183.270   6.814  60.661  1.00  0.00    -0.300 N
ATOM      2  H2  UNL     1     182.315   6.458  60.665  1.00  0.00     0.187 HD
HETATM    3  C2  UNL     1     183.829   7.168  61.769  1.00  0.00     0.212 C
ENDROOT
BRANCH   3   4
HETATM    4  N3  UNL     1     183.167   7.086  63.023  1.00  0.00    -0.301 N
HETATM    5  N4  UNL     1     183.773   6.810  64.091  1.00  0.00    -0.344 N
ATOM      6  H42 UNL     1     184.778   6.641  64.036  1.00  0.00     0.176 HD
ATOM      7  H41 UNL     1     183.297   6.751  64.992  1.00  0.00     0.176 HD
ATOM      8  H3  UNL     1     182.162   7.258  63.059  1.00  0.00     0.187 HD
ENDBRANCH   3   4
BRANCH   1   9
HETATM    9  N1  UNL     1     183.968   6.917  59.458  1.00  0.00    -0.340 N
HETATM   10  C1  UNL     1     183.954   5.857  58.472  1.00  0.00     0.167 C
ATOM     11  H1  UNL     1     184.504   7.763  59.267  1.00  0.00     0.179 HD
ENDBRANCH   1   9
TORSDOF 2
ENDMDL