MODEL 3
REMARK VINA RESULT: -4.801630951      1.330      3.681
REMARK  3 active torsions:
REMARK  status: ('A' for Active; 'I' for Inactive)
REMARK    1  A    between atoms: N1_2  and  C2_4
REMARK    2  A    between atoms: N2_5  and  C3_7
REMARK    3  A    between atoms: C3_7  and  N3_9
ROOT
HETATM    1  C2  UNL     1     184.434   7.618  63.690  1.00  0.00     0.176 C
HETATM    2  N2  UNL     1     183.352   8.130  63.229  1.00  0.00    -0.359 N
ATOM      3  H2  UNL     1     182.736   8.668  63.838  1.00  0.00     0.162 HD
ENDROOT
BRANCH   2   4
HETATM    4  C3  UNL     1     183.016   7.935  61.838  1.00  0.00     0.278 C
HETATM    5  C4  UNL     1     184.066   7.137  61.115  1.00  0.00     0.063 C
BRANCH   4   6
HETATM    6  N3  UNL     1     181.751   7.224  61.782  1.00  0.00    -0.059 N
ATOM      7  H33 UNL     1     181.861   6.214  61.875  1.00  0.00     0.276 HD
ATOM      8  H32 UNL     1     181.175   7.375  62.610  1.00  0.00     0.276 HD
ATOM      9  H31 UNL     1     181.280   7.492  60.918  1.00  0.00     0.276 HD
ENDBRANCH   4   6
ENDBRANCH   2   4
BRANCH   1  10
HETATM   10  N1  UNL     1     184.796   7.794  65.070  1.00  0.00    -0.372 N
HETATM   11  C1  UNL     1     186.023   7.683  65.414  1.00  0.00     0.118 C
ATOM     12  H1  UNL     1     184.082   8.005  65.767  1.00  0.00     0.165 HD
ENDBRANCH   1  10
TORSDOF 3
ENDMDL