MODEL 2
REMARK VINA RESULT: -3.853321620      1.613      2.751
REMARK  2 active torsions:
REMARK  status: ('A' for Active; 'I' for Inactive)
REMARK    1  A    between atoms: C4_5  and  N2_6
REMARK    2  A    between atoms: N2_6  and  C5_8
ROOT
HETATM    1  N2  UNL     1     183.834   6.789  61.999  1.00  0.00    -0.357 N
ATOM      2  H2  UNL     1     183.232   6.070  62.401  1.00  0.00     0.162 HD
ENDROOT
BRANCH   1   3
HETATM    3  C4  UNL     1     184.420   7.789  62.848  1.00  0.00     0.315 A
HETATM    4  N1  UNL     1     184.512   7.398  64.243  1.00  0.00    -0.049 N
HETATM    5  C1  UNL     1     185.688   7.729  64.999  1.00  0.00     0.274 C
HETATM    6  C2  UNL     1     183.747   6.228  64.661  1.00  0.00     0.274 C
HETATM    7  C3  UNL     1     183.661   8.567  63.803  1.00  0.00     0.293 A
ENDBRANCH   1   3
BRANCH   1   8
HETATM    8  C5  UNL     1     184.087   6.800  60.614  1.00  0.00     0.170 C
HETATM    9  N3  UNL     1     183.210   6.451  59.731  1.00  0.00    -0.395 N
ATOM     10  H32 UNL     1     182.295   6.156  60.071  1.00  0.00     0.156 HD
ATOM     11  H31 UNL     1     183.394   6.459  58.728  1.00  0.00     0.156 HD
ENDBRANCH   1   8
TORSDOF 2
ENDMDL