MODEL 3
REMARK VINA RESULT: -5.065340229      1.369      1.982
REMARK  3 active torsions:
REMARK  status: ('A' for Active; 'I' for Inactive)
REMARK    1  A    between atoms: C2_2  and  C3_3
REMARK    2  A    between atoms: C3_3  and  C4_4
REMARK    3  A    between atoms: N1_5  and  N2_7
ROOT
HETATM    1  C4  UNL     1     184.125   7.957  63.933  1.00  0.00     0.162 C
HETATM    2  N1  UNL     1     182.922   7.461  63.584  1.00  0.00    -0.309 N
ATOM      3  H1  UNL     1     182.135   7.375  64.226  1.00  0.00     0.186 HD
ENDROOT
BRANCH   2   4
HETATM    4  N2  UNL     1     182.879   7.091  62.291  1.00  0.00    -0.341 N
HETATM    5  C5  UNL     1     183.955   7.276  61.325  1.00  0.00     0.167 C
ATOM      6  H2  UNL     1     182.023   6.645  61.959  1.00  0.00     0.179 HD
ENDBRANCH   2   4
BRANCH   1   7
HETATM    7  C3  UNL     1     185.094   7.639  64.658  1.00  0.00    -0.111 C
BRANCH   7   8
HETATM    8  C2  UNL     1     186.093   7.312  65.405  1.00  0.00     0.047 C
HETATM    9  C1  UNL     1     186.643   8.236  66.270  1.00  0.00     0.020 C
ENDBRANCH   7   8
ENDBRANCH   1   7
TORSDOF 3
ENDMDL