MODEL 5
REMARK VINA RESULT: -4.605673809      1.500      3.922
REMARK  4 active torsions:
REMARK  status: ('A' for Active; 'I' for Inactive)
REMARK    1  A    between atoms: N1_2  and  N2_4
REMARK    2  A    between atoms: C2_6  and  C3_7
REMARK    3  A    between atoms: C3_7  and  N3_8
REMARK    4  A    between atoms: N3_8  and  N4_10
ROOT
HETATM    1  N2  UNL     1     182.882   7.624  61.637  1.00  0.00    -0.315 N
ATOM      2  H2  UNL     1     182.114   8.076  61.140  1.00  0.00     0.185 HD
HETATM    3  C2  UNL     1     183.037   7.857  62.896  1.00  0.00     0.125 C
ENDROOT
BRANCH   3   4
HETATM    4  C3  UNL     1     184.134   7.222  63.651  1.00  0.00     0.125 C
BRANCH   4   5
HETATM    5  N3  UNL     1     184.705   7.827  64.600  1.00  0.00    -0.317 N
ATOM      6  H3  UNL     1     183.992   8.475  64.935  1.00  0.00     0.185 HD
BRANCH   5   7
HETATM    7  N4  UNL     1     185.681   8.053  65.347  1.00  0.00    -0.345 N
ATOM      8  H42 UNL     1     186.438   7.614  64.823  1.00  0.00     0.176 HD
ATOM      9  H41 UNL     1     186.108   8.438  66.190  1.00  0.00     0.176 HD
ENDBRANCH   5   7
ENDBRANCH   4   5
ENDBRANCH   3   4
BRANCH   1  10
HETATM   10  N1  UNL     1     183.729   6.777  60.939  1.00  0.00    -0.341 N
HETATM   11  C1  UNL     1     184.750   7.296  60.069  1.00  0.00     0.167 C
ATOM     12  H1  UNL     1     183.627   5.767  61.043  1.00  0.00     0.179 HD
ENDBRANCH   1  10
TORSDOF 4
ENDMDL