MODEL 4
REMARK VINA RESULT: -4.357509378      1.408      2.883
REMARK  2 active torsions:
REMARK  status: ('A' for Active; 'I' for Inactive)
REMARK    1  A    between atoms: N1_2  and  N2_3
REMARK    2  A    between atoms: N1_2  and  N3_6
ROOT
HETATM    1  C1  UNL     1     185.122   7.542  60.114  1.00  0.00     0.172 C
HETATM    2  N1  UNL     1     184.065   6.937  60.500  1.00  0.00    -0.209 N
ENDROOT
BRANCH   2   3
HETATM    3  N2  UNL     1     183.188   6.345  59.568  1.00  0.00    -0.320 N
HETATM    4  C2  UNL     1     183.648   5.788  58.330  1.00  0.00     0.169 C
ATOM      5  H2  UNL     1     182.192   6.312  59.783  1.00  0.00     0.181 HD
ENDBRANCH   2   3
BRANCH   2   6
HETATM    6  N3  UNL     1     183.693   6.812  61.844  1.00  0.00    -0.230 N
HETATM    7  N4  UNL     1     182.558   7.158  62.276  1.00  0.00    -0.329 N
ATOM      8  H42 UNL     1     181.894   7.544  61.603  1.00  0.00     0.178 HD
ATOM      9  H41 UNL     1     182.286   7.067  63.255  1.00  0.00     0.178 HD
ATOM     10  H3  UNL     1     184.368   6.424  62.503  1.00  0.00     0.210 HD
ENDBRANCH   2   6
TORSDOF 2
ENDMDL