MODEL 5
REMARK VINA RESULT: -4.400740025      3.749      4.365
REMARK  2 active torsions:
REMARK  status: ('A' for Active; 'I' for Inactive)
REMARK    1  A    between atoms: C3_3  and  N1_4
REMARK    2  A    between atoms: N1_4  and  C4_6
ROOT
HETATM    1  N1  UNL     1     184.852   8.209  65.024  1.00  0.00    -0.345 N
ATOM      2  H1  UNL     1     184.489   9.004  65.549  1.00  0.00     0.167 HD
ENDROOT
BRANCH   1   3
HETATM    3  C3  UNL     1     184.191   7.598  63.946  1.00  0.00     0.086 C
HETATM    4  C2  UNL     1     183.336   8.222  63.157  1.00  0.00    -0.014 C
HETATM    5  C1  UNL     1     182.671   7.524  62.038  1.00  0.00     0.037 C
ENDBRANCH   1   3
BRANCH   1   6
HETATM    6  C4  UNL     1     186.089   7.570  65.281  1.00  0.00     0.352 C
HETATM    7  O1  UNL     1     186.729   7.919  66.251  1.00  0.00    -0.283 OA
ENDBRANCH   1   6
TORSDOF 2
ENDMDL