MODEL 1
REMARK VINA RESULT: -5.164916246      0.000      0.000
REMARK  2 active torsions:
REMARK  status: ('A' for Active; 'I' for Inactive)
REMARK    1  A    between atoms: N1_2  and  N2_4
REMARK    2  A    between atoms: C2_6  and  N3_7
ROOT
HETATM    1  N2  UNL     1     183.438   6.771  62.300  1.00  0.00    -0.299 N
ATOM      2  H2  UNL     1     182.859   6.093  62.795  1.00  0.00     0.187 HD
HETATM    3  C2  UNL     1     184.206   7.560  62.953  1.00  0.00     0.215 C
ENDROOT
BRANCH   3   4
HETATM    4  N3  UNL     1     184.313   7.557  64.365  1.00  0.00    -0.297 N
HETATM    5  C3  UNL     1     185.614   7.631  64.960  1.00  0.00     0.178 C
HETATM    6  N4  UNL     1     183.294   7.491  65.087  1.00  0.00    -0.342 N
ATOM      7  H42 UNL     1     182.368   7.437  64.662  1.00  0.00     0.177 HD
ATOM      8  H41 UNL     1     183.371   7.488  66.104  1.00  0.00     0.177 HD
ENDBRANCH   3   4
BRANCH   1   9
HETATM    9  N1  UNL     1     183.398   6.846  60.915  1.00  0.00    -0.340 N
HETATM   10  C1  UNL     1     184.609   6.909  60.097  1.00  0.00     0.167 C
ATOM     11  H1  UNL     1     182.491   6.857  60.450  1.00  0.00     0.179 HD
ENDBRANCH   1   9
TORSDOF 2
ENDMDL