MODEL 5
REMARK VINA RESULT: -4.658091452      2.396      3.295
REMARK  3 active torsions:
REMARK  status: ('A' for Active; 'I' for Inactive)
REMARK    1  A    between atoms: N1_2  and  N2_3
REMARK    2  A    between atoms: N2_3  and  C2_5
REMARK    3  A    between atoms: C3_6  and  C4_7
ROOT
HETATM    1  C2  UNL     1     184.266   7.262  64.843  1.00  0.00     0.104 C
HETATM    2  C3  UNL     1     185.472   7.804  64.845  1.00  0.00     0.034 C
ENDROOT
BRANCH   1   3
HETATM    3  N2  UNL     1     183.326   7.494  63.813  1.00  0.00    -0.316 N
ATOM      4  H2  UNL     1     182.569   8.172  63.896  1.00  0.00     0.181 HD
BRANCH   3   5
HETATM    5  N1  UNL     1     183.522   6.724  62.688  1.00  0.00    -0.146 NA
HETATM    6  C1  UNL     1     183.965   7.498  61.540  1.00  0.00     0.159 C
ENDBRANCH   3   5
ENDBRANCH   1   3
BRANCH   2   7
HETATM    7  C4  UNL     1     186.445   7.576  65.894  1.00  0.00     0.082 C
HETATM    8  N3  UNL     1     186.820   8.520  66.688  1.00  0.00    -0.408 N
ATOM      9  H32 UNL     1     186.411   9.445  66.561  1.00  0.00     0.155 HD
ATOM     10  H31 UNL     1     187.505   8.359  67.427  1.00  0.00     0.155 HD
ENDBRANCH   2   7
TORSDOF 3
ENDMDL