MODEL 5
REMARK VINA RESULT: -5.042314801      1.603      2.043
REMARK  2 active torsions:
REMARK  status: ('A' for Active; 'I' for Inactive)
REMARK    1  A    between atoms: C2_2  and  N1_3
REMARK    2  A    between atoms: N1_3  and  N2_5
ROOT
HETATM    1  N2  UNL     1     184.337   7.000  61.237  1.00  0.00    -0.288 N
ATOM      2  H2  UNL     1     185.153   7.508  61.577  1.00  0.00     0.188 HD
HETATM    3  C3  UNL     1     184.344   6.635  60.025  1.00  0.00     0.110 A
HETATM    4  C4  UNL     1     183.815   6.005  58.814  1.00  0.00     0.198 A
HETATM    5  N3  UNL     1     185.136   6.648  58.768  1.00  0.00    -0.370 N
ATOM      6  H3  UNL     1     185.977   6.909  58.252  1.00  0.00     0.161 HD
ENDROOT
BRANCH   1   7
HETATM    7  N1  UNL     1     183.319   6.766  62.131  1.00  0.00    -0.311 N
ATOM      8  H1  UNL     1     182.765   5.911  62.154  1.00  0.00     0.186 HD
BRANCH   7   9
HETATM    9  C2  UNL     1     183.132   7.862  63.022  1.00  0.00     0.097 C
HETATM   10  C1  UNL     1     183.885   7.947  64.111  1.00  0.00     0.031 C
ENDBRANCH   7   9
ENDBRANCH   1   7
TORSDOF 2
ENDMDL