MODEL 4
REMARK VINA RESULT: -8.053120160      2.177      6.344
REMARK  20 active torsions:
REMARK  status: ('A' for Active; 'I' for Inactive)
REMARK    1  A    between atoms: S1_2  and  N1_3
REMARK    2  A    between atoms: S1_2  and  C2_6
REMARK    3  A    between atoms: C2_6  and  C3_7
REMARK    4  A    between atoms: C3_7  and  C4_8
REMARK    5  A    between atoms: C4_8  and  C5_9
REMARK       I    between atoms: C5_9  and  N2_11
REMARK    6  A    between atoms: N2_11  and  C6_13
REMARK    7  A    between atoms: C6_13  and  C7_14
REMARK    8  A    between atoms: C7_14  and  C8_15
REMARK       I    between atoms: C8_15  and  N3_17
REMARK    9  A    between atoms: N3_17  and  C9_19
REMARK   10  A    between atoms: N4_21  and  C11_22
REMARK   11  A    between atoms: C11_22  and  C12_23
REMARK   12  A    between atoms: C12_23  and  C13_24
REMARK   13  A    between atoms: C13_24  and  N5_25
REMARK   14  A    between atoms: N5_25  and  C14_28
REMARK   15  A    between atoms: C14_28  and  C15_29
REMARK   16  A    between atoms: C15_29  and  C16_30
REMARK   17  A    between atoms: C16_30  and  N6_31
REMARK       I    between atoms: N6_31  and  C17_33
REMARK   18  A    between atoms: C19_40  and  N9_41
REMARK       I    between atoms: N9_41  and  C20_43
REMARK   19  A    between atoms: C20_43  and  C21_45
REMARK   20  A    between atoms: C21_45  and  C22_46
ROOT
HETATM    1  C9  UNL     1      42.125  20.104  66.803  1.00  0.00     0.134 C
HETATM    2  C10 UNL     1      42.092  18.779  65.982  1.00  0.00     0.153 C
HETATM    3  N4  UNL     1      41.963  19.292  64.621  1.00  0.00    -0.348 N
HETATM    4  C18 UNL     1      42.385  20.647  64.562  1.00  0.00     0.244 C
HETATM    5  O3  UNL     1      42.272  21.440  63.593  1.00  0.00    -0.271 OA
HETATM    6  C19 UNL     1      42.997  20.919  65.926  1.00  0.00     0.201 C
ENDROOT
BRANCH   1   7
HETATM    7  N3  UNL     1      40.774  20.624  66.893  1.00  0.00    -0.352 N
HETATM    8  C8  UNL     1      39.792  20.035  67.712  1.00  0.00     0.219 C
HETATM    9  O2  UNL     1      40.072  19.020  68.394  1.00  0.00    -0.274 OA
ATOM     10  H3  UNL     1      40.526  21.447  66.344  1.00  0.00     0.163 HD
BRANCH   8  11
HETATM   11  C7  UNL     1      38.437  20.605  67.768  1.00  0.00     0.122 C
BRANCH  11  12
HETATM   12  C6  UNL     1      37.364  19.759  67.176  1.00  0.00     0.132 C
BRANCH  12  13
HETATM   13  N2  UNL     1      37.548  18.357  67.170  1.00  0.00    -0.361 N
HETATM   14  C5  UNL     1      36.635  17.355  66.817  1.00  0.00     0.217 C
HETATM   15  O1  UNL     1      35.476  17.654  66.454  1.00  0.00    -0.274 OA
ATOM     16  H2  UNL     1      38.470  18.031  67.461  1.00  0.00     0.162 HD
BRANCH  14  17
HETATM   17  C4  UNL     1      37.007  15.900  66.857  1.00  0.00     0.103 C
BRANCH  17  18
HETATM   18  C3  UNL     1      38.056  15.573  65.863  1.00  0.00     0.020 C
BRANCH  18  19
HETATM   19  C2  UNL     1      37.644  15.444  64.442  1.00  0.00     0.084 C
BRANCH  19  20
HETATM   20  S1  UNL     1      38.981  15.504  63.299  1.00  0.00    -0.139 SA
HETATM   21  C1  UNL     1      38.510  16.529  61.877  1.00  0.00     0.101 C
BRANCH  20  22
HETATM   22  N1  UNL     1      39.307  13.911  62.657  1.00  0.00    -0.383 NA
ATOM     23  H12 UNL     1      39.708  13.980  61.721  1.00  0.00     0.163 HD
ATOM     24  H11 UNL     1      39.991  13.490  63.286  1.00  0.00     0.163 HD
ENDBRANCH  20  22
ENDBRANCH  19  20
ENDBRANCH  18  19
ENDBRANCH  17  18
ENDBRANCH  14  17
ENDBRANCH  12  13
ENDBRANCH  11  12
ENDBRANCH   8  11
ENDBRANCH   1   7
BRANCH   6  25
HETATM   25  N9  UNL     1      43.049  22.320  66.182  1.00  0.00    -0.345 N
HETATM   26  C20 UNL     1      44.211  23.053  65.825  1.00  0.00     0.222 C
HETATM   27  O4  UNL     1      45.197  22.484  65.293  1.00  0.00    -0.273 OA
ATOM     28  H9  UNL     1      42.257  22.793  66.618  1.00  0.00     0.163 HD
BRANCH  26  29
HETATM   29  C21 UNL     1      44.326  24.519  66.056  1.00  0.00     0.141 C
BRANCH  29  30
HETATM   30  C22 UNL     1      45.590  24.890  66.724  1.00  0.00    -0.050 A
HETATM   31  C23 UNL     1      46.542  25.732  66.199  1.00  0.00     0.007 A
HETATM   32  C24 UNL     1      47.707  26.048  66.877  1.00  0.00     0.001 A
HETATM   33  C25 UNL     1      47.939  25.515  68.115  1.00  0.00     0.000 A
HETATM   34  C26 UNL     1      46.996  24.657  68.681  1.00  0.00     0.001 A
HETATM   35  C27 UNL     1      45.854  24.367  67.979  1.00  0.00     0.007 A
ENDBRANCH  29  30
ENDBRANCH  26  29
ENDBRANCH   6  25
BRANCH   3  36
HETATM   36  C11 UNL     1      41.471  18.524  63.490  1.00  0.00     0.127 C
BRANCH  36  37
HETATM   37  C12 UNL     1      42.589  17.711  62.895  1.00  0.00     0.047 C
BRANCH  37  38
HETATM   38  C13 UNL     1      43.639  18.587  62.243  1.00  0.00     0.234 C
BRANCH  38  39
HETATM   39  N5  UNL     1      44.820  18.713  63.036  1.00  0.00    -0.075 N
ATOM     40  H52 UNL     1      44.617  18.711  64.036  1.00  0.00     0.277 HD
ATOM     41  H51 UNL     1      45.399  17.873  63.005  1.00  0.00     0.277 HD
BRANCH  39  42
HETATM   42  C14 UNL     1      45.547  19.895  62.627  1.00  0.00     0.234 C
BRANCH  42  43
HETATM   43  C15 UNL     1      44.902  20.581  61.462  1.00  0.00     0.047 C
BRANCH  43  44
HETATM   44  C16 UNL     1      45.717  21.839  61.141  1.00  0.00     0.124 C
BRANCH  44  45
HETATM   45  N6  UNL     1      46.051  22.462  62.388  1.00  0.00    -0.365 N
HETATM   46  C17 UNL     1      47.412  22.761  62.671  1.00  0.00     0.181 C
HETATM   47  N7  UNL     1      47.728  23.519  63.661  1.00  0.00    -0.374 N
HETATM   48  N8  UNL     1      48.502  22.263  61.898  1.00  0.00    -0.064 NA
ATOM     49  H72 UNL     1      46.948  23.876  64.214  1.00  0.00     0.158 HD
ATOM     50  H71 UNL     1      48.704  23.734  63.864  1.00  0.00     0.158 HD
ATOM     51  H6  UNL     1      45.322  22.688  63.064  1.00  0.00     0.162 HD
ENDBRANCH  44  45
ENDBRANCH  43  44
ENDBRANCH  42  43
ENDBRANCH  39  42
ENDBRANCH  38  39
ENDBRANCH  37  38
ENDBRANCH  36  37
ENDBRANCH   3  36
TORSDOF 20
ENDMDL