MODEL 1
REMARK VINA RESULT: -8.077596373      0.000      0.000
REMARK  20 active torsions:
REMARK  status: ('A' for Active; 'I' for Inactive)
REMARK       I    between atoms: C2_4  and  N2_5
REMARK       I    between atoms: C2_4  and  N4_9
REMARK       I    between atoms: N4_9  and  C4_11
REMARK       I    between atoms: N6_13  and  C5_15
REMARK    1  A    between atoms: N8_17  and  C6_19
REMARK    2  A    between atoms: C6_19  and  C7_20
REMARK    3  A    between atoms: C7_20  and  C8_21
REMARK    4  A    between atoms: C8_21  and  N9_22
REMARK       I    between atoms: N9_22  and  C9_24
REMARK    5  A    between atoms: C9_24  and  C10_26
REMARK    6  A    between atoms: C10_26  and  C11_27
REMARK    7  A    between atoms: C10_26  and  O2_46
REMARK    8  A    between atoms: C11_27  and  C12_28
REMARK    9  A    between atoms: N10_31  and  C15_32
REMARK   10  A    between atoms: C15_32  and  C16_33
REMARK   11  A    between atoms: C16_33  and  C17_34
REMARK   12  A    between atoms: C17_34  and  C18_35
REMARK   13  A    between atoms: C18_35  and  C19_36
REMARK   14  A    between atoms: C19_36  and  C20_37
REMARK   15  A    between atoms: C20_37  and  C21_38
REMARK   16  A    between atoms: C21_38  and  C22_39
REMARK   17  A    between atoms: C22_39  and  N11_40
REMARK   18  A    between atoms: O2_46  and  C25_47
REMARK   19  A    between atoms: C25_47  and  C26_48
REMARK   20  A    between atoms: C26_48  and  N12_49
REMARK       I    between atoms: N12_49  and  C27_51
ROOT
HETATM    1  C1  UNL     1      38.890  14.055  61.182  1.00  0.00     0.165 C
HETATM    2  N1  UNL     1      37.995  14.039  62.323  1.00  0.00    -0.230 N
ATOM      3  H1  UNL     1      37.909  13.184  62.873  1.00  0.00     0.177 HD
HETATM    4  C2  UNL     1      37.300  15.080  62.663  1.00  0.00     0.689 C
HETATM    5  N2  UNL     1      37.362  16.302  61.954  1.00  0.00    -0.126 N
ATOM      6  H2  UNL     1      36.554  16.616  61.416  1.00  0.00     0.197 HD
HETATM    7  C3  UNL     1      38.520  17.082  61.985  1.00  0.00     0.196 C
HETATM    8  N3  UNL     1      39.469  17.729  62.000  1.00  0.00    -0.171 NA
HETATM    9  N4  UNL     1      36.439  14.998  63.793  1.00  0.00    -0.163 N
ATOM     10  H4  UNL     1      36.545  14.233  64.458  1.00  0.00     0.187 HD
HETATM   11  C4  UNL     1      35.438  15.974  63.995  1.00  0.00     0.209 C
HETATM   12  N5  UNL     1      34.371  16.093  63.087  1.00  0.00    -0.063 NA
HETATM   13  N6  UNL     1      35.505  16.751  65.007  1.00  0.00    -0.304 N
ATOM     14  H6  UNL     1      34.775  17.451  65.141  1.00  0.00     0.171 HD
HETATM   15  C5  UNL     1      36.563  16.671  65.952  1.00  0.00     0.190 C
HETATM   16  N7  UNL     1      37.594  17.646  65.898  1.00  0.00    -0.063 NA
HETATM   17  N8  UNL     1      36.581  15.722  66.846  1.00  0.00    -0.364 N
ATOM     18  H8  UNL     1      35.822  15.041  66.849  1.00  0.00     0.162 HD
ENDROOT
BRANCH  17  19
HETATM   19  C6  UNL     1      37.618  15.594  67.821  1.00  0.00     0.124 C
BRANCH  19  20
HETATM   20  C7  UNL     1      37.489  16.717  68.858  1.00  0.00     0.039 C
BRANCH  20  21
HETATM   21  C8  UNL     1      38.879  17.151  69.224  1.00  0.00     0.124 C
BRANCH  21  22
HETATM   22  N9  UNL     1      39.730  17.444  68.116  1.00  0.00    -0.359 N
HETATM   23  C9  UNL     1      40.196  18.727  67.768  1.00  0.00     0.246 C
HETATM   24  O1  UNL     1      39.875  19.759  68.452  1.00  0.00    -0.271 OA
ATOM     25  H9  UNL     1      40.023  16.662  67.530  1.00  0.00     0.162 HD
BRANCH  23  26
HETATM   26  C10 UNL     1      41.078  18.975  66.601  1.00  0.00     0.217 C
BRANCH  26  27
HETATM   27  C11 UNL     1      41.023  20.460  66.307  1.00  0.00     0.080 C
BRANCH  27  28
HETATM   28  C12 UNL     1      42.428  21.000  66.166  1.00  0.00    -0.053 A
HETATM   29  C13 UNL     1      42.689  22.165  65.513  1.00  0.00     0.024 A
HETATM   30  C14 UNL     1      43.982  22.614  65.408  1.00  0.00     0.091 A
HETATM   31  N10 UNL     1      45.022  21.942  65.932  1.00  0.00    -0.366 N
HETATM   32  C23 UNL     1      44.745  20.793  66.573  1.00  0.00     0.091 A
HETATM   33  C24 UNL     1      43.473  20.291  66.712  1.00  0.00     0.024 A
BRANCH  31  34
HETATM   34  C15 UNL     1      46.403  22.403  65.837  1.00  0.00     0.128 C
BRANCH  34  35
HETATM   35  C16 UNL     1      46.718  22.611  64.375  1.00  0.00     0.020 C
BRANCH  35  36
HETATM   36  C17 UNL     1      47.984  23.394  64.148  1.00  0.00     0.002 C
BRANCH  36  37
HETATM   37  C18 UNL     1      48.534  23.944  65.462  1.00  0.00     0.000 C
BRANCH  37  38
HETATM   38  C19 UNL     1      48.893  25.388  65.357  1.00  0.00     0.000 C
BRANCH  38  39
HETATM   39  C20 UNL     1      47.895  26.342  65.903  1.00  0.00     0.002 C
BRANCH  39  40
HETATM   40  C21 UNL     1      46.843  25.745  66.777  1.00  0.00     0.027 C
BRANCH  40  41
HETATM   41  C22 UNL     1      47.202  25.923  68.238  1.00  0.00     0.229 C
BRANCH  41  42
HETATM   42  N11 UNL     1      47.080  24.695  68.979  1.00  0.00    -0.079 N
ATOM     43 3H11 UNL     1      47.309  23.889  68.398  1.00  0.00     0.274 HD
ATOM     44 2H11 UNL     1      47.820  24.608  69.675  1.00  0.00     0.274 HD
ATOM     45 1H11 UNL     1      46.158  24.594  69.404  1.00  0.00     0.274 HD
ENDBRANCH  41  42
ENDBRANCH  40  41
ENDBRANCH  39  40
ENDBRANCH  38  39
ENDBRANCH  37  38
ENDBRANCH  36  37
ENDBRANCH  35  36
ENDBRANCH  34  35
ENDBRANCH  31  34
ENDBRANCH  27  28
ENDBRANCH  26  27
BRANCH  26  46
HETATM   46  O2  UNL     1      40.642  18.207  65.551  1.00  0.00    -0.374 OA
BRANCH  46  47
HETATM   47  C25 UNL     1      41.651  17.464  64.935  1.00  0.00     0.188 C
BRANCH  47  48
HETATM   48  C26 UNL     1      42.155  18.271  63.782  1.00  0.00     0.150 C
BRANCH  48  49
HETATM   49  N12 UNL     1      43.584  18.339  63.665  1.00  0.00    -0.343 N
HETATM   50  C27 UNL     1      44.219  19.452  63.085  1.00  0.00     0.328 C
HETATM   51  N13 UNL     1      45.652  19.527  62.959  1.00  0.00    -0.040 NA
HETATM   52  O3  UNL     1      43.592  20.443  62.641  1.00  0.00    -0.251 OA
ATOM     53  H12 UNL     1      44.150  17.564  64.010  1.00  0.00     0.163 HD
ENDBRANCH  48  49
ENDBRANCH  47  48
ENDBRANCH  46  47
ENDBRANCH  26  46
ENDBRANCH  23  26
ENDBRANCH  21  22
ENDBRANCH  20  21
ENDBRANCH  19  20
ENDBRANCH  17  19
TORSDOF 20
ENDMDL