MODEL 4
REMARK VINA RESULT: -8.623955362      2.331      8.217
REMARK  20 active torsions:
REMARK  status: ('A' for Active; 'I' for Inactive)
REMARK    1  A    between atoms: N2_4  and  N3_6
REMARK       I    between atoms: N3_6  and  C1_8
REMARK       I    between atoms: C1_8  and  N4_10
REMARK    2  A    between atoms: N4_10  and  C2_12
REMARK    3  A    between atoms: C2_12  and  C3_13
REMARK    4  A    between atoms: C3_13  and  C4_14
REMARK    5  A    between atoms: C4_14  and  C5_15
REMARK    6  A    between atoms: C5_15  and  C6_16
REMARK    7  A    between atoms: C9_19  and  C10_20
REMARK    8  A    between atoms: C10_20  and  C11_21
REMARK    9  A    between atoms: C11_21  and  C12_22
REMARK   10  A    between atoms: C12_22  and  C13_23
REMARK   11  A    between atoms: C13_23  and  C14_24
REMARK   12  A    between atoms: C14_24  and  N5_25
REMARK   13  A    between atoms: N5_25  and  C15_27
REMARK   14  A    between atoms: C15_27  and  C16_33
REMARK   15  A    between atoms: N6_28  and  N7_30
REMARK   16  A    between atoms: N8_36  and  C18_37
REMARK   17  A    between atoms: C18_37  and  C19_38
REMARK   18  A    between atoms: C19_38  and  C20_39
REMARK   19  A    between atoms: C20_39  and  N9_40
REMARK   20  A    between atoms: C23_49  and  N13_50
ROOT
HETATM    1  N5  UNL     1      35.900  17.393  65.681  1.00  0.00    -0.378 N
ATOM      2  H5  UNL     1      36.119  18.277  65.223  1.00  0.00     0.160 HD
ENDROOT
BRANCH   1   3
HETATM    3  C14 UNL     1      35.702  16.224  64.883  1.00  0.00     0.121 C
BRANCH   3   4
HETATM    4  C13 UNL     1      36.957  15.387  64.695  1.00  0.00     0.020 C
BRANCH   4   5
HETATM    5  C12 UNL     1      36.869  14.769  63.336  1.00  0.00     0.002 C
BRANCH   5   6
HETATM    6  C11 UNL     1      37.624  15.450  62.257  1.00  0.00     0.005 C
BRANCH   6   7
HETATM    7  C10 UNL     1      39.052  15.119  62.090  1.00  0.00     0.038 C
BRANCH   7   8
HETATM    8  C9  UNL     1      39.991  16.222  62.393  1.00  0.00    -0.058 A
HETATM    9  C8  UNL     1      39.486  17.413  62.845  1.00  0.00     0.007 A
HETATM   10  C7  UNL     1      40.325  18.489  63.165  1.00  0.00     0.007 A
HETATM   11  C6  UNL     1      41.679  18.334  63.021  1.00  0.00    -0.058 A
HETATM   12  C25 UNL     1      42.169  17.117  62.560  1.00  0.00     0.007 A
HETATM   13  C24 UNL     1      41.360  16.085  62.253  1.00  0.00     0.007 A
BRANCH  11  14
HETATM   14  C5  UNL     1      42.614  19.438  63.336  1.00  0.00     0.042 C
BRANCH  14  15
HETATM   15  C4  UNL     1      44.021  18.836  63.382  1.00  0.00     0.033 C
BRANCH  15  16
HETATM   16  C3  UNL     1      44.920  19.438  62.379  1.00  0.00    -0.009 C
BRANCH  16  17
HETATM   17  C2  UNL     1      44.887  20.865  62.039  1.00  0.00     0.089 C
BRANCH  17  18
HETATM   18  N4  UNL     1      45.308  21.841  62.953  1.00  0.00    -0.318 N
HETATM   19  C1  UNL     1      46.575  22.245  63.395  1.00  0.00     0.339 C
HETATM   20  N3  UNL     1      46.718  23.295  64.385  1.00  0.00    -0.237 N
HETATM   21  O1  UNL     1      47.631  21.759  62.994  1.00  0.00    -0.245 OA
ATOM     22  H3  UNL     1      45.887  23.747  64.766  1.00  0.00     0.193 HD
ATOM     23  H4  UNL     1      44.540  22.360  63.380  1.00  0.00     0.170 HD
BRANCH  20  24
HETATM   24  N2  UNL     1      47.968  23.691  64.819  1.00  0.00    -0.245 N
HETATM   25  N1  UNL     1      48.619  22.923  65.612  1.00  0.00    -0.331 N
ATOM     26  H12 UNL     1      48.207  22.039  65.908  1.00  0.00     0.178 HD
ATOM     27  H11 UNL     1      49.542  23.215  65.932  1.00  0.00     0.178 HD
ATOM     28  H2  UNL     1      48.366  24.579  64.514  1.00  0.00     0.208 HD
ENDBRANCH  20  24
ENDBRANCH  17  18
ENDBRANCH  16  17
ENDBRANCH  15  16
ENDBRANCH  14  15
ENDBRANCH  11  14
ENDBRANCH   7   8
ENDBRANCH   6   7
ENDBRANCH   5   6
ENDBRANCH   4   5
ENDBRANCH   3   4
ENDBRANCH   1   3
BRANCH   1  29
HETATM   29  C15 UNL     1      35.796  17.352  67.131  1.00  0.00     0.107 C
HETATM   30  N6  UNL     1      34.798  16.731  67.602  1.00  0.00    -0.295 N
ATOM     31  H6  UNL     1      34.160  16.316  66.923  1.00  0.00     0.187 HD
BRANCH  30  32
HETATM   32  N7  UNL     1      34.478  16.554  68.930  1.00  0.00    -0.344 N
ATOM     33  H72 UNL     1      33.977  15.693  69.145  1.00  0.00     0.176 HD
ATOM     34  H71 UNL     1      34.688  17.183  69.705  1.00  0.00     0.176 HD
ENDBRANCH  30  32
BRANCH  29  35
HETATM   35  C16 UNL     1      36.832  18.051  67.864  1.00  0.00     0.183 C
HETATM   36  C17 UNL     1      37.317  19.332  67.367  1.00  0.00     0.239 C
HETATM   37  O2  UNL     1      36.765  20.295  66.758  1.00  0.00    -0.272 OA
HETATM   38  N8  UNL     1      38.726  19.431  67.687  1.00  0.00    -0.305 N
HETATM   39  C22 UNL     1      39.117  18.176  68.277  1.00  0.00     0.110 C
HETATM   40  N12 UNL     1      40.126  17.969  69.054  1.00  0.00    -0.387 N
HETATM   41  C23 UNL     1      38.108  17.203  67.791  1.00  0.00     0.243 C
ATOM     42 2H12 UNL     1      40.820  18.638  69.388  1.00  0.00     0.157 HD
ATOM     43 1H12 UNL     1      40.404  17.081  69.472  1.00  0.00     0.157 HD
BRANCH  38  44
HETATM   44  C18 UNL     1      39.629  20.536  67.486  1.00  0.00     0.135 C
BRANCH  44  45
HETATM   45  C19 UNL     1      40.711  20.271  66.505  1.00  0.00     0.040 C
BRANCH  45  46
HETATM   46  C20 UNL     1      41.672  21.397  66.336  1.00  0.00     0.123 C
BRANCH  46  47
HETATM   47  N9  UNL     1      43.036  20.895  66.417  1.00  0.00    -0.367 N
HETATM   48  C21 UNL     1      44.084  21.562  66.148  1.00  0.00     0.196 C
HETATM   49  N10 UNL     1      43.977  22.911  65.728  1.00  0.00    -0.067 NA
HETATM   50  N11 UNL     1      45.337  20.900  66.287  1.00  0.00    -0.067 NA
ATOM     51  H9  UNL     1      43.161  19.928  66.715  1.00  0.00     0.161 HD
ENDBRANCH  46  47
ENDBRANCH  45  46
ENDBRANCH  44  45
ENDBRANCH  38  44
BRANCH  41  52
HETATM   52  N13 UNL     1      38.039  16.032  68.629  1.00  0.00    -0.142 N
HETATM   53  O3  UNL     1      38.389  14.901  68.208  1.00  0.00    -0.536 OA
HETATM   54  O4  UNL     1      37.587  16.181  69.903  1.00  0.00    -0.536 OA
ENDBRANCH  41  52
ENDBRANCH  29  35
ENDBRANCH   1  29
TORSDOF 20
ENDMDL