MODEL 2
REMARK VINA RESULT: -8.547717814      2.590      9.146
REMARK  21 active torsions:
REMARK  status: ('A' for Active; 'I' for Inactive)
REMARK    1  A    between atoms: C2_2  and  C3_3
REMARK    2  A    between atoms: C3_3  and  N1_4
REMARK       I    between atoms: C4_6  and  N2_7
REMARK       I    between atoms: C4_6  and  N6_29
REMARK    3  A    between atoms: N2_7  and  C5_9
REMARK    4  A    between atoms: C5_9  and  C6_10
REMARK    5  A    between atoms: C6_10  and  C7_11
REMARK    6  A    between atoms: C7_11  and  N3_12
REMARK       I    between atoms: N3_12  and  C8_14
REMARK    7  A    between atoms: C8_14  and  C9_16
REMARK    8  A    between atoms: C9_16  and  C10_17
REMARK    9  A    between atoms: C10_17  and  C11_18
REMARK   10  A    between atoms: C11_18  and  C12_19
REMARK   11  A    between atoms: C12_19  and  C13_20
REMARK   12  A    between atoms: C13_20  and  N4_21
REMARK   13  A    between atoms: N4_21  and  S1_23
REMARK   14  A    between atoms: S1_23  and  N5_24
REMARK   15  A    between atoms: N6_29  and  N7_31
REMARK   16  A    between atoms: C14_33  and  C15_35
REMARK   17  A    between atoms: C17_39  and  C18_40
REMARK   18  A    between atoms: C18_40  and  C19_41
REMARK       I    between atoms: C19_41  and  N10_43
REMARK   19  A    between atoms: N10_43  and  C20_44
REMARK   20  A    between atoms: C20_44  and  C21_45
REMARK   21  A    between atoms: C21_45  and  N11_46
ROOT
HETATM    1  N1  UNL     1      37.189  16.715  66.756  1.00  0.00    -0.222 N
ATOM      2  H1  UNL     1      36.883  15.757  66.586  1.00  0.00     0.178 HD
HETATM    3  C4  UNL     1      37.820  17.338  65.848  1.00  0.00     0.688 C
HETATM    4  N2  UNL     1      38.088  16.686  64.635  1.00  0.00    -0.225 N
ATOM      5  H2  UNL     1      38.713  17.157  63.982  1.00  0.00     0.177 HD
HETATM    6  N6  UNL     1      38.187  18.706  66.020  1.00  0.00    -0.131 N
ATOM      7  H6  UNL     1      37.440  19.401  66.004  1.00  0.00     0.205 HD
ENDROOT
BRANCH   1   8
HETATM    8  C3  UNL     1      36.892  17.349  68.051  1.00  0.00     0.164 C
BRANCH   8   9
HETATM    9  C2  UNL     1      37.310  16.392  69.092  1.00  0.00    -0.017 C
HETATM   10  C1  UNL     1      38.463  16.322  69.701  1.00  0.00     0.008 C
ENDBRANCH   8   9
ENDBRANCH   1   8
BRANCH   4  11
HETATM   11  C5  UNL     1      37.556  15.409  64.232  1.00  0.00     0.139 C
BRANCH  11  12
HETATM   12  C6  UNL     1      38.372  14.858  63.067  1.00  0.00     0.040 C
BRANCH  12  13
HETATM   13  C7  UNL     1      38.696  16.017  62.143  1.00  0.00     0.124 C
BRANCH  13  14
HETATM   14  N3  UNL     1      40.144  16.229  62.242  1.00  0.00    -0.361 N
HETATM   15  C8  UNL     1      40.674  17.361  62.790  1.00  0.00     0.217 C
HETATM   16  O1  UNL     1      39.965  18.303  63.221  1.00  0.00    -0.274 OA
ATOM     17  H3  UNL     1      40.774  15.508  61.891  1.00  0.00     0.162 HD
BRANCH  15  18
HETATM   18  C9  UNL     1      42.146  17.568  62.937  1.00  0.00     0.103 C
BRANCH  18  19
HETATM   19  C10 UNL     1      42.485  19.008  63.018  1.00  0.00     0.009 C
BRANCH  19  20
HETATM   20  C11 UNL     1      43.758  19.469  62.429  1.00  0.00     0.002 C
BRANCH  20  21
HETATM   21  C12 UNL     1      45.044  19.297  63.103  1.00  0.00     0.020 C
BRANCH  21  22
HETATM   22  C13 UNL     1      46.283  19.817  62.480  1.00  0.00     0.133 C
BRANCH  22  23
HETATM   23  N4  UNL     1      47.091  20.584  63.420  1.00  0.00    -0.303 N
ATOM     24  H4  UNL     1      47.346  20.287  64.363  1.00  0.00     0.173 HD
BRANCH  23  25
HETATM   25  S1  UNL     1      47.545  22.068  62.682  1.00  0.00     0.312 S
HETATM   26  O2  UNL     1      48.000  23.079  63.719  1.00  0.00    -0.183 OA
HETATM   27  O3  UNL     1      48.691  21.923  61.719  1.00  0.00    -0.183 OA
BRANCH  25  28
HETATM   28  N5  UNL     1      46.234  22.743  61.756  1.00  0.00    -0.312 N
ATOM     29  H52 UNL     1      46.327  23.046  60.786  1.00  0.00     0.170 HD
ATOM     30  H51 UNL     1      45.377  22.793  62.307  1.00  0.00     0.170 HD
ENDBRANCH  25  28
ENDBRANCH  23  25
ENDBRANCH  22  23
ENDBRANCH  21  22
ENDBRANCH  20  21
ENDBRANCH  19  20
ENDBRANCH  18  19
ENDBRANCH  15  18
ENDBRANCH  13  14
ENDBRANCH  12  13
ENDBRANCH  11  12
ENDBRANCH   4  11
BRANCH   6  31
HETATM   31  N7  UNL     1      39.431  19.143  66.201  1.00  0.00    -0.273 N
HETATM   32  C14 UNL     1      40.103  20.050  66.615  1.00  0.00     0.142 C
HETATM   33  N8  UNL     1      39.520  21.227  67.192  1.00  0.00    -0.080 NA
ATOM     34  H7  UNL     1      40.064  18.425  65.850  1.00  0.00     0.188 HD
BRANCH  32  35
HETATM   35  C15 UNL     1      41.584  19.960  66.547  1.00  0.00     0.024 A
HETATM   36  C16 UNL     1      42.319  18.843  66.518  1.00  0.00     0.103 A
HETATM   37  N9  UNL     1      43.657  19.169  66.432  1.00  0.00    -0.368 N
HETATM   38  C17 UNL     1      43.674  20.562  66.414  1.00  0.00     0.019 A
ATOM     39  H9  UNL     1      44.454  18.533  66.390  1.00  0.00     0.165 HD
HETATM   40  C25 UNL     1      42.442  21.033  66.482  1.00  0.00     0.041 A
BRANCH  38  41
HETATM   41  C18 UNL     1      44.950  21.340  66.277  1.00  0.00     0.176 C
BRANCH  41  42
HETATM   42  C19 UNL     1      44.746  22.559  65.415  1.00  0.00     0.296 C
HETATM   43  O4  UNL     1      44.444  22.395  64.238  1.00  0.00    -0.257 OA
HETATM   44  N10 UNL     1      44.936  23.796  66.101  1.00  0.00    -0.382 NA
BRANCH  44  45
HETATM   45  C20 UNL     1      45.112  24.945  66.730  1.00  0.00     0.211 C
BRANCH  45  46
HETATM   46  C21 UNL     1      46.420  25.686  66.426  1.00  0.00     0.232 C
BRANCH  46  47
HETATM   47  N11 UNL     1      47.493  25.389  67.289  1.00  0.00    -0.056 N
HETATM   48  C22 UNL     1      48.248  24.236  66.763  1.00  0.00     0.277 C
HETATM   49  C23 UNL     1      47.121  25.021  68.641  1.00  0.00     0.277 C
HETATM   50  C24 UNL     1      48.454  26.483  67.339  1.00  0.00     0.277 C
ENDBRANCH  46  47
ENDBRANCH  45  46
ENDBRANCH  44  45
ENDBRANCH  41  42
ENDBRANCH  38  41
ENDBRANCH  32  35
ENDBRANCH   6  31
TORSDOF 21
ENDMDL