MODEL 5
REMARK VINA RESULT: -8.553075452      2.057      4.780
REMARK  21 active torsions:
REMARK  status: ('A' for Active; 'I' for Inactive)
REMARK    1  A    between atoms: C5_7  and  N2_8
REMARK    2  A    between atoms: N2_8  and  C6_10
REMARK    3  A    between atoms: C6_10  and  C7_11
REMARK    4  A    between atoms: C7_11  and  C8_12
REMARK    5  A    between atoms: C7_11  and  C9_15
REMARK    6  A    between atoms: C8_12  and  O1_13
REMARK    7  A    between atoms: N5_20  and  C10_21
REMARK    8  A    between atoms: C10_21  and  C11_22
REMARK    9  A    between atoms: C11_22  and  C12_23
REMARK   10  A    between atoms: C12_23  and  C13_24
REMARK   11  A    between atoms: C13_24  and  C14_25
REMARK   12  A    between atoms: C14_25  and  C15_26
REMARK   13  A    between atoms: C15_26  and  C16_27
REMARK   14  A    between atoms: C16_27  and  C17_28
REMARK   15  A    between atoms: C17_28  and  N6_29
REMARK   16  A    between atoms: C20_32  and  C21_33
REMARK       I    between atoms: C21_33  and  N7_35
REMARK   17  A    between atoms: N7_35  and  C22_37
REMARK   18  A    between atoms: C22_37  and  C23_38
REMARK   19  A    between atoms: C23_38  and  N8_39
REMARK       I    between atoms: N8_39  and  C24_41
REMARK   20  A    between atoms: C24_41  and  C25_43
REMARK   21  A    between atoms: C25_43  and  C26_44
ROOT
HETATM    1  C12 UNL     1      42.610  21.893  64.554  1.00  0.00     0.002 C
ENDROOT
BRANCH   1   2
HETATM    2  C11 UNL     1      41.562  20.857  64.679  1.00  0.00     0.022 C
BRANCH   2   3
HETATM    3  C10 UNL     1      41.603  19.693  63.774  1.00  0.00     0.148 C
BRANCH   3   4
HETATM    4  N5  UNL     1      40.687  18.617  64.071  1.00  0.00    -0.301 N
HETATM    5  N4  UNL     1      40.211  18.505  65.325  1.00  0.00    -0.282 N
HETATM    6  C5  UNL     1      39.352  17.539  65.663  1.00  0.00     0.144 A
ATOM      7  H4  UNL     1      40.513  19.173  66.034  1.00  0.00     0.189 HD
HETATM    8  C4  UNL     1      38.896  16.595  64.756  1.00  0.00     0.090 A
HETATM    9  N1  UNL     1      38.057  15.542  64.812  1.00  0.00    -0.362 N
HETATM   10  C28 UNL     1      39.368  16.688  63.465  1.00  0.00     0.019 A
HETATM   11  C3  UNL     1      37.986  14.967  63.587  1.00  0.00     0.096 A
ATOM     12  H1  UNL     1      37.556  15.228  65.643  1.00  0.00     0.165 HD
HETATM   13  C2  UNL     1      38.799  15.665  62.719  1.00  0.00    -0.033 A
HETATM   14  C1  UNL     1      39.022  15.382  61.280  1.00  0.00     0.050 C
HETATM   15  C27 UNL     1      40.252  17.710  63.188  1.00  0.00     0.124 A
BRANCH   6  16
HETATM   16  N2  UNL     1      38.891  17.430  66.874  1.00  0.00    -0.372 N
ATOM     17  H2  UNL     1      39.246  16.703  67.495  1.00  0.00     0.161 HD
BRANCH  16  18
HETATM   18  C6  UNL     1      37.863  18.355  67.338  1.00  0.00     0.137 C
BRANCH  18  19
HETATM   19  C7  UNL     1      36.787  17.578  68.071  1.00  0.00     0.116 C
BRANCH  19  20
HETATM   20  C8  UNL     1      35.532  17.521  67.223  1.00  0.00     0.179 C
BRANCH  20  21
HETATM   21  O1  UNL     1      35.805  17.595  65.878  1.00  0.00    -0.400 OA
ATOM     22  H1  UNL     1      35.817  16.740  65.463  1.00  0.00     0.209 HD
ENDBRANCH  20  21
ENDBRANCH  19  20
BRANCH  19  23
HETATM   23  C9  UNL     1      37.300  16.252  68.443  1.00  0.00     0.238 C
HETATM   24  N3  UNL     1      38.120  16.016  69.579  1.00  0.00    -0.062 NA
HETATM   25  O2  UNL     1      37.013  15.253  67.740  1.00  0.00    -0.276 OA
ENDBRANCH  19  23
ENDBRANCH  18  19
ENDBRANCH  16  18
ENDBRANCH   6  16
ENDBRANCH   3   4
ENDBRANCH   2   3
ENDBRANCH   1   2
BRANCH   1  26
HETATM   26  C13 UNL     1      43.472  22.090  65.785  1.00  0.00     0.000 C
BRANCH  26  27
HETATM   27  C14 UNL     1      44.862  21.638  65.611  1.00  0.00     0.000 C
BRANCH  27  28
HETATM   28  C15 UNL     1      45.276  20.250  65.733  1.00  0.00     0.002 C
BRANCH  28  29
HETATM   29  C16 UNL     1      45.198  19.335  64.592  1.00  0.00     0.022 C
BRANCH  29  30
HETATM   30  C17 UNL     1      46.316  19.338  63.634  1.00  0.00     0.148 C
BRANCH  30  31
HETATM   31  N6  UNL     1      46.167  20.437  62.659  1.00  0.00    -0.303 N
HETATM   32  C18 UNL     1      45.158  20.554  61.781  1.00  0.00     0.112 A
HETATM   33  C19 UNL     1      45.438  21.736  61.100  1.00  0.00     0.055 A
HETATM   34  C20 UNL     1      46.614  22.282  61.602  1.00  0.00     0.117 A
HETATM   35  N10 UNL     1      47.011  21.425  62.563  1.00  0.00    -0.294 N
ATOM     36  H10 UNL     1      47.850  21.534  63.132  1.00  0.00     0.187 HD
BRANCH  34  37
HETATM   37  C21 UNL     1      47.263  23.514  61.180  1.00  0.00     0.269 C
HETATM   38  O3  UNL     1      46.995  23.976  60.058  1.00  0.00    -0.266 OA
HETATM   39  N7  UNL     1      48.169  24.150  62.037  1.00  0.00    -0.354 N
ATOM     40  H7  UNL     1      48.364  23.728  62.945  1.00  0.00     0.162 HD
BRANCH  39  41
HETATM   41  C22 UNL     1      48.833  25.368  61.688  1.00  0.00     0.142 C
BRANCH  41  42
HETATM   42  C23 UNL     1      49.281  26.102  62.914  1.00  0.00     0.142 C
BRANCH  42  43
HETATM   43  N8  UNL     1      48.531  25.650  64.055  1.00  0.00    -0.359 N
HETATM   44  C24 UNL     1      48.237  26.469  65.179  1.00  0.00     0.226 C
HETATM   45  O4  UNL     1      48.631  27.645  65.201  1.00  0.00    -0.273 OA
ATOM     46  H8  UNL     1      48.192  24.688  64.058  1.00  0.00     0.162 HD
BRANCH  44  47
HETATM   47  C25 UNL     1      47.463  25.941  66.331  1.00  0.00     0.202 C
BRANCH  47  48
HETATM   48  C26 UNL     1      48.095  24.768  66.924  1.00  0.00     0.239 C
HETATM   49  N9  UNL     1      48.082  24.589  68.349  1.00  0.00    -0.062 NA
HETATM   50  O5  UNL     1      48.654  23.903  66.242  1.00  0.00    -0.276 OA
ENDBRANCH  47  48
ENDBRANCH  44  47
ENDBRANCH  42  43
ENDBRANCH  41  42
ENDBRANCH  39  41
ENDBRANCH  34  37
ENDBRANCH  30  31
ENDBRANCH  29  30
ENDBRANCH  28  29
ENDBRANCH  27  28
ENDBRANCH  26  27
ENDBRANCH   1  26
TORSDOF 21
ENDMDL