MODEL 5
REMARK VINA RESULT: -7.971712582      1.603      3.903
REMARK  20 active torsions:
REMARK  status: ('A' for Active; 'I' for Inactive)
REMARK    1  A    between atoms: N1_2  and  C3_4
REMARK    2  A    between atoms: N1_2  and  C16_26
REMARK    3  A    between atoms: C3_4  and  C4_5
REMARK    4  A    between atoms: C4_5  and  C5_6
REMARK    5  A    between atoms: C5_6  and  N2_7
REMARK       I    between atoms: N2_7  and  C6_9
REMARK    6  A    between atoms: C6_9  and  C7_11
REMARK    7  A    between atoms: C7_11  and  C8_12
REMARK    8  A    between atoms: C8_12  and  O2_13
REMARK    9  A    between atoms: O2_13  and  C9_14
REMARK   10  A    between atoms: C9_14  and  C10_15
REMARK   11  A    between atoms: C10_15  and  N3_16
REMARK   12  A    between atoms: C16_26  and  C17_27
REMARK   13  A    between atoms: C17_27  and  N6_28
REMARK       I    between atoms: N6_28  and  C18_30
REMARK   14  A    between atoms: C18_30  and  C19_32
REMARK   15  A    between atoms: C24_37  and  C25_38
REMARK   16  A    between atoms: C25_38  and  C26_39
REMARK   17  A    between atoms: C26_39  and  N8_43
REMARK   18  A    between atoms: N8_43  and  C27_45
REMARK   19  A    between atoms: C27_45  and  C28_46
REMARK   20  A    between atoms: C28_46  and  N9_47
ROOT
HETATM    1  C16 UNL     1      41.498  19.066  65.475  1.00  0.00     0.256 C
ENDROOT
BRANCH   1   2
HETATM    2  N1  UNL     1      40.524  19.494  66.502  1.00  0.00    -0.073 N
HETATM    3  C1  UNL     1      40.807  20.888  66.779  1.00  0.00     0.272 C
HETATM    4  C2  UNL     1      39.225  19.404  65.869  1.00  0.00     0.272 C
BRANCH   2   5
HETATM    5  C3  UNL     1      40.651  18.604  67.587  1.00  0.00     0.238 C
BRANCH   5   6
HETATM    6  C4  UNL     1      39.566  18.536  68.608  1.00  0.00     0.047 C
BRANCH   6   7
HETATM    7  C5  UNL     1      39.081  17.133  68.775  1.00  0.00     0.124 C
BRANCH   7   8
HETATM    8  N2  UNL     1      37.919  16.917  67.937  1.00  0.00    -0.361 N
HETATM    9  C6  UNL     1      36.689  16.538  68.471  1.00  0.00     0.219 C
HETATM   10  O1  UNL     1      36.402  16.338  69.672  1.00  0.00    -0.274 OA
ATOM     11  H2  UNL     1      38.003  17.044  66.929  1.00  0.00     0.162 HD
BRANCH   9  12
HETATM   12  C7  UNL     1      35.550  16.340  67.498  1.00  0.00     0.129 C
BRANCH  12  13
HETATM   13  C8  UNL     1      35.823  17.040  66.205  1.00  0.00     0.176 C
BRANCH  13  14
HETATM   14  O2  UNL     1      35.515  16.430  65.090  1.00  0.00    -0.389 OA
BRANCH  14  15
HETATM   15  C9  UNL     1      35.988  15.349  64.512  1.00  0.00     0.197 C
BRANCH  15  16
HETATM   16  C10 UNL     1      36.636  15.476  63.180  1.00  0.00     0.287 C
BRANCH  16  17
HETATM   17  N3  UNL     1      38.113  15.315  63.318  1.00  0.00     0.021 N
HETATM   18  C11 UNL     1      38.593  14.502  62.263  1.00  0.00     0.288 C
HETATM   19  C12 UNL     1      40.068  14.643  61.980  1.00  0.00     0.262 C
HETATM   20  N4  UNL     1      40.595  15.946  62.190  1.00  0.00    -0.071 N
HETATM   21  C13 UNL     1      39.588  16.965  62.290  1.00  0.00     0.268 C
ATOM     22  H42 UNL     1      41.205  15.960  63.007  1.00  0.00     0.277 HD
ATOM     23  H41 UNL     1      41.273  16.180  61.466  1.00  0.00     0.277 HD
HETATM   24  C14 UNL     1      38.705  16.597  63.480  1.00  0.00     0.253 C
HETATM   25  C15 UNL     1      39.488  16.017  64.643  1.00  0.00     0.179 C
HETATM   26  N5  UNL     1      38.482  14.957  64.610  1.00  0.00    -0.044 NA
ENDBRANCH  16  17
ENDBRANCH  15  16
ENDBRANCH  14  15
ENDBRANCH  13  14
ENDBRANCH  12  13
ENDBRANCH   9  12
ENDBRANCH   7   8
ENDBRANCH   6   7
ENDBRANCH   5   6
ENDBRANCH   2   5
ENDBRANCH   1   2
BRANCH   1  27
HETATM   27  C17 UNL     1      41.258  19.719  64.160  1.00  0.00     0.151 C
BRANCH  27  28
HETATM   28  N6  UNL     1      42.532  20.201  63.606  1.00  0.00    -0.355 N
HETATM   29  C18 UNL     1      43.367  19.403  62.808  1.00  0.00     0.252 C
HETATM   30  O3  UNL     1      43.080  18.227  62.516  1.00  0.00    -0.268 OA
ATOM     31  H6  UNL     1      42.822  21.157  63.810  1.00  0.00     0.162 HD
BRANCH  29  32
HETATM   32  C19 UNL     1      44.619  19.963  62.282  1.00  0.00     0.038 A
HETATM   33  C20 UNL     1      44.499  20.785  61.151  1.00  0.00     0.017 A
HETATM   34  C21 UNL     1      45.589  21.407  60.642  1.00  0.00     0.001 A
HETATM   35  C22 UNL     1      46.812  21.232  61.233  1.00  0.00     0.001 A
HETATM   36  C23 UNL     1      46.937  20.433  62.333  1.00  0.00     0.008 A
HETATM   37  C24 UNL     1      45.832  19.774  62.884  1.00  0.00    -0.035 A
BRANCH  37  38
HETATM   38  C25 UNL     1      46.015  18.884  64.066  1.00  0.00     0.115 C
BRANCH  38  39
HETATM   39  C26 UNL     1      45.521  19.437  65.338  1.00  0.00     0.074 C
HETATM   40  N7  UNL     1      44.849  18.616  66.126  1.00  0.00    -0.389 N
ATOM     41  H72 UNL     1      44.743  17.665  65.775  1.00  0.00     0.157 HD
ATOM     42  H71 UNL     1      44.506  19.000  67.007  1.00  0.00     0.157 HD
BRANCH  39  43
HETATM   43  N8  UNL     1      45.664  20.734  65.817  1.00  0.00    -0.378 N
ATOM     44  H8  UNL     1      46.607  21.108  65.924  1.00  0.00     0.160 HD
BRANCH  43  45
HETATM   45  C27 UNL     1      44.561  21.569  66.166  1.00  0.00     0.140 C
BRANCH  45  46
HETATM   46  C28 UNL     1      44.897  23.052  65.974  1.00  0.00     0.141 C
BRANCH  46  47
HETATM   47  N9  UNL     1      46.339  23.150  66.105  1.00  0.00    -0.365 N
HETATM   48  C29 UNL     1      46.888  24.046  66.861  1.00  0.00     0.197 C
HETATM   49  N10 UNL     1      48.277  24.199  67.036  1.00  0.00    -0.067 NA
HETATM   50  N11 UNL     1      46.012  24.943  67.559  1.00  0.00    -0.067 NA
ATOM     51  H9  UNL     1      46.933  22.498  65.591  1.00  0.00     0.161 HD
ENDBRANCH  46  47
ENDBRANCH  45  46
ENDBRANCH  43  45
ENDBRANCH  39  43
ENDBRANCH  38  39
ENDBRANCH  37  38
ENDBRANCH  29  32
ENDBRANCH  27  28
ENDBRANCH   1  27
TORSDOF 20
ENDMDL