MODEL 1
REMARK VINA RESULT: -7.959415947      0.000      0.000
REMARK  24 active torsions:
REMARK  status: ('A' for Active; 'I' for Inactive)
REMARK    1  A    between atoms: C2_2  and  C3_3
REMARK    2  A    between atoms: C3_3  and  N1_4
REMARK       I    between atoms: C4_6  and  N3_8
REMARK    3  A    between atoms: N3_8  and  C5_10
REMARK    4  A    between atoms: C7_14  and  C8_15
REMARK       I    between atoms: C8_15  and  N5_17
REMARK    5  A    between atoms: N5_17  and  C9_18
REMARK    6  A    between atoms: C9_18  and  C10_19
REMARK    7  A    between atoms: C10_19  and  C11_20
REMARK    8  A    between atoms: C11_20  and  C12_21
REMARK    9  A    between atoms: C12_21  and  N6_22
REMARK       I    between atoms: N6_22  and  C13_24
REMARK   10  A    between atoms: C13_24  and  C14_26
REMARK   11  A    between atoms: C14_26  and  N7_27
REMARK   12  A    between atoms: N7_27  and  C16_29
REMARK   13  A    between atoms: C16_29  and  C17_30
REMARK   14  A    between atoms: C17_30  and  C18_31
REMARK   15  A    between atoms: C18_31  and  N8_32
REMARK       I    between atoms: N8_32  and  C19_34
REMARK       I    between atoms: C19_34  and  N9_35
REMARK       I    between atoms: C19_34  and  N10_38
REMARK   16  A    between atoms: N10_38  and  C20_40
REMARK   17  A    between atoms: C20_40  and  C21_41
REMARK   18  A    between atoms: C21_41  and  N11_42
REMARK   19  A    between atoms: N11_42  and  C23_44
REMARK   20  A    between atoms: C23_44  and  O3_45
REMARK   21  A    between atoms: C23_44  and  C24_47
REMARK   22  A    between atoms: C24_47  and  O4_48
REMARK   23  A    between atoms: C24_47  and  N12_50
REMARK   24  A    between atoms: N12_50  and  C25_52
ROOT
HETATM    1  C14 UNL     1      47.392  22.933  61.241  1.00  0.00     0.197 C
ENDROOT
BRANCH   1   2
HETATM    2  C13 UNL     1      48.172  24.197  61.166  1.00  0.00     0.231 C
HETATM    3  N6  UNL     1      48.556  24.870  62.391  1.00  0.00    -0.360 N
ATOM      4  H6  UNL     1      48.270  24.519  63.305  1.00  0.00     0.162 HD
HETATM    5  O2  UNL     1      48.509  24.658  60.086  1.00  0.00    -0.272 OA
BRANCH   3   6
HETATM    6  C12 UNL     1      49.357  26.055  62.257  1.00  0.00     0.122 C
BRANCH   6   7
HETATM    7  C11 UNL     1      49.344  27.007  63.422  1.00  0.00     0.022 C
BRANCH   7   8
HETATM    8  C10 UNL     1      48.489  26.484  64.536  1.00  0.00     0.035 C
BRANCH   8   9
HETATM    9  C9  UNL     1      49.282  26.235  65.823  1.00  0.00     0.222 C
BRANCH   9  10
HETATM   10  N5  UNL     1      48.425  25.441  66.663  1.00  0.00    -0.410 NA
HETATM   11  C8  UNL     1      47.644  24.712  67.440  1.00  0.00     0.339 C
HETATM   12  O1  UNL     1      47.769  24.254  68.575  1.00  0.00    -0.250 OA
BRANCH  11  13
HETATM   13  C7  UNL     1      46.319  24.337  66.795  1.00  0.00     0.146 A
HETATM   14  C6  UNL     1      45.438  25.194  66.252  1.00  0.00     0.143 A
HETATM   15  N4  UNL     1      44.375  24.535  65.844  1.00  0.00    -0.199 N
HETATM   16  C5  UNL     1      44.602  23.152  66.159  1.00  0.00     0.685 A
ATOM     17  H4  UNL     1      43.550  24.930  65.392  1.00  0.00     0.183 HD
HETATM   18  N13 UNL     1      45.820  23.148  66.732  1.00  0.00    -0.183 N
ATOM     19  H13 UNL     1      46.290  22.310  67.073  1.00  0.00     0.184 HD
BRANCH  16  20
HETATM   20  N3  UNL     1      43.778  22.375  65.932  1.00  0.00    -0.163 N
HETATM   21  C4  UNL     1      42.464  21.916  65.723  1.00  0.00     0.206 C
HETATM   22  N1  UNL     1      41.848  21.276  66.489  1.00  0.00    -0.344 N
HETATM   23  N2  UNL     1      42.127  22.157  64.290  1.00  0.00    -0.063 NA
ATOM     24  H1  UNL     1      42.346  21.309  67.379  1.00  0.00     0.167 HD
ATOM     25  H3  UNL     1      44.321  21.520  65.814  1.00  0.00     0.187 HD
BRANCH  22  26
HETATM   26  C3  UNL     1      40.723  20.496  66.679  1.00  0.00     0.063 C
BRANCH  26  27
HETATM   27  C2  UNL     1      39.683  21.158  67.541  1.00  0.00     0.040 C
HETATM   28  C1  UNL     1      38.444  20.282  67.695  1.00  0.00     0.010 C
ENDBRANCH  26  27
ENDBRANCH  22  26
ENDBRANCH  16  20
ENDBRANCH  11  13
ENDBRANCH   9  10
ENDBRANCH   8   9
ENDBRANCH   7   8
ENDBRANCH   6   7
ENDBRANCH   3   6
ENDBRANCH   1   2
BRANCH   1  29
HETATM   29  N7  UNL     1      47.504  22.193  62.468  1.00  0.00    -0.288 NA
HETATM   30  C15 UNL     1      48.332  20.996  62.347  1.00  0.00     0.116 C
BRANCH  29  31
HETATM   31  C16 UNL     1      46.149  21.863  62.855  1.00  0.00     0.061 C
BRANCH  31  32
HETATM   32  C17 UNL     1      45.194  21.486  61.851  1.00  0.00     0.028 C
BRANCH  32  33
HETATM   33  C18 UNL     1      44.338  20.308  61.850  1.00  0.00     0.092 C
BRANCH  33  34
HETATM   34  N8  UNL     1      43.447  19.968  62.850  1.00  0.00    -0.339 N
HETATM   35  C19 UNL     1      43.427  18.904  63.821  1.00  0.00     0.172 C
HETATM   36  N9  UNL     1      44.448  18.850  64.630  1.00  0.00    -0.371 N
HETATM   37  N10 UNL     1      42.373  17.993  63.868  1.00  0.00    -0.361 N
ATOM     38  H92 UNL     1      45.219  19.516  64.596  1.00  0.00     0.159 HD
ATOM     39  H91 UNL     1      44.434  18.096  65.318  1.00  0.00     0.159 HD
ATOM     40  H10 UNL     1      41.943  17.685  64.739  1.00  0.00     0.162 HD
ATOM     41  H8  UNL     1      42.645  20.595  62.912  1.00  0.00     0.168 HD
BRANCH  37  42
HETATM   42  C20 UNL     1      41.937  17.518  62.550  1.00  0.00     0.142 C
BRANCH  42  43
HETATM   43  C21 UNL     1      41.107  16.249  62.604  1.00  0.00     0.144 C
BRANCH  43  44
HETATM   44  N11 UNL     1      39.736  16.649  62.956  1.00  0.00    -0.361 N
HETATM   45  C22 UNL     1      38.861  16.993  61.836  1.00  0.00     0.152 C
BRANCH  44  46
HETATM   46  C23 UNL     1      39.254  16.774  64.231  1.00  0.00     0.190 C
BRANCH  46  47
HETATM   47  O3  UNL     1      39.255  18.109  64.610  1.00  0.00    -0.343 OA
ATOM     48  H3  UNL     1      39.635  18.201  65.475  1.00  0.00     0.219 HD
ENDBRANCH  46  47
BRANCH  46  49
HETATM   49  C24 UNL     1      38.798  15.950  65.225  1.00  0.00     0.188 C
BRANCH  49  50
HETATM   50  O4  UNL     1      38.255  14.759  64.429  1.00  0.00    -0.343 OA
ATOM     51  H4  UNL     1      39.043  14.255  64.264  1.00  0.00     0.219 HD
ENDBRANCH  49  50
BRANCH  49  52
HETATM   52  N12 UNL     1      38.539  15.566  66.460  1.00  0.00    -0.368 N
ATOM     53  H12 UNL     1      39.011  14.722  66.785  1.00  0.00     0.161 HD
BRANCH  52  54
HETATM   54  C25 UNL     1      37.634  16.232  67.424  1.00  0.00     0.117 C
HETATM   55  C26 UNL     1      38.274  16.312  68.800  1.00  0.00     0.026 C
ENDBRANCH  52  54
ENDBRANCH  49  52
ENDBRANCH  46  49
ENDBRANCH  44  46
ENDBRANCH  43  44
ENDBRANCH  42  43
ENDBRANCH  37  42
ENDBRANCH  33  34
ENDBRANCH  32  33
ENDBRANCH  31  32
ENDBRANCH  29  31
ENDBRANCH   1  29
TORSDOF 24
ENDMDL