MODEL 4
REMARK VINA RESULT: -8.195069918      2.252      8.235
REMARK  21 active torsions:
REMARK  status: ('A' for Active; 'I' for Inactive)
REMARK    1  A    between atoms: N1_2  and  C4_5
REMARK    2  A    between atoms: C4_5  and  C5_6
REMARK    3  A    between atoms: C5_6  and  N2_7
REMARK       I    between atoms: N2_7  and  C6_9
REMARK    4  A    between atoms: C6_9  and  C7_11
REMARK    5  A    between atoms: C7_11  and  N3_12
REMARK       I    between atoms: N3_12  and  C8_14
REMARK    6  A    between atoms: C8_14  and  C9_16
REMARK    7  A    between atoms: C9_16  and  N4_17
REMARK    8  A    between atoms: C9_16  and  C10_21
REMARK    9  A    between atoms: C9_16  and  C24_48
REMARK   10  A    between atoms: C10_21  and  C11_22
REMARK   11  A    between atoms: C11_22  and  C12_23
REMARK   12  A    between atoms: C12_23  and  N5_24
REMARK   13  A    between atoms: N5_24  and  C13_26
REMARK   14  A    between atoms: C13_26  and  C14_27
REMARK   15  A    between atoms: C14_27  and  C15_28
REMARK   16  A    between atoms: C15_28  and  C16_29
REMARK   17  A    between atoms: C16_29  and  N6_30
REMARK       I    between atoms: N6_30  and  C17_32
REMARK   18  A    between atoms: C17_32  and  C18_34
REMARK   19  A    between atoms: C18_34  and  C19_35
REMARK   20  A    between atoms: N8_41  and  N9_43
REMARK   21  A    between atoms: C24_48  and  C25_49
ROOT
HETATM    1  C9  UNL     1      41.938  18.335  64.108  1.00  0.00     0.226 C
ENDROOT
BRANCH   1   2
HETATM    2  C8  UNL     1      40.678  17.629  63.684  1.00  0.00     0.258 C
HETATM    3  N3  UNL     1      40.416  16.252  63.968  1.00  0.00    -0.350 N
ATOM      4  H3  UNL     1      41.092  15.686  64.479  1.00  0.00     0.163 HD
HETATM    5  O2  UNL     1      39.829  18.285  63.056  1.00  0.00    -0.270 OA
BRANCH   3   6
HETATM    6  C7  UNL     1      39.174  15.684  63.514  1.00  0.00     0.225 C
BRANCH   6   7
HETATM    7  C6  UNL     1      38.157  15.635  64.551  1.00  0.00     0.235 C
HETATM    8  N2  UNL     1      36.862  16.144  64.435  1.00  0.00    -0.358 N
ATOM      9  H2  UNL     1      36.568  16.583  63.562  1.00  0.00     0.162 HD
HETATM   10  O1  UNL     1      38.509  15.077  65.643  1.00  0.00    -0.272 OA
BRANCH   8  11
HETATM   11  C5  UNL     1      35.933  16.056  65.542  1.00  0.00     0.150 C
BRANCH  11  12
HETATM   12  C4  UNL     1      35.871  17.350  66.280  1.00  0.00     0.255 C
BRANCH  12  13
HETATM   13  N1  UNL     1      35.492  17.158  67.680  1.00  0.00    -0.077 N
HETATM   14  C1  UNL     1      36.511  16.348  68.302  1.00  0.00     0.271 C
HETATM   15  C2  UNL     1      34.212  16.466  67.738  1.00  0.00     0.271 C
HETATM   16  C3  UNL     1      35.464  18.444  68.325  1.00  0.00     0.271 C
ENDBRANCH  12  13
ENDBRANCH  11  12
ENDBRANCH   8  11
ENDBRANCH   6   7
ENDBRANCH   3   6
ENDBRANCH   1   2
BRANCH   1  17
HETATM   17  N4  UNL     1      42.720  17.391  64.864  1.00  0.00    -0.058 N
ATOM     18  H43 UNL     1      42.537  16.423  64.606  1.00  0.00     0.276 HD
ATOM     19  H42 UNL     1      43.711  17.407  64.621  1.00  0.00     0.276 HD
ATOM     20  H41 UNL     1      42.548  17.581  65.852  1.00  0.00     0.276 HD
ENDBRANCH   1  17
BRANCH   1  21
HETATM   21  C10 UNL     1      42.628  18.754  62.896  1.00  0.00     0.019 C
BRANCH  21  22
HETATM   22  C11 UNL     1      43.971  19.333  62.877  1.00  0.00    -0.008 C
BRANCH  22  23
HETATM   23  C12 UNL     1      44.220  20.761  62.650  1.00  0.00     0.148 C
BRANCH  23  24
HETATM   24  N5  UNL     1      44.283  21.536  63.889  1.00  0.00    -0.375 N
ATOM     25  H5  UNL     1      43.600  22.280  64.033  1.00  0.00     0.161 HD
BRANCH  24  26
HETATM   26  C13 UNL     1      45.259  21.297  64.908  1.00  0.00     0.092 C
HETATM   27  N8  UNL     1      46.463  21.035  64.689  1.00  0.00    -0.287 N
ATOM     28  H8  UNL     1      47.000  20.896  65.545  1.00  0.00     0.188 HD
BRANCH  26  29
HETATM   29  C14 UNL     1      44.773  21.394  66.339  1.00  0.00     0.079 C
BRANCH  29  30
HETATM   30  C15 UNL     1      44.548  22.810  66.715  1.00  0.00     0.027 C
BRANCH  30  31
HETATM   31  C16 UNL     1      45.208  23.361  67.907  1.00  0.00     0.123 C
BRANCH  31  32
HETATM   32  N6  UNL     1      45.834  24.624  67.776  1.00  0.00    -0.361 N
HETATM   33  C17 UNL     1      47.150  25.017  68.091  1.00  0.00     0.221 C
HETATM   34  O3  UNL     1      47.998  24.263  68.592  1.00  0.00    -0.273 OA
ATOM     35  H6  UNL     1      45.242  25.362  67.395  1.00  0.00     0.162 HD
BRANCH  33  36
HETATM   36  C18 UNL     1      47.581  26.420  67.816  1.00  0.00     0.142 C
BRANCH  36  37
HETATM   37  C19 UNL     1      48.443  26.496  66.604  1.00  0.00    -0.033 A
HETATM   38  C20 UNL     1      47.964  26.391  65.290  1.00  0.00     0.026 A
HETATM   39  C21 UNL     1      49.046  26.518  64.446  1.00  0.00     0.088 A
HETATM   40  N7  UNL     1      50.147  26.691  65.175  1.00  0.00    -0.375 N
HETATM   41  C22 UNL     1      49.799  26.681  66.483  1.00  0.00     0.095 A
ATOM     42  H7  UNL     1      51.091  26.811  64.809  1.00  0.00     0.164 HD
ENDBRANCH  36  37
ENDBRANCH  33  36
ENDBRANCH  31  32
ENDBRANCH  30  31
ENDBRANCH  29  30
ENDBRANCH  26  29
BRANCH  27  43
HETATM   43  N9  UNL     1      47.214  20.895  63.564  1.00  0.00    -0.275 N
HETATM   44  C23 UNL     1      47.934  21.823  63.039  1.00  0.00     0.215 C
HETATM   45  N10 UNL     1      48.674  21.563  61.870  1.00  0.00    -0.065 NA
HETATM   46  N11 UNL     1      47.981  23.107  63.625  1.00  0.00    -0.065 NA
ATOM     47  H9  UNL     1      47.205  19.986  63.102  1.00  0.00     0.189 HD
ENDBRANCH  27  43
ENDBRANCH  24  26
ENDBRANCH  23  24
ENDBRANCH  22  23
ENDBRANCH  21  22
ENDBRANCH   1  21
BRANCH   1  48
HETATM   48  C24 UNL     1      41.461  19.376  65.094  1.00  0.00     0.111 C
BRANCH  48  49
HETATM   49  C25 UNL     1      41.017  18.870  66.399  1.00  0.00     0.028 A
HETATM   50  C26 UNL     1      39.824  18.377  66.825  1.00  0.00     0.114 A
HETATM   51  N12 UNL     1      39.931  18.058  68.144  1.00  0.00    -0.360 N
HETATM   52  C27 UNL     1      41.175  18.343  68.558  1.00  0.00     0.180 A
ATOM     53  H12 UNL     1      39.187  17.667  68.723  1.00  0.00     0.166 HD
HETATM   54  N13 UNL     1      41.815  18.826  67.509  1.00  0.00    -0.354 N
ATOM     55  H13 UNL     1      42.788  19.131  67.525  1.00  0.00     0.166 HD
ENDBRANCH  48  49
ENDBRANCH   1  48
TORSDOF 21
ENDMDL