MODEL 3
REMARK VINA RESULT: -8.198157734      2.671      5.727
REMARK  22 active torsions:
REMARK  status: ('A' for Active; 'I' for Inactive)
REMARK    1  A    between atoms: C5_7  and  C6_8
REMARK    2  A    between atoms: C6_8  and  C7_9
REMARK    3  A    between atoms: C6_8  and  N5_17
REMARK    4  A    between atoms: C7_9  and  N2_10
REMARK    5  A    between atoms: N2_10  and  N3_12
REMARK    6  A    between atoms: N5_17  and  C8_19
REMARK    7  A    between atoms: C8_19  and  C9_20
REMARK       I    between atoms: C9_20  and  N6_22
REMARK    8  A    between atoms: N6_22  and  C10_24
REMARK    9  A    between atoms: C10_24  and  C11_25
REMARK   10  A    between atoms: C11_25  and  C12_26
REMARK   11  A    between atoms: C12_26  and  N7_27
REMARK   12  A    between atoms: N7_27  and  N8_28
REMARK       I    between atoms: N7_27  and  C22_40
REMARK       I    between atoms: N8_28  and  C13_30
REMARK   13  A    between atoms: C13_30  and  C14_32
REMARK   14  A    between atoms: C14_32  and  C15_33
REMARK   15  A    between atoms: C15_33  and  C16_34
REMARK   16  A    between atoms: C22_40  and  C23_42
REMARK   17  A    between atoms: C23_42  and  C24_43
REMARK   18  A    between atoms: C24_43  and  C25_44
REMARK   19  A    between atoms: C25_44  and  C26_45
REMARK   20  A    between atoms: C26_45  and  C27_46
REMARK   21  A    between atoms: C27_46  and  C28_47
REMARK   22  A    between atoms: C28_47  and  N9_48
REMARK       I    between atoms: N9_48  and  C29_50
ROOT
HETATM    1  N7  UNL     1      41.293  19.534  66.110  1.00  0.00    -0.259 N
HETATM    2  C22 UNL     1      41.635  18.401  65.276  1.00  0.00     0.238 C
HETATM    3  O3  UNL     1      40.823  17.452  65.243  1.00  0.00    -0.272 OA
ENDROOT
BRANCH   1   4
HETATM    4  C12 UNL     1      39.996  19.485  66.797  1.00  0.00     0.154 C
BRANCH   4   5
HETATM    5  C11 UNL     1      40.107  19.094  68.249  1.00  0.00     0.041 C
BRANCH   5   6
HETATM    6  C10 UNL     1      39.350  17.847  68.554  1.00  0.00     0.124 C
BRANCH   6   7
HETATM    7  N6  UNL     1      38.802  17.275  67.352  1.00  0.00    -0.360 N
HETATM    8  C9  UNL     1      37.919  16.193  67.428  1.00  0.00     0.235 C
HETATM    9  O1  UNL     1      37.637  15.743  68.595  1.00  0.00    -0.272 OA
ATOM     10  H6  UNL     1      39.059  17.660  66.443  1.00  0.00     0.162 HD
BRANCH   8  11
HETATM   11  C8  UNL     1      37.258  15.489  66.308  1.00  0.00     0.222 C
BRANCH  11  12
HETATM   12  N5  UNL     1      37.974  15.657  65.092  1.00  0.00    -0.382 N
ATOM     13  H5  UNL     1      38.948  15.955  65.152  1.00  0.00     0.160 HD
BRANCH  12  14
HETATM   14  C6  UNL     1      37.415  15.433  63.761  1.00  0.00     0.037 C
BRANCH  14  15
HETATM   15  C5  UNL     1      38.245  15.317  62.763  1.00  0.00     0.015 A
HETATM   16  C2  UNL     1      39.051  16.192  62.098  1.00  0.00     0.034 A
HETATM   17  C1  UNL     1      39.173  17.469  62.276  1.00  0.00     0.044 C
HETATM   18  N1  UNL     1      39.755  15.515  61.136  1.00  0.00    -0.366 N
HETATM   19  C3  UNL     1      39.423  14.225  61.164  1.00  0.00     0.089 A
ATOM     20  H1  UNL     1      40.429  15.934  60.496  1.00  0.00     0.165 HD
HETATM   21  C4  UNL     1      38.491  14.070  62.159  1.00  0.00     0.032 A
ENDBRANCH  14  15
BRANCH  14  22
HETATM   22  C7  UNL     1      35.946  15.345  63.786  1.00  0.00     0.198 C
BRANCH  22  23
HETATM   23  N2  UNL     1      35.427  13.999  63.650  1.00  0.00    -0.317 N
ATOM     24  H2  UNL     1      36.036  13.292  63.238  1.00  0.00     0.182 HD
BRANCH  23  25
HETATM   25  N3  UNL     1      34.143  13.608  64.046  1.00  0.00    -0.254 N
HETATM   26  N4  UNL     1      33.609  14.045  65.111  1.00  0.00    -0.331 N
ATOM     27  H42 UNL     1      34.143  14.699  65.683  1.00  0.00     0.178 HD
ATOM     28  H41 UNL     1      32.673  13.761  65.400  1.00  0.00     0.178 HD
ATOM     29  H3  UNL     1      33.622  12.953  63.463  1.00  0.00     0.207 HD
ENDBRANCH  23  25
ENDBRANCH  22  23
ENDBRANCH  14  22
ENDBRANCH  12  14
ENDBRANCH  11  12
ENDBRANCH   8  11
ENDBRANCH   6   7
ENDBRANCH   5   6
ENDBRANCH   4   5
ENDBRANCH   1   4
BRANCH   1  30
HETATM   30  N8  UNL     1      42.207  20.555  66.209  1.00  0.00    -0.265 N
HETATM   31  C13 UNL     1      42.347  21.709  65.367  1.00  0.00     0.236 C
HETATM   32  O2  UNL     1      41.563  21.833  64.423  1.00  0.00    -0.272 OA
ATOM     33  H8  UNL     1      42.872  20.485  66.980  1.00  0.00     0.190 HD
BRANCH  31  34
HETATM   34  C14 UNL     1      43.415  22.687  65.664  1.00  0.00     0.109 C
BRANCH  34  35
HETATM   35  C15 UNL     1      44.463  22.197  66.573  1.00  0.00     0.048 C
BRANCH  35  36
HETATM   36  C16 UNL     1      45.563  23.129  66.903  1.00  0.00    -0.058 A
HETATM   37  C17 UNL     1      45.487  23.971  67.963  1.00  0.00     0.007 A
HETATM   38  C18 UNL     1      46.557  24.799  68.257  1.00  0.00     0.001 A
HETATM   39  C19 UNL     1      47.718  24.811  67.507  1.00  0.00     0.000 A
HETATM   40  C20 UNL     1      47.778  23.961  66.446  1.00  0.00     0.001 A
HETATM   41  C21 UNL     1      46.722  23.125  66.136  1.00  0.00     0.007 A
ENDBRANCH  35  36
ENDBRANCH  34  35
ENDBRANCH  31  34
ENDBRANCH   1  30
BRANCH   2  42
HETATM   42  C23 UNL     1      42.871  18.387  64.509  1.00  0.00     0.105 C
BRANCH  42  43
HETATM   43  C24 UNL     1      42.584  18.924  63.103  1.00  0.00     0.009 C
BRANCH  43  44
HETATM   44  C25 UNL     1      43.885  19.184  62.423  1.00  0.00     0.001 C
BRANCH  44  45
HETATM   45  C26 UNL     1      44.381  20.597  62.665  1.00  0.00     0.002 C
BRANCH  45  46
HETATM   46  C27 UNL     1      45.687  20.567  63.449  1.00  0.00     0.020 C
BRANCH  46  47
HETATM   47  C28 UNL     1      46.784  21.075  62.536  1.00  0.00     0.122 C
BRANCH  47  48
HETATM   48  N9  UNL     1      46.912  22.496  62.559  1.00  0.00    -0.365 N
HETATM   49  C29 UNL     1      47.440  23.204  61.475  1.00  0.00     0.181 C
HETATM   50  N10 UNL     1      46.694  23.857  60.659  1.00  0.00    -0.374 N
HETATM   51  N11 UNL     1      48.851  23.212  61.271  1.00  0.00    -0.064 NA
ATOM     52 2H10 UNL     1      45.685  23.852  60.805  1.00  0.00     0.158 HD
ATOM     53 1H10 UNL     1      47.079  24.374  59.869  1.00  0.00     0.158 HD
ATOM     54  H9  UNL     1      46.610  23.009  63.387  1.00  0.00     0.162 HD
ENDBRANCH  47  48
ENDBRANCH  46  47
ENDBRANCH  45  46
ENDBRANCH  44  45
ENDBRANCH  43  44
ENDBRANCH  42  43
ENDBRANCH   2  42
TORSDOF 22
ENDMDL