MODEL 5
REMARK VINA RESULT: -7.511505323      1.866      3.202
REMARK  22 active torsions:
REMARK  status: ('A' for Active; 'I' for Inactive)
REMARK    1  A    between atoms: N1_2  and  C3_4
REMARK    2  A    between atoms: C3_4  and  N2_6
REMARK    3  A    between atoms: N2_6  and  C4_8
REMARK    4  A    between atoms: C4_8  and  C5_9
REMARK    5  A    between atoms: C5_9  and  C6_10
REMARK    6  A    between atoms: C6_10  and  N3_11
REMARK    7  A    between atoms: N3_11  and  C8_13
REMARK    8  A    between atoms: C10_15  and  C11_16
REMARK    9  A    between atoms: C11_16  and  N5_20
REMARK   10  A    between atoms: N5_20  and  C12_22
REMARK   11  A    between atoms: C12_22  and  C13_23
REMARK   12  A    between atoms: C13_23  and  O1_24
REMARK   13  A    between atoms: O1_24  and  C14_25
REMARK   14  A    between atoms: C14_25  and  C15_26
REMARK   15  A    between atoms: C15_26  and  N6_27
REMARK   16  A    between atoms: N9_34  and  C19_35
REMARK   17  A    between atoms: C19_35  and  C20_36
REMARK   18  A    between atoms: C20_36  and  C21_37
REMARK       I    between atoms: C21_37  and  N10_39
REMARK   19  A    between atoms: N10_39  and  C22_41
REMARK   20  A    between atoms: C22_41  and  C23_42
REMARK   21  A    between atoms: C23_42  and  C24_43
REMARK   22  A    between atoms: C24_43  and  N11_44
REMARK       I    between atoms: N11_44  and  C25_46
ROOT
HETATM    1  C8  UNL     1      43.590  19.252  63.866  1.00  0.00     0.105 A
HETATM    2  C9  UNL     1      42.537  18.605  63.178  1.00  0.00     0.064 A
HETATM    3  C10 UNL     1      41.473  18.142  63.867  1.00  0.00     0.012 A
HETATM    4  C17 UNL     1      41.387  18.286  65.244  1.00  0.00     0.032 A
HETATM    5  C18 UNL     1      42.424  18.913  65.854  1.00  0.00     0.093 A
HETATM    6  N9  UNL     1      43.515  19.392  65.175  1.00  0.00    -0.343 N
ENDROOT
BRANCH   3   7
HETATM    7  C11 UNL     1      40.343  17.450  63.216  1.00  0.00     0.105 C
HETATM    8  N4  UNL     1      39.367  18.089  62.718  1.00  0.00    -0.385 N
ATOM      9  H42 UNL     1      39.327  19.108  62.745  1.00  0.00     0.157 HD
ATOM     10  H41 UNL     1      38.587  17.611  62.267  1.00  0.00     0.157 HD
BRANCH   7  11
HETATM   11  N5  UNL     1      40.399  16.042  63.179  1.00  0.00    -0.374 N
ATOM     12  H5  UNL     1      40.744  15.531  63.990  1.00  0.00     0.161 HD
BRANCH  11  13
HETATM   13  C12 UNL     1      39.980  15.325  62.024  1.00  0.00     0.147 C
BRANCH  13  14
HETATM   14  C13 UNL     1      38.590  14.769  62.090  1.00  0.00     0.187 C
BRANCH  14  15
HETATM   15  O1  UNL     1      37.552  15.471  62.272  1.00  0.00    -0.388 OA
BRANCH  15  16
HETATM   16  C14 UNL     1      36.429  15.696  62.808  1.00  0.00     0.187 C
BRANCH  16  17
HETATM   17  C15 UNL     1      36.208  15.292  64.269  1.00  0.00     0.148 C
BRANCH  17  18
HETATM   18  N6  UNL     1      36.738  16.348  65.099  1.00  0.00    -0.365 N
HETATM   19  C16 UNL     1      37.850  16.291  65.731  1.00  0.00     0.197 C
HETATM   20  N7  UNL     1      38.703  15.178  65.693  1.00  0.00    -0.067 NA
HETATM   21  N8  UNL     1      38.219  17.427  66.504  1.00  0.00    -0.067 NA
ATOM     22  H6  UNL     1      36.187  17.202  65.188  1.00  0.00     0.161 HD
ENDBRANCH  17  18
ENDBRANCH  16  17
ENDBRANCH  15  16
ENDBRANCH  14  15
ENDBRANCH  13  14
ENDBRANCH  11  13
ENDBRANCH   7  11
ENDBRANCH   3   7
BRANCH   1  23
HETATM   23  N3  UNL     1      44.612  19.683  62.990  1.00  0.00    -0.371 N
HETATM   24  C7  UNL     1      45.842  18.926  62.931  1.00  0.00     0.151 C
BRANCH  23  25
HETATM   25  C6  UNL     1      44.507  20.895  62.246  1.00  0.00     0.125 C
BRANCH  25  26
HETATM   26  C5  UNL     1      44.821  20.759  60.781  1.00  0.00     0.039 C
BRANCH  26  27
HETATM   27  C4  UNL     1      45.668  21.967  60.375  1.00  0.00     0.123 C
BRANCH  27  28
HETATM   28  N2  UNL     1      45.950  22.823  61.483  1.00  0.00    -0.367 N
ATOM     29  H2  UNL     1      45.190  23.290  61.977  1.00  0.00     0.161 HD
BRANCH  28  30
HETATM   30  C3  UNL     1      47.293  23.019  61.893  1.00  0.00     0.169 C
HETATM   31  S1  UNL     1      48.233  24.135  61.153  1.00  0.00    -0.041 SA
BRANCH  30  32
HETATM   32  N1  UNL     1      47.815  22.239  62.950  1.00  0.00    -0.367 N
HETATM   33  C1  UNL     1      47.661  22.665  64.317  1.00  0.00     0.151 C
HETATM   34  C2  UNL     1      48.506  21.006  62.655  1.00  0.00     0.151 C
ENDBRANCH  30  32
ENDBRANCH  28  30
ENDBRANCH  27  28
ENDBRANCH  26  27
ENDBRANCH  25  26
ENDBRANCH  23  25
ENDBRANCH   1  23
BRANCH   6  35
HETATM   35  C19 UNL     1      44.546  19.966  65.951  1.00  0.00     0.139 C
BRANCH  35  36
HETATM   36  C20 UNL     1      44.288  21.131  66.808  1.00  0.00     0.123 C
BRANCH  36  37
HETATM   37  C21 UNL     1      44.496  22.476  66.279  1.00  0.00     0.219 C
HETATM   38  O2  UNL     1      44.153  22.918  65.171  1.00  0.00    -0.274 OA
HETATM   39  N10 UNL     1      45.187  23.398  67.158  1.00  0.00    -0.361 N
ATOM     40  H10 UNL     1      45.502  23.112  68.085  1.00  0.00     0.162 HD
BRANCH  39  41
HETATM   41  C22 UNL     1      45.411  24.737  66.666  1.00  0.00     0.124 C
BRANCH  41  42
HETATM   42  C23 UNL     1      46.258  25.509  67.652  1.00  0.00     0.039 C
BRANCH  42  43
HETATM   43  C24 UNL     1      47.647  25.681  67.078  1.00  0.00     0.123 C
BRANCH  43  44
HETATM   44  N11 UNL     1      47.598  26.095  65.696  1.00  0.00    -0.365 N
HETATM   45  C25 UNL     1      48.749  26.577  65.045  1.00  0.00     0.181 C
HETATM   46  N12 UNL     1      49.948  26.408  65.475  1.00  0.00    -0.374 N
HETATM   47  N13 UNL     1      48.593  27.311  63.816  1.00  0.00    -0.064 NA
ATOM     48 2H12 UNL     1      50.059  25.889  66.346  1.00  0.00     0.158 HD
ATOM     49 1H12 UNL     1      50.781  26.758  65.003  1.00  0.00     0.158 HD
ATOM     50  H11 UNL     1      46.717  26.038  65.184  1.00  0.00     0.162 HD
ENDBRANCH  43  44
ENDBRANCH  42  43
ENDBRANCH  41  42
ENDBRANCH  39  41
ENDBRANCH  36  37
ENDBRANCH  35  36
ENDBRANCH   6  35
TORSDOF 22
ENDMDL