MODEL 2
REMARK VINA RESULT: -5.028069267      5.598      6.694
REMARK  1 active torsions:
REMARK  status: ('A' for Active; 'I' for Inactive)
REMARK       I    between atoms: C1_2  and  N3_7
REMARK    1  A    between atoms: N2_3  and  O1_5
ROOT
HETATM    1  N1  UNL     1      25.399  89.302  72.627  1.00  0.00    -0.060 NA
HETATM    2  C1  UNL     1      25.490  90.604  73.177  1.00  0.00     0.234 C
HETATM    3  N2  UNL     1      26.646  91.168  73.147  1.00  0.00    -0.239 N
ATOM      4  H2  UNL     1      27.438  90.671  72.739  1.00  0.00     0.197 HD
HETATM    5  N3  UNL     1      24.391  91.298  73.747  1.00  0.00    -0.228 N
HETATM    6  C2  UNL     1      23.282  90.662  74.426  1.00  0.00     0.161 C
HETATM    7  C3  UNL     1      22.767  91.852  75.245  1.00  0.00     0.051 C
HETATM    8  C4  UNL     1      22.997  92.941  74.213  1.00  0.00     0.203 C
HETATM    9  O2  UNL     1      24.255  92.639  73.721  1.00  0.00    -0.276 OA
ENDROOT
BRANCH   3  10
HETATM   10  O1  UNL     1      26.825  92.407  73.648  1.00  0.00    -0.287 OA
ATOM     11  H1  UNL     1      26.995  92.539  74.573  1.00  0.00     0.244 HD
ENDBRANCH   3  10
TORSDOF 1
ENDMDL