MODEL 1
REMARK VINA RESULT: -4.529700633      0.000      0.000
REMARK  2 active torsions:
REMARK  status: ('A' for Active; 'I' for Inactive)
REMARK    1  A    between atoms: C5_6  and  N1_7
REMARK    2  A    between atoms: C6_11  and  N2_12
ROOT
HETATM    1  C1  UNL     1      21.964  89.565  77.134  1.00  0.00     0.014 C
HETATM    2  C2  UNL     1      22.566  90.562  76.134  1.00  0.00     0.038 C
HETATM    3  C3  UNL     1      22.176  91.971  76.444  1.00  0.00     0.174 C
HETATM    4  O1  UNL     1      21.596  92.657  75.423  1.00  0.00    -0.389 OA
HETATM    5  C4  UNL     1      22.194  92.528  74.196  1.00  0.00     0.202 C
HETATM    6  C5  UNL     1      22.289  91.114  73.698  1.00  0.00     0.237 C
HETATM    7  C6  UNL     1      22.170  90.091  74.777  1.00  0.00     0.221 C
ENDROOT
BRANCH   6   8
HETATM    8  N1  UNL     1      23.537  90.906  72.997  1.00  0.00    -0.071 N
ATOM      9  H13 UNL     1      23.420  90.297  72.187  1.00  0.00     0.274 HD
ATOM     10  H12 UNL     1      23.844  91.749  72.511  1.00  0.00     0.274 HD
ATOM     11  H11 UNL     1      24.251  90.555  73.635  1.00  0.00     0.274 HD
ENDBRANCH   6   8
BRANCH   7  12
HETATM   12  N2  UNL     1      20.813  89.534  74.815  1.00  0.00    -0.072 N
ATOM     13  H23 UNL     1      20.138  90.137  74.345  1.00  0.00     0.274 HD
ATOM     14  H22 UNL     1      20.720  88.713  74.216  1.00  0.00     0.274 HD
ATOM     15  H21 UNL     1      20.544  89.337  75.779  1.00  0.00     0.274 HD
ENDBRANCH   7  12
TORSDOF 2
ENDMDL