MODEL 3
REMARK VINA RESULT: -4.636903754      3.190      3.394
REMARK  2 active torsions:
REMARK  status: ('A' for Active; 'I' for Inactive)
REMARK    1  A    between atoms: C3_4  and  N1_5
REMARK    2  A    between atoms: C4_9  and  O2_10
ROOT
HETATM    1  C1  UNL     1      21.333  89.698  75.530  1.00  0.00     0.040 C
HETATM    2  C2  UNL     1      20.052  89.448  74.845  1.00  0.00     0.126 C
HETATM    3  O1  UNL     1      20.190  89.156  73.474  1.00  0.00    -0.352 OA
HETATM    4  C3  UNL     1      18.889  89.157  72.987  1.00  0.00     0.348 C
HETATM    5  C4  UNL     1      18.077  90.074  73.845  1.00  0.00     0.180 C
HETATM    6  C5  UNL     1      19.184  90.707  74.704  1.00  0.00     0.043 C
HETATM    7  C6  UNL     1      18.671  91.198  76.005  1.00  0.00     0.015 C
ENDROOT
BRANCH   4   8
HETATM    8  N1  UNL     1      18.838  89.557  71.584  1.00  0.00    -0.050 N
ATOM      9  H13 UNL     1      19.196  88.823  70.974  1.00  0.00     0.277 HD
ATOM     10  H12 UNL     1      17.878  89.594  71.242  1.00  0.00     0.277 HD
ATOM     11  H11 UNL     1      19.324  90.441  71.426  1.00  0.00     0.277 HD
ENDBRANCH   4   8
BRANCH   5  12
HETATM   12  O2  UNL     1      17.327  89.290  74.717  1.00  0.00    -0.391 OA
ATOM     13  H2  UNL     1      17.032  88.523  74.240  1.00  0.00     0.210 HD
ENDBRANCH   5  12
TORSDOF 2
ENDMDL