MODEL 2
REMARK VINA RESULT: -4.738255003      3.250      3.974
REMARK  2 active torsions:
REMARK  status: ('A' for Active; 'I' for Inactive)
REMARK    1  A    between atoms: C5_6  and  O2_7
REMARK    2  A    between atoms: C6_9  and  O3_10
ROOT
HETATM    1  C1  UNL     1      22.169  89.858  77.575  1.00  0.00     0.020 C
HETATM    2  C2  UNL     1      22.111  90.518  76.240  1.00  0.00     0.015 A
HETATM    3  C3  UNL     1      22.331  92.036  76.248  1.00  0.00     0.047 A
HETATM    4  C4  UNL     1      21.048  91.442  75.834  1.00  0.00     0.136 A
HETATM    5  O1  UNL     1      20.690  91.230  74.534  1.00  0.00    -0.353 OA
HETATM    6  C5  UNL     1      21.373  90.167  74.026  1.00  0.00     0.286 C
HETATM    7  C6  UNL     1      22.446  89.762  74.986  1.00  0.00     0.183 C
ENDROOT
BRANCH   6   8
HETATM    8  O2  UNL     1      20.545  89.062  73.737  1.00  0.00    -0.369 OA
ATOM      9  H2  UNL     1      21.032  88.265  73.564  1.00  0.00     0.212 HD
ENDBRANCH   6   8
BRANCH   7  10
HETATM   10  O3  UNL     1      23.713  90.077  74.487  1.00  0.00    -0.390 OA
ATOM     11  H3  UNL     1      23.677  90.548  73.663  1.00  0.00     0.210 HD
ENDBRANCH   7  10
TORSDOF 2
ENDMDL