MODEL 5
REMARK VINA RESULT: -4.727063839      1.967      3.230
REMARK  2 active torsions:
REMARK  status: ('A' for Active; 'I' for Inactive)
REMARK    1  A    between atoms: C4_4  and  O1_5
REMARK    2  A    between atoms: N1_8  and  O2_9
ROOT
HETATM    1  C1  UNL     1      21.297  89.940  74.993  1.00  0.00     0.016 C
HETATM    2  C2  UNL     1      22.742  90.393  75.053  1.00  0.00     0.025 C
HETATM    3  C3  UNL     1      23.466  89.715  73.921  1.00  0.00     0.047 C
HETATM    4  C4  UNL     1      24.827  90.296  73.667  1.00  0.00     0.159 C
HETATM    5  C5  UNL     1      24.927  91.758  73.800  1.00  0.00     0.126 C
HETATM    6  N1  UNL     1      23.901  92.473  74.401  1.00  0.00    -0.252 N
HETATM    7  C6  UNL     1      22.820  91.873  75.017  1.00  0.00     0.099 C
ENDROOT
BRANCH   4   8
HETATM    8  O1  UNL     1      25.213  89.863  72.396  1.00  0.00    -0.390 OA
ATOM      9  H1  UNL     1      25.965  90.388  72.148  1.00  0.00     0.210 HD
ENDBRANCH   4   8
BRANCH   6  10
HETATM   10  O2  UNL     1      23.554  93.597  73.718  1.00  0.00    -0.284 OA
ATOM     11  H2  UNL     1      23.125  94.250  74.258  1.00  0.00     0.245 HD
ENDBRANCH   6  10
TORSDOF 2
ENDMDL