MODEL 1
REMARK VINA RESULT: -4.749690851      0.000      0.000
REMARK  2 active torsions:
REMARK  status: ('A' for Active; 'I' for Inactive)
REMARK    1  A    between atoms: C5_6  and  O2_7
REMARK    2  A    between atoms: C6_9  and  N1_10
ROOT
HETATM    1  C1  UNL     1      20.572  91.336  75.252  1.00  0.00     0.012 C
HETATM    2  C2  UNL     1      19.538  90.545  74.497  1.00  0.00     0.019 C
HETATM    3  C3  UNL     1      18.175  90.947  74.938  1.00  0.00     0.033 C
HETATM    4  C4  UNL     1      17.119  89.921  74.840  1.00  0.00     0.171 C
HETATM    5  O1  UNL     1      17.349  88.810  74.118  1.00  0.00    -0.359 OA
HETATM    6  C5  UNL     1      18.604  88.430  73.837  1.00  0.00     0.287 C
HETATM    7  C6  UNL     1      19.683  89.054  74.690  1.00  0.00     0.241 C
ENDROOT
BRANCH   7   8
HETATM    8  N1  UNL     1      19.536  88.665  76.059  1.00  0.00    -0.070 N
ATOM      9  H13 UNL     1      20.050  89.292  76.678  1.00  0.00     0.274 HD
ATOM     10  H12 UNL     1      18.590  88.846  76.393  1.00  0.00     0.274 HD
ATOM     11  H11 UNL     1      19.802  87.693  76.218  1.00  0.00     0.274 HD
ENDBRANCH   7   8
BRANCH   6  12
HETATM   12  O2  UNL     1      18.913  88.633  72.478  1.00  0.00    -0.369 OA
ATOM     13  H2  UNL     1      19.220  87.833  72.068  1.00  0.00     0.212 HD
ENDBRANCH   6  12
TORSDOF 2
ENDMDL