MODEL 2
REMARK VINA RESULT: -4.976151403      3.063      4.297
REMARK  2 active torsions:
REMARK  status: ('A' for Active; 'I' for Inactive)
REMARK    1  A    between atoms: C5_5  and  N1_6
REMARK    2  A    between atoms: N2_11  and  O1_12
ROOT
HETATM    1  C1  UNL     1      23.004  93.142  74.132  1.00  0.00     0.028 C
HETATM    2  C2  UNL     1      23.702  91.837  74.123  1.00  0.00     0.082 C
HETATM    3  C3  UNL     1      22.925  90.751  73.368  1.00  0.00     0.024 C
HETATM    4  C4  UNL     1      23.576  89.471  73.857  1.00  0.00     0.036 C
HETATM    5  C5  UNL     1      25.046  89.440  73.576  1.00  0.00     0.198 C
HETATM    6  C6  UNL     1      25.717  90.724  73.389  1.00  0.00     0.153 C
HETATM    7  N2  UNL     1      24.986  91.917  73.520  1.00  0.00    -0.194 NA
ENDROOT
BRANCH   5   8
HETATM    8  N1  UNL     1      25.196  88.572  72.393  1.00  0.00    -0.074 N
ATOM      9  H13 UNL     1      25.769  87.744  72.560  1.00  0.00     0.274 HD
ATOM     10  H12 UNL     1      24.343  88.076  72.135  1.00  0.00     0.274 HD
ATOM     11  H11 UNL     1      25.557  89.180  71.658  1.00  0.00     0.274 HD
ENDBRANCH   5   8
BRANCH   7  12
HETATM   12  O1  UNL     1      25.675  92.919  74.137  1.00  0.00    -0.313 OA
ATOM     13  H1  UNL     1      25.596  92.793  75.075  1.00  0.00     0.237 HD
ENDBRANCH   7  12
TORSDOF 2
ENDMDL