MODEL 2
REMARK VINA RESULT: -5.095801235      4.471      6.042
REMARK  2 active torsions:
REMARK  status: ('A' for Active; 'I' for Inactive)
REMARK    1  A    between atoms: C4_5  and  O2_6
REMARK    2  A    between atoms: C6_9  and  O3_10
ROOT
HETATM    1  C1  UNL     1      23.175  92.939  74.672  1.00  0.00     0.042 C
HETATM    2  C2  UNL     1      23.870  91.683  74.265  1.00  0.00     0.146 C
HETATM    3  O1  UNL     1      23.064  90.945  73.370  1.00  0.00    -0.381 OA
HETATM    4  C3  UNL     1      23.446  89.626  73.503  1.00  0.00     0.200 C
HETATM    5  C4  UNL     1      24.904  89.384  73.486  1.00  0.00     0.144 C
HETATM    6  C5  UNL     1      25.776  90.553  73.261  1.00  0.00     0.068 C
HETATM    7  C6  UNL     1      25.171  91.885  73.573  1.00  0.00     0.149 C
ENDROOT
BRANCH   5   8
HETATM    8  O2  UNL     1      25.160  88.373  72.531  1.00  0.00    -0.393 OA
ATOM      9  H2  UNL     1      25.753  87.745  72.927  1.00  0.00     0.210 HD
ENDBRANCH   5   8
BRANCH   7  10
HETATM   10  O3  UNL     1      26.024  92.721  74.289  1.00  0.00    -0.393 OA
ATOM     11  H3  UNL     1      26.622  92.234  74.844  1.00  0.00     0.210 HD
ENDBRANCH   7  10
TORSDOF 2
ENDMDL