MODEL 2
REMARK VINA RESULT: -4.502069189      3.208      4.518
REMARK  2 active torsions:
REMARK  status: ('A' for Active; 'I' for Inactive)
REMARK    1  A    between atoms: C5_6  and  O2_7
REMARK    2  A    between atoms: C6_9  and  O3_10
ROOT
HETATM    1  C1  UNL     1      24.157  92.642  74.954  1.00  0.00     0.048 C
HETATM    2  C2  UNL     1      22.817  91.949  74.817  1.00  0.00     0.082 C
HETATM    3  C3  UNL     1      21.756  92.949  75.242  1.00  0.00     0.048 C
HETATM    4  O1  UNL     1      22.772  90.798  75.554  1.00  0.00    -0.376 OA
HETATM    5  C4  UNL     1      22.460  89.737  74.758  1.00  0.00     0.203 C
HETATM    6  C5  UNL     1      21.785  90.306  73.501  1.00  0.00     0.173 C
HETATM    7  C6  UNL     1      22.560  91.593  73.368  1.00  0.00     0.182 C
ENDROOT
BRANCH   7   8
HETATM    8  O3  UNL     1      23.757  91.251  72.703  1.00  0.00    -0.390 OA
ATOM      9  H3  UNL     1      23.594  90.654  71.983  1.00  0.00     0.210 HD
ENDBRANCH   7   8
BRANCH   6  10
HETATM   10  O2  UNL     1      20.459  90.492  73.815  1.00  0.00    -0.391 OA
ATOM     11  H2  UNL     1      20.169  89.700  74.252  1.00  0.00     0.210 HD
ENDBRANCH   6  10
TORSDOF 2
ENDMDL