MODEL 2
REMARK VINA RESULT: -4.412105829      2.523      3.068
REMARK  2 active torsions:
REMARK  status: ('A' for Active; 'I' for Inactive)
REMARK    1  A    between atoms: N1_1  and  C1_5
REMARK    2  A    between atoms: C5_10  and  O1_11
ROOT
HETATM    1  C1  UNL     1      23.944  92.030  73.828  1.00  0.00     0.213 C
HETATM    2  C2  UNL     1      23.205  91.011  74.706  1.00  0.00     0.045 C
HETATM    3  C3  UNL     1      22.982  89.798  73.825  1.00  0.00     0.076 C
HETATM    4  S1  UNL     1      24.565  89.305  73.138  1.00  0.00    -0.166 SA
HETATM    5  C4  UNL     1      25.778  90.617  73.092  1.00  0.00     0.107 C
HETATM    6  C5  UNL     1      25.408  91.783  74.021  1.00  0.00     0.157 C
ENDROOT
BRANCH   1   7
HETATM    7  N1  UNL     1      23.484  93.312  74.155  1.00  0.00    -0.073 N
ATOM      8  H13 UNL     1      23.999  93.728  74.931  1.00  0.00     0.274 HD
ATOM      9  H12 UNL     1      23.719  94.005  73.445  1.00  0.00     0.274 HD
ATOM     10  H11 UNL     1      22.480  93.259  74.334  1.00  0.00     0.274 HD
ENDBRANCH   1   7
BRANCH   6  11
HETATM   11  O1  UNL     1      26.201  92.874  73.771  1.00  0.00    -0.393 OA
ATOM     12  H1  UNL     1      27.130  92.681  73.738  1.00  0.00     0.210 HD
ENDBRANCH   6  11
TORSDOF 2
ENDMDL