MODEL 3
REMARK VINA RESULT: -7.890526915      3.328      6.297
REMARK  21 active torsions:
REMARK  status: ('A' for Active; 'I' for Inactive)
REMARK    1  A    between atoms: C2_2  and  C3_3
REMARK    2  A    between atoms: C3_3  and  N1_4
REMARK    3  A    between atoms: N1_4  and  C4_6
REMARK    4  A    between atoms: C5_9  and  N3_10
REMARK    5  A    between atoms: N3_10  and  C6_12
REMARK    6  A    between atoms: C6_12  and  C7_13
REMARK    7  A    between atoms: C7_13  and  C8_14
REMARK    8  A    between atoms: C8_14  and  N4_15
REMARK    9  A    between atoms: N4_15  and  C9_17
REMARK   10  A    between atoms: C9_17  and  O1_18
REMARK   11  A    between atoms: C9_17  and  C10_20
REMARK   12  A    between atoms: C10_20  and  C11_21
REMARK   13  A    between atoms: C11_21  and  C12_22
REMARK   14  A    between atoms: C12_22  and  C13_23
REMARK   15  A    between atoms: C12_22  and  C16_30
REMARK   16  A    between atoms: C13_23  and  C14_24
REMARK   17  A    between atoms: C14_24  and  N5_25
REMARK   18  A    between atoms: N9_39  and  C23_41
REMARK   19  A    between atoms: C23_41  and  C24_42
REMARK   20  A    between atoms: C24_42  and  C25_43
REMARK   21  A    between atoms: C25_43  and  N10_44
ROOT
HETATM    1  C4  UNL     1     -10.065  16.256  -2.041  1.00  0.00     0.707 A
HETATM    2  N2  UNL     1     -10.454  15.414  -1.073  1.00  0.00    -0.022 N
ATOM      3  H2  UNL     1     -11.073  14.628  -1.277  1.00  0.00     0.203 HD
HETATM    4  C5  UNL     1     -10.005  15.634   0.176  1.00  0.00     0.707 A
HETATM    5  N8  UNL     1      -9.172  16.704   0.423  1.00  0.00    -0.022 N
ATOM      6  H8  UNL     1      -8.842  16.856   1.376  1.00  0.00     0.203 HD
HETATM    7  C22 UNL     1      -8.779  17.547  -0.529  1.00  0.00     0.707 A
HETATM    8  N9  UNL     1      -8.021  18.549  -0.349  1.00  0.00    -0.225 N
ATOM      9  H9  UNL     1      -7.799  19.113  -1.170  1.00  0.00     0.177 HD
HETATM   10  N12 UNL     1      -9.251  17.298  -1.792  1.00  0.00    -0.022 N
ATOM     11  H12 UNL     1      -8.980  17.916  -2.557  1.00  0.00     0.203 HD
ENDROOT
BRANCH   4  12
HETATM   12  N3  UNL     1     -10.326  14.896   1.155  1.00  0.00    -0.225 N
ATOM     13  H3  UNL     1      -9.623  14.679   1.861  1.00  0.00     0.177 HD
BRANCH  12  14
HETATM   14  C6  UNL     1     -11.645  14.357   1.298  1.00  0.00     0.139 C
BRANCH  14  15
HETATM   15  C7  UNL     1     -12.588  15.424   1.845  1.00  0.00     0.040 C
BRANCH  15  16
HETATM   16  C8  UNL     1     -13.835  14.744   2.301  1.00  0.00     0.123 C
BRANCH  16  17
HETATM   17  N4  UNL     1     -13.616  14.015   3.553  1.00  0.00    -0.371 N
ATOM     18  H4  UNL     1     -12.915  13.274   3.572  1.00  0.00     0.161 HD
BRANCH  17  19
HETATM   19  C9  UNL     1     -14.328  14.294   4.721  1.00  0.00     0.135 C
BRANCH  19  20
HETATM   20  O1  UNL     1     -15.368  13.510   4.935  1.00  0.00    -0.346 OA
ATOM     21  H1  UNL     1     -16.128  13.702   4.399  1.00  0.00     0.219 HD
ENDBRANCH  19  20
BRANCH  19  22
HETATM   22  C10 UNL     1     -14.138  15.281   5.733  1.00  0.00     0.052 C
BRANCH  22  23
HETATM   23  C11 UNL     1     -13.059  15.715   6.287  1.00  0.00    -0.013 C
BRANCH  23  24
HETATM   24  C12 UNL     1     -11.795  15.125   6.664  1.00  0.00     0.042 C
BRANCH  24  25
HETATM   25  C13 UNL     1     -11.626  14.922   8.144  1.00  0.00     0.033 C
BRANCH  25  26
HETATM   26  C14 UNL     1     -12.466  13.823   8.706  1.00  0.00     0.123 C
BRANCH  26  27
HETATM   27  N5  UNL     1     -12.379  12.606   7.917  1.00  0.00    -0.367 N
HETATM   28  C15 UNL     1     -13.429  11.970   7.527  1.00  0.00     0.196 C
HETATM   29  N6  UNL     1     -13.349  10.795   6.764  1.00  0.00    -0.067 NA
HETATM   30  N7  UNL     1     -14.697  12.493   7.893  1.00  0.00    -0.067 NA
ATOM     31  H5  UNL     1     -11.460  12.245   7.664  1.00  0.00     0.161 HD
ENDBRANCH  26  27
ENDBRANCH  25  26
ENDBRANCH  24  25
BRANCH  24  32
HETATM   32  C16 UNL     1     -10.682  15.988   6.120  1.00  0.00    -0.050 A
HETATM   33  C17 UNL     1     -10.807  16.409   4.805  1.00  0.00     0.008 A
HETATM   34  C18 UNL     1      -9.846  17.198   4.192  1.00  0.00     0.001 A
HETATM   35  C19 UNL     1      -8.756  17.542   4.965  1.00  0.00     0.000 A
HETATM   36  C20 UNL     1      -8.601  17.147   6.255  1.00  0.00     0.001 A
HETATM   37  C21 UNL     1      -9.581  16.353   6.850  1.00  0.00     0.008 A
ENDBRANCH  24  32
ENDBRANCH  23  24
ENDBRANCH  22  23
ENDBRANCH  19  22
ENDBRANCH  17  19
ENDBRANCH  16  17
ENDBRANCH  15  16
ENDBRANCH  14  15
ENDBRANCH  12  14
ENDBRANCH   4  12
BRANCH   1  38
HETATM   38  N1  UNL     1     -10.451  16.106  -3.257  1.00  0.00    -0.222 N
ATOM     39  H1  UNL     1     -11.444  16.222  -3.459  1.00  0.00     0.178 HD
BRANCH  38  40
HETATM   40  C3  UNL     1      -9.586  15.788  -4.338  1.00  0.00     0.164 C
BRANCH  40  41
HETATM   41  C2  UNL     1      -9.796  16.628  -5.556  1.00  0.00    -0.017 C
HETATM   42  C1  UNL     1      -8.939  17.544  -5.945  1.00  0.00     0.008 C
ENDBRANCH  40  41
ENDBRANCH  38  40
ENDBRANCH   1  38
BRANCH   8  43
HETATM   43  C23 UNL     1      -7.458  18.957   0.877  1.00  0.00     0.140 C
BRANCH  43  44
HETATM   44  C24 UNL     1      -5.955  19.176   0.761  1.00  0.00     0.050 C
BRANCH  44  45
HETATM   45  C25 UNL     1      -5.642  19.665  -0.615  1.00  0.00     0.274 C
BRANCH  45  46
HETATM   46  N10 UNL     1      -4.379  19.130  -1.093  1.00  0.00     0.091 N
HETATM   47  C26 UNL     1      -4.057  19.801  -2.329  1.00  0.00     0.302 C
HETATM   48  C27 UNL     1      -2.697  19.375  -2.850  1.00  0.00     0.302 C
HETATM   49  N11 UNL     1      -2.382  18.116  -2.200  1.00  0.00     0.087 N
HETATM   50  C28 UNL     1      -1.154  17.538  -2.655  1.00  0.00     0.310 C
HETATM   51  C29 UNL     1      -3.507  17.229  -2.285  1.00  0.00     0.302 C
HETATM   52  C30 UNL     1      -4.530  17.703  -1.248  1.00  0.00     0.302 C
ENDBRANCH  45  46
ENDBRANCH  44  45
ENDBRANCH  43  44
ENDBRANCH   8  43
TORSDOF 21
ENDMDL