MODEL 2
REMARK VINA RESULT: -8.164644196      2.398     10.490
REMARK  17 active torsions:
REMARK  status: ('A' for Active; 'I' for Inactive)
REMARK    1  A    between atoms: N1_2  and  C2_3
REMARK       I    between atoms: N1_2  and  C9_14
REMARK    2  A    between atoms: C2_3  and  C3_4
REMARK    3  A    between atoms: C3_4  and  C4_5
REMARK    4  A    between atoms: C4_5  and  C5_6
REMARK    5  A    between atoms: C5_6  and  C6_7
REMARK    6  A    between atoms: C6_7  and  C7_8
REMARK    7  A    between atoms: C7_8  and  C8_9
REMARK    8  A    between atoms: C8_9  and  N2_10
REMARK    9  A    between atoms: C9_14  and  C10_16
REMARK   10  A    between atoms: C10_16  and  C11_17
REMARK   11  A    between atoms: C10_16  and  N6_26
REMARK   12  A    between atoms: C11_17  and  C12_18
REMARK   13  A    between atoms: C12_18  and  C13_19
REMARK   14  A    between atoms: C13_19  and  C14_20
REMARK   15  A    between atoms: C14_20  and  N3_21
REMARK   16  A    between atoms: N6_26  and  S1_28
REMARK   17  A    between atoms: S1_28  and  C16_31
ROOT
HETATM    1  C10 UNL     1     -10.319  15.966   0.515  1.00  0.00     0.185 C
ENDROOT
BRANCH   1   2
HETATM    2  C9  UNL     1     -10.382  16.943   1.623  1.00  0.00     0.242 C
HETATM    3  N1  UNL     1      -9.796  16.803   2.891  1.00  0.00    -0.355 N
HETATM    4  C1  UNL     1     -10.009  17.878   3.873  1.00  0.00     0.152 C
HETATM    5  O1  UNL     1     -11.038  18.021   1.388  1.00  0.00    -0.271 OA
BRANCH   3   6
HETATM    6  C2  UNL     1      -8.965  15.706   3.325  1.00  0.00     0.125 C
BRANCH   6   7
HETATM    7  C3  UNL     1      -9.362  15.275   4.723  1.00  0.00     0.020 C
BRANCH   7   8
HETATM    8  C4  UNL     1      -8.217  15.615   5.712  1.00  0.00     0.002 C
BRANCH   8   9
HETATM    9  C5  UNL     1      -8.834  15.556   7.067  1.00  0.00     0.000 C
BRANCH   9  10
HETATM   10  C6  UNL     1      -9.702  16.633   7.532  1.00  0.00     0.002 C
BRANCH  10  11
HETATM   11  C7  UNL     1     -10.900  16.409   8.355  1.00  0.00     0.027 C
BRANCH  11  12
HETATM   12  C8  UNL     1     -11.756  15.255   8.021  1.00  0.00     0.229 C
BRANCH  12  13
HETATM   13  N2  UNL     1     -12.684  15.629   6.970  1.00  0.00    -0.079 N
ATOM     14  H23 UNL     1     -13.490  16.139   7.332  1.00  0.00     0.274 HD
ATOM     15  H22 UNL     1     -12.309  16.360   6.367  1.00  0.00     0.274 HD
ATOM     16  H21 UNL     1     -12.957  14.798   6.446  1.00  0.00     0.274 HD
ENDBRANCH  12  13
ENDBRANCH  11  12
ENDBRANCH  10  11
ENDBRANCH   9  10
ENDBRANCH   8   9
ENDBRANCH   7   8
ENDBRANCH   6   7
ENDBRANCH   3   6
ENDBRANCH   1   2
BRANCH   1  17
HETATM   17  C11 UNL     1     -11.600  15.120   0.515  1.00  0.00     0.035 C
BRANCH  17  18
HETATM   18  C12 UNL     1     -11.599  14.025   1.514  1.00  0.00     0.004 C
BRANCH  18  19
HETATM   19  C13 UNL     1     -12.988  13.844   2.065  1.00  0.00     0.020 C
BRANCH  19  20
HETATM   20  C14 UNL     1     -13.138  14.349   3.480  1.00  0.00     0.122 C
BRANCH  20  21
HETATM   21  N3  UNL     1     -14.337  15.158   3.540  1.00  0.00    -0.367 N
HETATM   22  C15 UNL     1     -15.169  15.046   4.504  1.00  0.00     0.196 C
HETATM   23  N4  UNL     1     -14.960  14.119   5.568  1.00  0.00    -0.067 NA
HETATM   24  N5  UNL     1     -16.339  15.841   4.553  1.00  0.00    -0.067 NA
ATOM     25  H3  UNL     1     -14.523  15.831   2.796  1.00  0.00     0.161 HD
ENDBRANCH  20  21
ENDBRANCH  19  20
ENDBRANCH  18  19
ENDBRANCH  17  18
ENDBRANCH   1  17
BRANCH   1  26
HETATM   26  N6  UNL     1     -10.412  16.676  -0.787  1.00  0.00    -0.302 N
ATOM     27  H6  UNL     1     -11.288  16.961  -1.225  1.00  0.00     0.173 HD
BRANCH  26  28
HETATM   28  S1  UNL     1      -8.859  16.957  -1.457  1.00  0.00     0.260 S
HETATM   29  O2  UNL     1      -8.361  18.281  -0.873  1.00  0.00    -0.200 OA
HETATM   30  O3  UNL     1      -7.846  15.952  -0.966  1.00  0.00    -0.200 OA
BRANCH  28  31
HETATM   31  C16 UNL     1      -8.951  17.047  -3.171  1.00  0.00     0.091 A
HETATM   32  C17 UNL     1     -10.110  16.529  -3.766  1.00  0.00     0.026 A
HETATM   33  C18 UNL     1     -10.281  16.514  -5.122  1.00  0.00     0.004 A
HETATM   34  C19 UNL     1      -9.279  17.025  -5.900  1.00  0.00     0.037 A
HETATM   35  C20 UNL     1      -8.149  17.531  -5.317  1.00  0.00     0.079 A
HETATM   36  C21 UNL     1      -7.943  17.561  -3.925  1.00  0.00     0.029 A
HETATM   37  O5  UNL     1      -7.043  18.086  -5.964  1.00  0.00    -0.348 OA
HETATM   38  C22 UNL     1      -6.676  18.206  -3.715  1.00  0.00     0.089 C
HETATM   39  C23 UNL     1      -6.863  19.711  -3.605  1.00  0.00     0.058 C
HETATM   40  N8  UNL     1      -5.751  17.691  -2.776  1.00  0.00    -0.327 N
HETATM   41  C26 UNL     1      -5.966  18.019  -5.086  1.00  0.00     0.212 C
HETATM   42  C24 UNL     1      -5.596  20.445  -3.335  1.00  0.00     0.127 C
HETATM   43  N7  UNL     1      -4.956  19.942  -2.136  1.00  0.00    -0.343 N
HETATM   44  C25 UNL     1      -5.148  18.558  -1.824  1.00  0.00     0.317 C
ATOM     45  H7  UNL     1      -4.393  20.548  -1.539  1.00  0.00     0.164 HD
HETATM   46  O4  UNL     1      -4.763  18.166  -0.697  1.00  0.00    -0.247 OA
ATOM     47  H8  UNL     1      -5.517  16.698  -2.782  1.00  0.00     0.165 HD
ENDBRANCH  28  31
ENDBRANCH  26  28
ENDBRANCH   1  26
TORSDOF 17
ENDMDL