MODEL 3
REMARK VINA RESULT: -8.474790820      2.847      8.575
REMARK  20 active torsions:
REMARK  status: ('A' for Active; 'I' for Inactive)
REMARK    1  A    between atoms: C2_2  and  N1_3
REMARK    2  A    between atoms: N1_3  and  C3_4
REMARK       I    between atoms: N1_3  and  C10_11
REMARK    3  A    between atoms: C3_4  and  C4_5
REMARK    4  A    between atoms: C10_11  and  C11_13
REMARK    5  A    between atoms: C11_13  and  C12_14
REMARK    6  A    between atoms: C12_14  and  N6_39
REMARK    7  A    between atoms: N2_15  and  C13_17
REMARK    8  A    between atoms: C13_17  and  C14_18
REMARK    9  A    between atoms: C14_18  and  C15_19
REMARK   10  A    between atoms: C15_19  and  C16_20
REMARK   11  A    between atoms: N4_28  and  C20_29
REMARK   12  A    between atoms: C20_29  and  O4_30
REMARK   13  A    between atoms: C20_29  and  C21_32
REMARK   14  A    between atoms: C21_32  and  N5_33
REMARK   15  A    between atoms: C21_32  and  C22_37
REMARK   16  A    between atoms: N6_39  and  C23_41
REMARK   17  A    between atoms: C23_41  and  C24_42
REMARK   18  A    between atoms: C24_42  and  C25_43
REMARK   19  A    between atoms: C25_43  and  C26_44
REMARK   20  A    between atoms: C26_44  and  N7_45
REMARK       I    between atoms: N7_45  and  C27_47
ROOT
HETATM    1  C12 UNL     1      -9.469  15.937   2.060  1.00  0.00     0.081 C
HETATM    2  N2  UNL     1     -10.706  15.997   1.947  1.00  0.00    -0.380 N
ATOM      3  H2  UNL     1     -11.196  16.362   2.763  1.00  0.00     0.160 HD
ENDROOT
BRANCH   1   4
HETATM    4  C11 UNL     1      -8.596  15.427   0.955  1.00  0.00     0.179 C
BRANCH   4   5
HETATM    5  C10 UNL     1      -7.596  16.434   0.587  1.00  0.00     0.230 C
HETATM    6  N1  UNL     1      -7.760  17.448  -0.372  1.00  0.00    -0.332 N
HETATM    7  O1  UNL     1      -6.466  16.383   1.212  1.00  0.00    -0.273 OA
BRANCH   6   8
HETATM    8  C2  UNL     1      -6.643  18.397  -0.504  1.00  0.00     0.126 C
HETATM    9  C1  UNL     1      -6.746  19.480   0.552  1.00  0.00     0.027 C
ENDBRANCH   6   8
BRANCH   6  10
HETATM   10  C3  UNL     1      -8.891  17.579  -1.196  1.00  0.00     0.071 C
BRANCH  10  11
HETATM   11  C4  UNL     1      -8.985  16.832  -2.469  1.00  0.00     0.024 C
HETATM   12  C5  UNL     1     -10.406  16.378  -2.795  1.00  0.00     0.010 C
HETATM   13  C6  UNL     1     -10.293  15.221  -3.760  1.00  0.00     0.001 C
HETATM   14  C7  UNL     1      -9.103  15.262  -4.654  1.00  0.00     0.000 C
HETATM   15  C8  UNL     1      -8.683  16.687  -4.947  1.00  0.00     0.001 C
HETATM   16  C9  UNL     1      -8.392  17.451  -3.682  1.00  0.00     0.010 C
ENDBRANCH  10  11
ENDBRANCH   6  10
ENDBRANCH   4   5
ENDBRANCH   1   4
BRANCH   1  17
HETATM   17  N6  UNL     1      -8.763  16.344   3.241  1.00  0.00    -0.380 N
ATOM     18  H6  UNL     1      -8.063  15.724   3.647  1.00  0.00     0.160 HD
BRANCH  17  19
HETATM   19  C23 UNL     1      -9.033  17.630   3.867  1.00  0.00     0.121 C
BRANCH  19  20
HETATM   20  C24 UNL     1      -9.134  17.487   5.350  1.00  0.00     0.021 C
BRANCH  20  21
HETATM   21  C25 UNL     1      -8.039  16.614   5.935  1.00  0.00     0.021 C
BRANCH  21  22
HETATM   22  C26 UNL     1      -8.636  15.467   6.703  1.00  0.00     0.122 C
BRANCH  22  23
HETATM   23  N7  UNL     1      -9.327  15.868   7.893  1.00  0.00    -0.365 N
HETATM   24  C27 UNL     1     -10.728  15.571   7.957  1.00  0.00     0.181 C
HETATM   25  N8  UNL     1     -11.156  14.353   7.817  1.00  0.00    -0.374 N
HETATM   26  N9  UNL     1     -11.703  16.567   8.172  1.00  0.00    -0.064 NA
ATOM     27  H82 UNL     1     -10.450  13.632   7.663  1.00  0.00     0.158 HD
ATOM     28  H81 UNL     1     -12.152  14.141   7.863  1.00  0.00     0.158 HD
ATOM     29  H7  UNL     1      -8.846  16.342   8.658  1.00  0.00     0.162 HD
ENDBRANCH  22  23
ENDBRANCH  21  22
ENDBRANCH  20  21
ENDBRANCH  19  20
ENDBRANCH  17  19
ENDBRANCH   1  17
BRANCH   2  30
HETATM   30  C13 UNL     1     -11.542  15.637   0.859  1.00  0.00     0.121 C
BRANCH  30  31
HETATM   31  C14 UNL     1     -12.254  14.352   1.247  1.00  0.00     0.022 C
BRANCH  31  32
HETATM   32  C15 UNL     1     -13.397  14.546   2.179  1.00  0.00     0.039 C
BRANCH  32  33
HETATM   33  C16 UNL     1     -13.212  13.827   3.510  1.00  0.00     0.208 C
HETATM   34  C17 UNL     1     -12.629  14.778   4.519  1.00  0.00     0.243 C
HETATM   35  O2  UNL     1     -11.391  14.882   4.633  1.00  0.00    -0.271 OA
HETATM   36  N3  UNL     1     -13.360  15.622   5.406  1.00  0.00    -0.357 N
HETATM   37  C18 UNL     1     -14.755  15.447   5.743  1.00  0.00     0.151 C
ATOM     38  H3  UNL     1     -12.864  16.404   5.833  1.00  0.00     0.162 HD
HETATM   39  C19 UNL     1     -15.686  15.377   4.588  1.00  0.00     0.221 C
HETATM   40  O3  UNL     1     -15.615  14.282   3.776  1.00  0.00    -0.274 OA
HETATM   41  N4  UNL     1     -14.515  13.484   4.012  1.00  0.00    -0.224 N
BRANCH  41  42
HETATM   42  C20 UNL     1     -14.782  12.370   4.794  1.00  0.00     0.176 C
BRANCH  42  43
HETATM   43  O4  UNL     1     -16.040  12.209   5.100  1.00  0.00    -0.346 OA
ATOM     44  H4  UNL     1     -16.251  12.380   6.010  1.00  0.00     0.219 HD
ENDBRANCH  42  43
BRANCH  42  45
HETATM   45  C21 UNL     1     -13.919  11.331   5.351  1.00  0.00     0.319 C
BRANCH  45  46
HETATM   46  N5  UNL     1     -14.457   9.999   5.382  1.00  0.00    -0.061 N
ATOM     47  H53 UNL     1     -14.841   9.805   6.306  1.00  0.00     0.275 HD
ATOM     48  H52 UNL     1     -15.305   9.957   4.815  1.00  0.00     0.275 HD
ATOM     49  H51 UNL     1     -13.825   9.246   5.108  1.00  0.00     0.275 HD
ENDBRANCH  45  46
BRANCH  45  50
HETATM   50  C22 UNL     1     -13.449  11.664   6.729  1.00  0.00     0.272 C
HETATM   51  O5  UNL     1     -13.667  12.751   7.211  1.00  0.00    -0.304 OA
ENDBRANCH  45  50
ENDBRANCH  42  45
ENDBRANCH  41  42
ENDBRANCH  32  33
ENDBRANCH  31  32
ENDBRANCH  30  31
ENDBRANCH   2  30
TORSDOF 20
ENDMDL