MODEL 3
REMARK VINA RESULT: -7.453565458      3.408     11.731
REMARK  20 active torsions:
REMARK  status: ('A' for Active; 'I' for Inactive)
REMARK    1  A    between atoms: C2_2  and  C3_3
REMARK    2  A    between atoms: C3_3  and  C4_4
REMARK    3  A    between atoms: C4_4  and  N1_5
REMARK    4  A    between atoms: N1_5  and  C6_7
REMARK    5  A    between atoms: C6_7  and  O1_8
REMARK    6  A    between atoms: C6_7  and  C7_10
REMARK    7  A    between atoms: C10_13  and  N2_14
REMARK    8  A    between atoms: C12_17  and  C13_18
REMARK    9  A    between atoms: C13_18  and  C14_19
REMARK   10  A    between atoms: C14_19  and  C15_20
REMARK   11  A    between atoms: C15_20  and  C16_21
REMARK   12  A    between atoms: C16_21  and  N3_22
REMARK   13  A    between atoms: C18_27  and  C19_28
REMARK   14  A    between atoms: N6_29  and  N7_31
REMARK       I    between atoms: N8_34  and  C20_35
REMARK   15  A    between atoms: C20_35  and  C21_37
REMARK   16  A    between atoms: C21_37  and  N9_38
REMARK   17  A    between atoms: C21_37  and  C22_42
REMARK   18  A    between atoms: C22_42  and  C23_43
REMARK   19  A    between atoms: C23_43  and  C24_44
REMARK   20  A    between atoms: C24_44  and  N10_45
ROOT
HETATM    1  N2  UNL     1     -11.388  15.655   2.532  1.00  0.00    -0.218 N
HETATM    2  C11 UNL     1     -12.780  15.530   2.263  1.00  0.00     0.250 C
HETATM    3  O2  UNL     1     -13.527  16.145   1.508  1.00  0.00    -0.271 OA
HETATM    4  C12 UNL     1     -13.231  14.372   3.179  1.00  0.00     0.110 C
HETATM    5  C18 UNL     1     -12.487  14.805   4.431  1.00  0.00     0.165 C
HETATM    6  N8  UNL     1     -11.242  15.406   3.902  1.00  0.00    -0.239 N
HETATM    7  C20 UNL     1     -10.045  15.667   4.657  1.00  0.00     0.270 C
HETATM    8  O3  UNL     1      -9.032  16.136   4.034  1.00  0.00    -0.269 OA
ENDROOT
BRANCH   1   9
HETATM    9  C10 UNL     1     -10.386  15.970   1.548  1.00  0.00     0.060 A
HETATM   10  C9  UNL     1      -9.654  15.062   0.851  1.00  0.00     0.032 A
HETATM   11  C8  UNL     1      -8.700  15.426  -0.117  1.00  0.00     0.018 A
HETATM   12  C7  UNL     1      -8.475  16.739  -0.392  1.00  0.00     0.015 A
HETATM   13  C27 UNL     1      -9.229  17.693   0.326  1.00  0.00     0.018 A
HETATM   14  C26 UNL     1     -10.151  17.294   1.264  1.00  0.00     0.032 A
BRANCH  12  15
HETATM   15  C6  UNL     1      -7.511  17.189  -1.375  1.00  0.00     0.148 C
BRANCH  15  16
HETATM   16  N1  UNL     1      -7.658  17.623  -2.680  1.00  0.00    -0.366 N
HETATM   17  C5  UNL     1      -6.812  18.385  -3.535  1.00  0.00     0.151 C
BRANCH  16  18
HETATM   18  C4  UNL     1      -8.951  17.217  -3.328  1.00  0.00     0.124 C
BRANCH  18  19
HETATM   19  C3  UNL     1      -8.538  16.467  -4.556  1.00  0.00     0.019 C
BRANCH  19  20
HETATM   20  C2  UNL     1      -9.280  15.150  -4.618  1.00  0.00    -0.003 C
HETATM   21  C1  UNL     1     -10.572  15.273  -3.839  1.00  0.00     0.005 C
ENDBRANCH  19  20
ENDBRANCH  18  19
ENDBRANCH  16  18
ENDBRANCH  15  16
BRANCH  15  22
HETATM   22  O1  UNL     1      -6.262  17.187  -0.953  1.00  0.00    -0.346 OA
ATOM     23  H1  UNL     1      -6.146  17.579  -0.095  1.00  0.00     0.219 HD
ENDBRANCH  15  22
ENDBRANCH  12  15
ENDBRANCH   1   9
BRANCH   4  24
HETATM   24  C13 UNL     1     -12.621  13.173   2.547  1.00  0.00     0.017 C
BRANCH  24  25
HETATM   25  C14 UNL     1     -13.007  11.818   2.963  1.00  0.00     0.002 C
BRANCH  25  26
HETATM   26  C15 UNL     1     -12.961  11.529   4.416  1.00  0.00     0.020 C
BRANCH  26  27
HETATM   27  C16 UNL     1     -14.035  10.450   4.659  1.00  0.00     0.122 C
BRANCH  27  28
HETATM   28  N3  UNL     1     -14.352  10.463   6.049  1.00  0.00    -0.367 N
HETATM   29  C17 UNL     1     -15.480  10.964   6.497  1.00  0.00     0.196 C
HETATM   30  N4  UNL     1     -15.789  10.973   7.879  1.00  0.00    -0.067 NA
HETATM   31  N5  UNL     1     -16.358  11.497   5.529  1.00  0.00    -0.067 NA
ATOM     32  H3  UNL     1     -13.684  10.072   6.714  1.00  0.00     0.161 HD
ENDBRANCH  27  28
ENDBRANCH  26  27
ENDBRANCH  25  26
ENDBRANCH  24  25
ENDBRANCH   4  24
BRANCH   5  33
HETATM   33  C19 UNL     1     -13.301  15.801   5.180  1.00  0.00     0.107 C
HETATM   34  N6  UNL     1     -14.197  15.487   6.021  1.00  0.00    -0.320 N
ATOM     35  H6  UNL     1     -14.697  16.249   6.478  1.00  0.00     0.185 HD
BRANCH  34  36
HETATM   36  N7  UNL     1     -14.553  14.194   6.368  1.00  0.00    -0.346 N
ATOM     37  H72 UNL     1     -14.706  13.546   5.594  1.00  0.00     0.176 HD
ATOM     38  H71 UNL     1     -14.670  13.849   7.320  1.00  0.00     0.176 HD
ENDBRANCH  34  36
ENDBRANCH   5  33
BRANCH   7  39
HETATM   39  C21 UNL     1      -9.865  15.441   6.088  1.00  0.00     0.276 C
BRANCH  39  40
HETATM   40  N9  UNL     1      -8.420  15.153   6.336  1.00  0.00    -0.066 N
ATOM     41  H93 UNL     1      -7.814  15.528   5.607  1.00  0.00     0.275 HD
ATOM     42  H92 UNL     1      -8.041  15.686   7.118  1.00  0.00     0.275 HD
ATOM     43  H91 UNL     1      -8.313  14.146   6.456  1.00  0.00     0.275 HD
ENDBRANCH  39  40
BRANCH  39  44
HETATM   44  C22 UNL     1     -10.123  16.710   6.931  1.00  0.00     0.044 C
BRANCH  44  45
HETATM   45  C23 UNL     1     -10.900  16.265   8.139  1.00  0.00     0.022 C
BRANCH  45  46
HETATM   46  C24 UNL     1     -11.367  14.829   8.008  1.00  0.00     0.122 C
BRANCH  46  47
HETATM   47  N10 UNL     1     -12.261  14.463   9.078  1.00  0.00    -0.367 N
HETATM   48  C25 UNL     1     -12.796  13.319   9.236  1.00  0.00     0.196 C
HETATM   49  N11 UNL     1     -12.535  12.259   8.311  1.00  0.00    -0.067 NA
HETATM   50  N12 UNL     1     -13.654  13.119  10.350  1.00  0.00    -0.067 NA
ATOM     51  H10 UNL     1     -12.484  15.182   9.767  1.00  0.00     0.161 HD
ENDBRANCH  46  47
ENDBRANCH  45  46
ENDBRANCH  44  45
ENDBRANCH  39  44
ENDBRANCH   7  39
TORSDOF 20
ENDMDL