MODEL 5
REMARK VINA RESULT: -8.302993459      4.276      9.977
REMARK  21 active torsions:
REMARK  status: ('A' for Active; 'I' for Inactive)
REMARK    1  A    between atoms: C2_2  and  C3_3
REMARK    2  A    between atoms: C4_4  and  C5_5
REMARK    3  A    between atoms: C5_5  and  N1_6
REMARK    4  A    between atoms: N1_6  and  S1_8
REMARK    5  A    between atoms: S1_8  and  N2_11
REMARK    6  A    between atoms: N2_11  and  C6_13
REMARK    7  A    between atoms: C6_13  and  C7_14
REMARK    8  A    between atoms: C7_14  and  C8_15
REMARK    9  A    between atoms: C8_15  and  C9_16
REMARK   10  A    between atoms: C9_16  and  C10_17
REMARK   11  A    between atoms: C10_17  and  N3_18
REMARK   12  A    between atoms: N3_18  and  C11_20
REMARK   13  A    between atoms: C12_23  and  N5_24
REMARK   14  A    between atoms: N5_24  and  C13_26
REMARK   15  A    between atoms: C13_26  and  C14_27
REMARK   16  A    between atoms: C14_27  and  C15_28
REMARK   17  A    between atoms: C15_28  and  N6_29
REMARK   18  A    between atoms: C18_34  and  N8_35
REMARK   19  A    between atoms: N8_35  and  C19_37
REMARK   20  A    between atoms: C24_42  and  C25_43
REMARK   21  A    between atoms: C25_43  and  N9_44
ROOT
HETATM    1  C11 UNL     1     -11.840  14.603   1.924  1.00  0.00     0.707 A
HETATM    2  N4  UNL     1     -12.296  13.368   2.243  1.00  0.00    -0.022 N
ATOM      3  H4  UNL     1     -12.389  12.668   1.506  1.00  0.00     0.203 HD
HETATM    4  C12 UNL     1     -12.629  13.039   3.501  1.00  0.00     0.707 A
HETATM    5  N7  UNL     1     -12.496  13.983   4.449  1.00  0.00    -0.021 N
ATOM      6  H7  UNL     1     -12.745  13.746   5.409  1.00  0.00     0.203 HD
HETATM    7  C18 UNL     1     -12.051  15.219   4.192  1.00  0.00     0.711 A
HETATM    8  N12 UNL     1     -11.726  15.501   2.899  1.00  0.00    -0.021 N
ATOM      9  H12 UNL     1     -11.384  16.434   2.671  1.00  0.00     0.203 HD
ENDROOT
BRANCH   1  10
HETATM   10  N3  UNL     1     -11.533  14.867   0.722  1.00  0.00    -0.225 N
ATOM     11  H3  UNL     1     -12.319  14.900   0.072  1.00  0.00     0.177 HD
BRANCH  10  12
HETATM   12  C10 UNL     1     -10.263  15.124   0.144  1.00  0.00     0.138 C
BRANCH  12  13
HETATM   13  C9  UNL     1     -10.448  16.217  -0.894  1.00  0.00     0.020 C
BRANCH  13  14
HETATM   14  C8  UNL     1      -9.766  15.767  -2.168  1.00  0.00     0.003 C
BRANCH  14  15
HETATM   15  C7  UNL     1     -10.549  16.154  -3.376  1.00  0.00     0.020 C
BRANCH  15  16
HETATM   16  C6  UNL     1      -9.747  15.806  -4.616  1.00  0.00     0.133 C
BRANCH  16  17
HETATM   17  N2  UNL     1      -8.327  16.025  -4.446  1.00  0.00    -0.303 N
ATOM     18  H2  UNL     1      -7.662  15.351  -4.068  1.00  0.00     0.173 HD
BRANCH  17  19
HETATM   19  S1  UNL     1      -7.949  17.621  -4.992  1.00  0.00     0.315 S
HETATM   20  O1  UNL     1      -6.688  17.530  -5.829  1.00  0.00    -0.183 OA
HETATM   21  O2  UNL     1      -9.034  18.109  -5.913  1.00  0.00    -0.183 OA
BRANCH  19  22
HETATM   22  N1  UNL     1      -7.657  18.717  -3.724  1.00  0.00    -0.292 N
ATOM     23  H1  UNL     1      -8.318  19.453  -3.473  1.00  0.00     0.174 HD
BRANCH  22  24
HETATM   24  C5  UNL     1      -6.413  18.531  -3.032  1.00  0.00     0.227 C
BRANCH  24  25
HETATM   25  C4  UNL     1      -6.645  17.933  -1.693  1.00  0.00    -0.086 C
HETATM   26  C3  UNL     1      -6.824  17.462  -0.598  1.00  0.00    -0.105 C
BRANCH  26  27
HETATM   27  C2  UNL     1      -7.022  16.875   0.740  1.00  0.00     0.089 C
HETATM   28  C1  UNL     1      -7.836  17.869   1.539  1.00  0.00     0.018 C
ENDBRANCH  26  27
ENDBRANCH  24  25
ENDBRANCH  22  24
ENDBRANCH  19  22
ENDBRANCH  17  19
ENDBRANCH  16  17
ENDBRANCH  15  16
ENDBRANCH  14  15
ENDBRANCH  13  14
ENDBRANCH  12  13
ENDBRANCH  10  12
ENDBRANCH   1  10
BRANCH   4  29
HETATM   29  N5  UNL     1     -13.066  11.849   3.779  1.00  0.00    -0.225 N
ATOM     30  H5  UNL     1     -12.435  11.049   3.727  1.00  0.00     0.177 HD
BRANCH  29  31
HETATM   31  C13 UNL     1     -14.438  11.658   4.158  1.00  0.00     0.140 C
BRANCH  31  32
HETATM   32  C14 UNL     1     -14.627  10.357   4.932  1.00  0.00     0.050 C
BRANCH  32  33
HETATM   33  C15 UNL     1     -13.393  10.144   5.760  1.00  0.00     0.273 C
BRANCH  33  34
HETATM   34  N6  UNL     1     -13.035   8.741   5.862  1.00  0.00     0.080 N
HETATM   35  C16 UNL     1     -14.232   7.887   5.874  1.00  0.00     0.309 C
HETATM   36  C17 UNL     1     -12.377   8.417   4.586  1.00  0.00     0.309 C
ENDBRANCH  33  34
ENDBRANCH  32  33
ENDBRANCH  31  32
ENDBRANCH  29  31
ENDBRANCH   4  29
BRANCH   7  37
HETATM   37  N8  UNL     1     -11.898  16.149   5.071  1.00  0.00    -0.190 N
ATOM     38  H8  UNL     1     -12.648  16.808   5.278  1.00  0.00     0.184 HD
BRANCH  37  39
HETATM   39  C19 UNL     1     -10.638  16.221   5.744  1.00  0.00     0.057 A
HETATM   40  C20 UNL     1      -9.483  16.472   5.016  1.00  0.00     0.030 A
HETATM   41  C21 UNL     1      -8.294  16.536   5.699  1.00  0.00     0.002 A
HETATM   42  C22 UNL     1      -8.237  16.356   7.077  1.00  0.00     0.001 A
HETATM   43  C23 UNL     1      -9.392  16.108   7.788  1.00  0.00     0.011 A
HETATM   44  C24 UNL     1     -10.590  16.042   7.111  1.00  0.00    -0.013 A
BRANCH  44  45
HETATM   45  C25 UNL     1     -11.870  15.778   7.840  1.00  0.00     0.162 C
BRANCH  45  46
HETATM   46  N9  UNL     1     -11.692  14.574   8.625  1.00  0.00    -0.363 N
HETATM   47  C26 UNL     1     -12.360  13.506   8.353  1.00  0.00     0.197 C
HETATM   48  N10 UNL     1     -13.296  13.413   7.298  1.00  0.00    -0.067 NA
HETATM   49  N11 UNL     1     -12.133  12.361   9.169  1.00  0.00    -0.067 NA
ATOM     50  H9  UNL     1     -11.031  14.571   9.403  1.00  0.00     0.162 HD
ENDBRANCH  45  46
ENDBRANCH  44  45
ENDBRANCH  37  39
ENDBRANCH   7  37
TORSDOF 21
ENDMDL