MODEL 2
REMARK VINA RESULT: -8.582387879      4.102      9.458
REMARK  18 active torsions:
REMARK  status: ('A' for Active; 'I' for Inactive)
REMARK    1  A    between atoms: N2_7  and  C4_8
REMARK    2  A    between atoms: C4_8  and  C5_9
REMARK    3  A    between atoms: C5_9  and  C6_10
REMARK    4  A    between atoms: C6_10  and  N3_11
REMARK       I    between atoms: N3_11  and  C7_13
REMARK    5  A    between atoms: N5_15  and  C8_17
REMARK    6  A    between atoms: C8_17  and  C9_18
REMARK    7  A    between atoms: C9_18  and  C10_19
REMARK    8  A    between atoms: C10_19  and  C11_20
REMARK    9  A    between atoms: C11_20  and  C12_21
REMARK   10  A    between atoms: N7_25  and  C14_27
REMARK   11  A    between atoms: C14_27  and  C15_28
REMARK   12  A    between atoms: C15_28  and  C16_29
REMARK   13  A    between atoms: C16_29  and  C17_30
REMARK   14  A    between atoms: C17_30  and  N8_31
REMARK       I    between atoms: N8_31  and  C18_33
REMARK       I    between atoms: C18_33  and  N11_38
REMARK   15  A    between atoms: N11_38  and  C20_40
REMARK   16  A    between atoms: C20_40  and  C21_41
REMARK   17  A    between atoms: C21_41  and  N12_42
REMARK   18  A    between atoms: N12_42  and  C22_44
ROOT
HETATM    1  N8  UNL     1     -12.695  13.155   4.642  1.00  0.00    -0.226 N
ATOM      2  H8  UNL     1     -11.688  13.041   4.520  1.00  0.00     0.177 HD
HETATM    3  C18 UNL     1     -13.236  12.721   5.870  1.00  0.00     0.682 C
HETATM    4  N9  UNL     1     -13.419  11.494   6.182  1.00  0.00    -0.126 N
ATOM      5  H9  UNL     1     -13.817  11.262   7.092  1.00  0.00     0.197 HD
HETATM    6  C19 UNL     1     -13.088  10.477   5.307  1.00  0.00     0.196 C
HETATM    7  N10 UNL     1     -12.823   9.613   4.561  1.00  0.00    -0.171 NA
HETATM    8  N11 UNL     1     -13.588  13.728   6.814  1.00  0.00    -0.224 N
ATOM      9  H11 UNL     1     -14.405  14.326   6.690  1.00  0.00     0.177 HD
ENDROOT
BRANCH   1  10
HETATM   10  C17 UNL     1     -13.410  13.738   3.551  1.00  0.00     0.138 C
BRANCH  10  11
HETATM   11  C16 UNL     1     -12.714  15.004   3.096  1.00  0.00     0.022 C
BRANCH  11  12
HETATM   12  C15 UNL     1     -11.801  14.702   1.896  1.00  0.00     0.021 C
BRANCH  12  13
HETATM   13  C14 UNL     1     -11.551  16.009   1.216  1.00  0.00     0.121 C
BRANCH  13  14
HETATM   14  N7  UNL     1     -10.183  16.340   0.994  1.00  0.00    -0.379 N
HETATM   15  C13 UNL     1      -9.599  16.267  -0.172  1.00  0.00     0.088 A
HETATM   16  N2  UNL     1      -8.229  16.643  -0.173  1.00  0.00    -0.289 N
HETATM   17  C27 UNL     1     -10.279  15.837  -1.377  1.00  0.00     0.128 A
HETATM   18  C3  UNL     1      -7.478  16.565  -1.409  1.00  0.00     0.327 A
HETATM   19  N1  UNL     1      -8.195  16.120  -2.519  1.00  0.00    -0.316 N
HETATM   20  O1  UNL     1      -6.267  16.882  -1.441  1.00  0.00    -0.246 OA
HETATM   21  C2  UNL     1      -9.418  15.786  -2.547  1.00  0.00    -0.006 A
ATOM     22  H1  UNL     1      -7.683  16.055  -3.399  1.00  0.00     0.170 HD
HETATM   23  C1  UNL     1      -9.983  15.330  -3.880  1.00  0.00     0.064 C
ATOM     24  H7  UNL     1      -9.628  16.652   1.792  1.00  0.00     0.160 HD
BRANCH  16  25
HETATM   25  C4  UNL     1      -7.603  17.120   1.030  1.00  0.00     0.137 C
BRANCH  25  26
HETATM   26  C5  UNL     1      -7.771  18.538   1.389  1.00  0.00     0.040 C
BRANCH  26  27
HETATM   27  C6  UNL     1      -7.205  19.607   0.553  1.00  0.00     0.124 C
BRANCH  27  28
HETATM   28  N3  UNL     1      -5.871  19.421   0.064  1.00  0.00    -0.365 N
HETATM   29  C7  UNL     1      -5.473  20.077  -1.158  1.00  0.00     0.183 C
HETATM   30  N4  UNL     1      -4.625  21.200  -1.019  1.00  0.00    -0.064 NA
HETATM   31  N5  UNL     1      -5.900  19.612  -2.260  1.00  0.00    -0.365 N
ATOM     32  H5  UNL     1      -6.510  18.796  -2.276  1.00  0.00     0.162 HD
ATOM     33  H3  UNL     1      -5.212  18.831   0.573  1.00  0.00     0.162 HD
BRANCH  31  34
HETATM   34  C8  UNL     1      -5.501  20.271  -3.513  1.00  0.00     0.122 C
BRANCH  34  35
HETATM   35  C9  UNL     1      -4.670  19.257  -4.284  1.00  0.00     0.020 C
BRANCH  35  36
HETATM   36  C10 UNL     1      -5.484  18.033  -4.544  1.00  0.00     0.010 C
BRANCH  36  37
HETATM   37  C11 UNL     1      -6.376  18.095  -5.745  1.00  0.00     0.099 C
BRANCH  37  38
HETATM   38  C12 UNL     1      -7.781  18.282  -5.359  1.00  0.00     0.231 C
HETATM   39  N6  UNL     1      -8.780  18.079  -6.380  1.00  0.00    -0.062 NA
HETATM   40  O2  UNL     1      -8.150  18.597  -4.222  1.00  0.00    -0.277 OA
ENDBRANCH  37  38
ENDBRANCH  36  37
ENDBRANCH  35  36
ENDBRANCH  34  35
ENDBRANCH  31  34
ENDBRANCH  27  28
ENDBRANCH  26  27
ENDBRANCH  25  26
ENDBRANCH  16  25
ENDBRANCH  13  14
ENDBRANCH  12  13
ENDBRANCH  11  12
ENDBRANCH  10  11
ENDBRANCH   1  10
BRANCH   8  41
HETATM   41  C20 UNL     1     -12.704  13.852   7.974  1.00  0.00     0.157 C
BRANCH  41  42
HETATM   42  C21 UNL     1     -12.017  15.220   7.838  1.00  0.00     0.141 C
BRANCH  42  43
HETATM   43  N12 UNL     1     -10.631  15.001   7.554  1.00  0.00    -0.375 N
ATOM     44  H12 UNL     1     -10.154  14.261   8.069  1.00  0.00     0.161 HD
BRANCH  43  45
HETATM   45  C22 UNL     1      -9.951  15.664   6.705  1.00  0.00     0.100 A
HETATM   46  C23 UNL     1      -9.226  16.793   6.998  1.00  0.00     0.048 A
HETATM   47  C24 UNL     1      -8.517  17.488   6.023  1.00  0.00     0.005 A
HETATM   48  C25 UNL     1      -8.527  17.049   4.723  1.00  0.00     0.017 A
HETATM   49  C26 UNL     1      -9.262  15.914   4.460  1.00  0.00     0.089 A
HETATM   50  N13 UNL     1      -9.940  15.254   5.401  1.00  0.00    -0.353 N
ATOM     51  H13 UNL     1     -10.465  14.420   5.140  1.00  0.00     0.166 HD
ENDBRANCH  43  45
ENDBRANCH  42  43
ENDBRANCH  41  42
ENDBRANCH   8  41
TORSDOF 18
ENDMDL