MODEL 3
REMARK VINA RESULT: -7.096005137      3.528     10.551
REMARK  21 active torsions:
REMARK  status: ('A' for Active; 'I' for Inactive)
REMARK    1  A    between atoms: C2_2  and  C3_3
REMARK    2  A    between atoms: C3_3  and  C5_5
REMARK    3  A    between atoms: C6_8  and  O1_9
REMARK    4  A    between atoms: C7_11  and  N2_12
REMARK       I    between atoms: N2_12  and  C9_14
REMARK    5  A    between atoms: C9_14  and  C10_16
REMARK    6  A    between atoms: C10_16  and  C11_17
REMARK    7  A    between atoms: C11_17  and  C12_18
REMARK    8  A    between atoms: C12_18  and  C13_19
REMARK    9  A    between atoms: C13_19  and  N3_20
REMARK   10  A    between atoms: N3_20  and  C14_22
REMARK   11  A    between atoms: C14_22  and  C15_23
REMARK   12  A    between atoms: C15_23  and  C16_24
REMARK   13  A    between atoms: C16_24  and  C17_25
REMARK   14  A    between atoms: N6_32  and  C20_34
REMARK   15  A    between atoms: C21_38  and  O4_39
REMARK   16  A    between atoms: C22_41  and  C23_42
REMARK   17  A    between atoms: C23_42  and  C24_43
REMARK   18  A    between atoms: C24_43  and  C25_44
REMARK   19  A    between atoms: C25_44  and  C26_45
REMARK   20  A    between atoms: C26_45  and  N8_46
REMARK   21  A    between atoms: C28_52  and  O5_53
ROOT
HETATM    1  C5  UNL     1      -3.745  18.641  -5.395  1.00  0.00     0.162 C
HETATM    2  N1  UNL     1      -4.815  19.218  -4.596  1.00  0.00    -0.355 N
ATOM      3  H1  UNL     1      -5.730  19.120  -5.036  1.00  0.00     0.162 HD
HETATM    4  C6  UNL     1      -4.881  19.871  -3.375  1.00  0.00     0.182 C
HETATM    5  C7  UNL     1      -4.802  19.464  -1.985  1.00  0.00     0.163 C
HETATM    6  N7  UNL     1      -3.596  18.972  -1.413  1.00  0.00    -0.318 N
ATOM      7  H7  UNL     1      -3.720  18.770  -0.421  1.00  0.00     0.169 HD
HETATM    8  C21 UNL     1      -2.307  18.688  -1.816  1.00  0.00     0.165 C
HETATM    9  C22 UNL     1      -1.744  17.699  -2.760  1.00  0.00     0.064 C
HETATM   10  N9  UNL     1      -1.502  18.215  -4.098  1.00  0.00    -0.334 N
HETATM   11  C27 UNL     1      -0.105  18.018  -4.601  1.00  0.00     0.158 C
HETATM   12  C28 UNL     1      -2.403  18.880  -4.951  1.00  0.00     0.141 C
ENDROOT
BRANCH   5  13
HETATM   13  N2  UNL     1      -5.965  18.661  -1.549  1.00  0.00    -0.305 N
HETATM   14  C8  UNL     1      -6.636  17.719  -2.413  1.00  0.00     0.161 C
HETATM   15  C9  UNL     1      -6.464  18.802  -0.228  1.00  0.00     0.225 C
HETATM   16  O2  UNL     1      -5.914  19.611   0.561  1.00  0.00    -0.273 OA
BRANCH  15  17
HETATM   17  C10 UNL     1      -7.619  18.030   0.270  1.00  0.00     0.103 C
BRANCH  17  18
HETATM   18  C11 UNL     1      -7.132  16.940   1.194  1.00  0.00     0.011 C
BRANCH  18  19
HETATM   19  C12 UNL     1      -8.233  16.003   1.599  1.00  0.00     0.020 C
BRANCH  19  20
HETATM   20  C13 UNL     1      -8.559  15.090   0.440  1.00  0.00     0.121 C
BRANCH  20  21
HETATM   21  N3  UNL     1      -9.985  14.957   0.335  1.00  0.00    -0.380 N
ATOM     22  H3  UNL     1     -10.454  14.126   0.693  1.00  0.00     0.160 HD
BRANCH  21  23
HETATM   23  C14 UNL     1     -10.748  16.019  -0.287  1.00  0.00     0.079 C
HETATM   24  N6  UNL     1     -11.811  16.434   0.281  1.00  0.00    -0.324 N
ATOM     25  H6  UNL     1     -12.356  17.181  -0.150  1.00  0.00     0.169 HD
BRANCH  23  26
HETATM   26  C15 UNL     1     -10.236  16.532  -1.553  1.00  0.00     0.082 C
BRANCH  26  27
HETATM   27  C16 UNL     1      -9.934  15.532  -2.614  1.00  0.00     0.066 C
BRANCH  27  28
HETATM   28  C17 UNL     1      -9.766  16.046  -3.972  1.00  0.00     0.025 A
HETATM   29  C18 UNL     1     -10.804  16.592  -4.741  1.00  0.00     0.114 A
HETATM   30  N4  UNL     1     -10.301  16.975  -5.914  1.00  0.00    -0.360 N
HETATM   31  C19 UNL     1      -8.992  16.691  -5.908  1.00  0.00     0.180 A
ATOM     32  H4  UNL     1     -10.819  17.407  -6.678  1.00  0.00     0.166 HD
HETATM   33  N5  UNL     1      -8.677  16.129  -4.731  1.00  0.00    -0.355 N
ATOM     34  H5  UNL     1      -7.745  15.815  -4.460  1.00  0.00     0.166 HD
ENDBRANCH  27  28
ENDBRANCH  26  27
ENDBRANCH  23  26
BRANCH  24  35
HETATM   35  C20 UNL     1     -12.241  15.865   1.505  1.00  0.00     0.354 C
HETATM   36  O3  UNL     1     -11.555  16.089   2.531  1.00  0.00    -0.283 OA
ENDBRANCH  24  35
ENDBRANCH  21  23
ENDBRANCH  20  21
ENDBRANCH  19  20
ENDBRANCH  18  19
ENDBRANCH  17  18
ENDBRANCH  15  17
ENDBRANCH   5  13
BRANCH   4  37
HETATM   37  O1  UNL     1      -5.063  21.165  -3.542  1.00  0.00    -0.344 OA
ATOM     38  H1  UNL     1      -5.964  21.354  -3.777  1.00  0.00     0.219 HD
ENDBRANCH   4  37
BRANCH   8  39
HETATM   39  O4  UNL     1      -1.398  19.455  -1.246  1.00  0.00    -0.345 OA
ATOM     40  H4  UNL     1      -0.512  19.270  -1.535  1.00  0.00     0.219 HD
ENDBRANCH   8  39
BRANCH   1  41
HETATM   41  C3  UNL     1      -4.178  17.262  -5.783  1.00  0.00     0.012 C
HETATM   42  C4  UNL     1      -5.554  17.291  -6.454  1.00  0.00     0.012 C
BRANCH  41  43
HETATM   43  C2  UNL     1      -3.274  16.523  -6.721  1.00  0.00     0.002 C
HETATM   44  C1  UNL     1      -3.868  16.498  -8.133  1.00  0.00     0.005 C
ENDBRANCH  41  43
ENDBRANCH   1  41
BRANCH   9  45
HETATM   45  C23 UNL     1      -2.203  16.303  -2.703  1.00  0.00     0.062 C
BRANCH  45  46
HETATM   46  C24 UNL     1      -1.210  15.202  -2.883  1.00  0.00     0.008 C
BRANCH  46  47
HETATM   47  C25 UNL     1       0.022  15.231  -2.067  1.00  0.00     0.027 C
BRANCH  47  48
HETATM   48  C26 UNL     1      -0.055  14.029  -1.117  1.00  0.00     0.229 C
BRANCH  48  49
HETATM   49  N8  UNL     1      -1.155  13.156  -1.451  1.00  0.00    -0.079 N
ATOM     50  H83 UNL     1      -2.002  13.413  -0.942  1.00  0.00     0.274 HD
ATOM     51  H82 UNL     1      -1.485  13.320  -2.401  1.00  0.00     0.274 HD
ATOM     52  H81 UNL     1      -0.916  12.175  -1.303  1.00  0.00     0.274 HD
ENDBRANCH  48  49
ENDBRANCH  47  48
ENDBRANCH  46  47
ENDBRANCH  45  46
ENDBRANCH   9  45
BRANCH  12  53
HETATM   53  O5  UNL     1      -1.854  19.971  -5.433  1.00  0.00    -0.348 OA
ATOM     54  H5  UNL     1      -0.907  19.996  -5.374  1.00  0.00     0.219 HD
ENDBRANCH  12  53
TORSDOF 21
ENDMDL