MODEL 2
REMARK VINA RESULT: -8.083485685      1.903      3.670
REMARK  18 active torsions:
REMARK  status: ('A' for Active; 'I' for Inactive)
REMARK    1  A    between atoms: N1_1  and  C1_5
REMARK    2  A    between atoms: C1_5  and  C2_6
REMARK    3  A    between atoms: C2_6  and  C3_7
REMARK    4  A    between atoms: C3_7  and  C4_8
REMARK    5  A    between atoms: C4_8  and  C5_9
REMARK    6  A    between atoms: C5_9  and  N2_10
REMARK    7  A    between atoms: C5_9  and  C6_14
REMARK       I    between atoms: C6_14  and  N3_16
REMARK    8  A    between atoms: N3_16  and  C7_18
REMARK    9  A    between atoms: C7_18  and  C8_19
REMARK   10  A    between atoms: C8_19  and  C9_20
REMARK   11  A    between atoms: C9_20  and  C10_21
REMARK   12  A    between atoms: C10_21  and  C11_22
REMARK   13  A    between atoms: C11_22  and  C12_23
REMARK   14  A    between atoms: C11_22  and  C15_30
REMARK   15  A    between atoms: C12_23  and  C13_24
REMARK   16  A    between atoms: C13_24  and  N4_25
REMARK       I    between atoms: N4_25  and  C14_27
REMARK   17  A    between atoms: N7_33  and  C17_34
REMARK   18  A    between atoms: C17_34  and  C18_35
ROOT
HETATM    1  C11 UNL     1      -9.555  16.927  -1.144  1.00  0.00    -0.057 C
ENDROOT
BRANCH   1   2
HETATM    2  C10 UNL     1     -10.452  15.749  -1.041  1.00  0.00     0.036 C
BRANCH   2   3
HETATM    3  C9  UNL     1     -10.411  14.863   0.118  1.00  0.00     0.006 C
BRANCH   3   4
HETATM    4  C8  UNL     1     -11.422  14.824   1.185  1.00  0.00     0.020 C
BRANCH   4   5
HETATM    5  C7  UNL     1     -11.376  15.776   2.323  1.00  0.00     0.122 C
BRANCH   5   6
HETATM    6  N3  UNL     1     -10.214  15.483   3.182  1.00  0.00    -0.359 N
HETATM    7  C6  UNL     1      -9.825  16.435   4.144  1.00  0.00     0.248 C
HETATM    8  O1  UNL     1     -10.441  17.511   4.260  1.00  0.00    -0.271 OA
ATOM      9  H3  UNL     1      -9.702  14.608   3.081  1.00  0.00     0.162 HD
BRANCH   7  10
HETATM   10  C5  UNL     1      -8.680  16.166   5.027  1.00  0.00     0.274 C
BRANCH  10  11
HETATM   11  C4  UNL     1      -8.696  16.967   6.323  1.00  0.00     0.042 C
BRANCH  11  12
HETATM   12  C3  UNL     1      -9.179  16.217   7.509  1.00  0.00     0.004 C
BRANCH  12  13
HETATM   13  C2  UNL     1     -10.490  16.778   7.996  1.00  0.00     0.027 C
BRANCH  13  14
HETATM   14  C1  UNL     1     -11.572  15.764   7.849  1.00  0.00     0.229 C
BRANCH  14  15
HETATM   15  N1  UNL     1     -12.171  15.812   6.509  1.00  0.00    -0.079 N
ATOM     16  H13 UNL     1     -12.904  16.518   6.453  1.00  0.00     0.274 HD
ATOM     17  H12 UNL     1     -11.523  16.202   5.824  1.00  0.00     0.274 HD
ATOM     18  H11 UNL     1     -12.512  14.895   6.222  1.00  0.00     0.274 HD
ENDBRANCH  14  15
ENDBRANCH  13  14
ENDBRANCH  12  13
ENDBRANCH  11  12
ENDBRANCH  10  11
BRANCH  10  19
HETATM   19  N2  UNL     1      -8.701  14.758   5.486  1.00  0.00    -0.067 N
ATOM     20  H23 UNL     1      -8.564  14.640   6.490  1.00  0.00     0.275 HD
ATOM     21  H22 UNL     1      -9.619  14.316   5.449  1.00  0.00     0.275 HD
ATOM     22  H21 UNL     1      -7.992  14.307   4.908  1.00  0.00     0.275 HD
ENDBRANCH  10  19
ENDBRANCH   7  10
ENDBRANCH   5   6
ENDBRANCH   4   5
ENDBRANCH   3   4
ENDBRANCH   2   3
ENDBRANCH   1   2
BRANCH   1  23
HETATM   23  C12 UNL     1      -9.802  18.077  -0.278  1.00  0.00    -0.003 C
BRANCH  23  24
HETATM   24  C13 UNL     1      -9.037  18.355   0.936  1.00  0.00     0.149 C
BRANCH  24  25
HETATM   25  N4  UNL     1      -7.581  18.244   0.675  1.00  0.00    -0.363 N
HETATM   26  C14 UNL     1      -6.883  17.231   0.955  1.00  0.00     0.197 C
HETATM   27  N5  UNL     1      -5.498  17.248   0.656  1.00  0.00    -0.067 NA
HETATM   28  N6  UNL     1      -7.419  16.070   1.557  1.00  0.00    -0.067 NA
ATOM     29  H4  UNL     1      -7.113  19.040   0.241  1.00  0.00     0.162 HD
ENDBRANCH  24  25
ENDBRANCH  23  24
ENDBRANCH   1  23
BRANCH   1  30
HETATM   30  C15 UNL     1      -9.270  17.179  -2.596  1.00  0.00     0.201 C
HETATM   31  C16 UNL     1      -7.991  17.724  -2.985  1.00  0.00     0.247 C
HETATM   32  O2  UNL     1      -6.973  17.969  -2.313  1.00  0.00    -0.271 OA
HETATM   33  N7  UNL     1      -7.857  18.043  -4.391  1.00  0.00    -0.281 N
HETATM   34  C25 UNL     1      -8.792  17.605  -5.348  1.00  0.00     0.238 C
HETATM   35  O3  UNL     1      -9.004  18.344  -6.371  1.00  0.00    -0.272 OA
HETATM   36  C26 UNL     1      -9.559  16.361  -5.284  1.00  0.00     0.213 C
HETATM   37  S1  UNL     1      -9.574  15.754  -3.615  1.00  0.00     0.041 S
HETATM   38  O4  UNL     1      -8.330  14.628  -3.531  1.00  0.00    -0.256 OA
BRANCH  33  39
HETATM   39  C17 UNL     1      -6.728  18.843  -4.819  1.00  0.00     0.193 C
BRANCH  39  40
HETATM   40  C18 UNL     1      -5.767  18.118  -5.648  1.00  0.00     0.039 A
HETATM   41  N8  UNL     1      -5.972  17.691  -6.900  1.00  0.00    -0.366 N
HETATM   42  C19 UNL     1      -4.871  17.072  -7.337  1.00  0.00     0.101 A
ATOM     43  H8  UNL     1      -6.831  17.819  -7.434  1.00  0.00     0.165 HD
HETATM   44  C20 UNL     1      -3.940  17.104  -6.341  1.00  0.00     0.007 A
HETATM   45  C21 UNL     1      -2.665  16.619  -6.277  1.00  0.00     0.101 A
HETATM   46  C24 UNL     1      -4.494  17.761  -5.271  1.00  0.00     0.002 A
HETATM   47  N9  UNL     1      -1.934  16.773  -5.173  1.00  0.00    -0.374 N
HETATM   48  C22 UNL     1      -2.457  17.414  -4.116  1.00  0.00     0.088 A
ATOM     49  H9  UNL     1      -0.984  16.407  -5.132  1.00  0.00     0.164 HD
HETATM   50  C23 UNL     1      -3.723  17.910  -4.145  1.00  0.00     0.031 A
ENDBRANCH  39  40
ENDBRANCH  33  39
ENDBRANCH   1  30
TORSDOF 18
ENDMDL