MODEL 2
REMARK VINA RESULT: -8.774350050      2.513     10.135
REMARK  17 active torsions:
REMARK  status: ('A' for Active; 'I' for Inactive)
REMARK    1  A    between atoms: C2_2  and  C3_3
REMARK    2  A    between atoms: C3_3  and  C4_4
REMARK    3  A    between atoms: C4_4  and  C5_5
REMARK    4  A    between atoms: C7_10  and  C8_11
REMARK    5  A    between atoms: C8_11  and  C9_12
REMARK    6  A    between atoms: C9_12  and  C10_13
REMARK    7  A    between atoms: C10_13  and  C11_14
REMARK    8  A    between atoms: C11_14  and  C12_15
REMARK       I    between atoms: C12_15  and  N2_17
REMARK    9  A    between atoms: N2_17  and  C14_19
REMARK   10  A    between atoms: C14_19  and  C15_20
REMARK   11  A    between atoms: C15_20  and  C16_21
REMARK   12  A    between atoms: C20_26  and  C21_27
REMARK   13  A    between atoms: C22_32  and  O6_33
REMARK   14  A    between atoms: C23_35  and  C24_36
REMARK   15  A    between atoms: C24_36  and  C25_37
REMARK   16  A    between atoms: C25_37  and  C26_38
REMARK   17  A    between atoms: C26_38  and  N4_39
ROOT
HETATM    1  C5  UNL     1     -10.958  15.988   0.075  1.00  0.00     0.080 C
HETATM    2  N1  UNL     1      -9.791  15.161   0.317  1.00  0.00    -0.326 N
ATOM      3  H1  UNL     1      -9.574  14.462  -0.394  1.00  0.00     0.168 HD
HETATM    4  C6  UNL     1      -8.934  15.217   1.412  1.00  0.00     0.228 C
HETATM    5  O1  UNL     1      -8.166  14.232   1.642  1.00  0.00    -0.273 OA
HETATM    6  C7  UNL     1      -8.808  16.349   2.388  1.00  0.00     0.111 C
HETATM    7  C20 UNL     1      -8.771  15.801   3.766  1.00  0.00     0.197 C
HETATM    8  N3  UNL     1      -9.959  15.093   4.191  1.00  0.00    -0.357 N
ATOM      9  H3  UNL     1      -9.857  14.678   5.118  1.00  0.00     0.162 HD
HETATM   10  C22 UNL     1     -11.189  14.850   3.639  1.00  0.00     0.135 C
HETATM   11  C23 UNL     1     -11.682  13.860   2.667  1.00  0.00     0.159 C
HETATM   12  N7  UNL     1     -12.404  14.432   1.547  1.00  0.00    -0.344 N
ATOM     13  H7  UNL     1     -13.216  13.897   1.238  1.00  0.00     0.163 HD
HETATM   14  C28 UNL     1     -12.159  15.597   0.829  1.00  0.00     0.264 C
HETATM   15  O7  UNL     1     -13.112  16.477   0.813  1.00  0.00    -0.266 OA
ENDROOT
BRANCH   6  16
HETATM   16  C8  UNL     1      -7.679  17.251   1.989  1.00  0.00     0.017 C
BRANCH  16  17
HETATM   17  C9  UNL     1      -8.039  18.357   1.073  1.00  0.00     0.001 C
BRANCH  17  18
HETATM   18  C10 UNL     1      -6.946  19.416   1.025  1.00  0.00     0.009 C
BRANCH  18  19
HETATM   19  C11 UNL     1      -5.765  18.732   0.352  1.00  0.00     0.103 C
BRANCH  19  20
HETATM   20  C12 UNL     1      -5.318  19.413  -0.862  1.00  0.00     0.219 C
HETATM   21  O2  UNL     1      -5.618  20.585  -1.100  1.00  0.00    -0.273 OA
HETATM   22  N2  UNL     1      -4.499  18.647  -1.790  1.00  0.00    -0.356 N
HETATM   23  C13 UNL     1      -4.155  17.287  -1.490  1.00  0.00     0.152 C
BRANCH  22  24
HETATM   24  C14 UNL     1      -4.045  19.337  -2.961  1.00  0.00     0.132 C
BRANCH  24  25
HETATM   25  C15 UNL     1      -4.232  18.615  -4.231  1.00  0.00     0.084 C
BRANCH  25  26
HETATM   26  C16 UNL     1      -5.592  18.377  -4.722  1.00  0.00     0.054 A
HETATM   27  C17 UNL     1      -6.823  18.698  -4.214  1.00  0.00     0.034 A
HETATM   28  C18 UNL     1      -7.777  18.239  -5.091  1.00  0.00     0.027 A
HETATM   29  C19 UNL     1      -7.059  17.651  -6.107  1.00  0.00     0.142 A
HETATM   30  O3  UNL     1      -5.796  17.740  -5.874  1.00  0.00    -0.327 OA
ENDBRANCH  25  26
ENDBRANCH  24  25
ENDBRANCH  22  24
ENDBRANCH  19  20
ENDBRANCH  18  19
ENDBRANCH  17  18
ENDBRANCH  16  17
ENDBRANCH   6  16
BRANCH   7  31
HETATM   31  C21 UNL     1      -8.562  16.827   4.843  1.00  0.00     0.197 C
HETATM   32  O4  UNL     1      -9.042  17.990   4.780  1.00  0.00    -0.646 OA
HETATM   33  O5  UNL     1      -7.829  16.538   5.961  1.00  0.00    -0.646 OA
ENDBRANCH   7  31
BRANCH   1  34
HETATM   34  C4  UNL     1     -11.127  16.353  -1.355  1.00  0.00     0.063 C
BRANCH  34  35
HETATM   35  C3  UNL     1     -10.045  16.100  -2.309  1.00  0.00     0.006 C
BRANCH  35  36
HETATM   36  C2  UNL     1     -10.419  15.748  -3.715  1.00  0.00    -0.004 C
HETATM   37  C1  UNL     1      -9.340  14.894  -4.336  1.00  0.00     0.005 C
ENDBRANCH  35  36
ENDBRANCH  34  35
ENDBRANCH   1  34
BRANCH  10  38
HETATM   38  O6  UNL     1     -12.157  15.648   4.044  1.00  0.00    -0.348 OA
ATOM     39  H6  UNL     1     -12.449  16.290   3.407  1.00  0.00     0.219 HD
ENDBRANCH  10  38
BRANCH  11  40
HETATM   40  C24 UNL     1     -12.643  12.877   3.403  1.00  0.00     0.035 C
BRANCH  40  41
HETATM   41  C25 UNL     1     -14.020  12.892   2.807  1.00  0.00     0.022 C
BRANCH  41  42
HETATM   42  C26 UNL     1     -15.131  12.825   3.794  1.00  0.00     0.122 C
BRANCH  42  43
HETATM   43  N4  UNL     1     -15.680  14.108   4.053  1.00  0.00    -0.367 N
HETATM   44  C27 UNL     1     -15.404  15.044   4.820  1.00  0.00     0.196 C
HETATM   45  N5  UNL     1     -14.367  15.166   5.777  1.00  0.00    -0.067 NA
HETATM   46  N6  UNL     1     -16.272  16.210   4.743  1.00  0.00    -0.067 NA
ATOM     47  H4  UNL     1     -16.494  14.307   3.472  1.00  0.00     0.161 HD
ENDBRANCH  42  43
ENDBRANCH  41  42
ENDBRANCH  40  41
ENDBRANCH  11  40
TORSDOF 17
ENDMDL