MODEL 1
REMARK VINA RESULT: -8.588870244      0.000      0.000
REMARK  17 active torsions:
REMARK  status: ('A' for Active; 'I' for Inactive)
REMARK    1  A    between atoms: C2_2  and  C3_3
REMARK    2  A    between atoms: C3_3  and  C4_4
REMARK    3  A    between atoms: C6_9  and  C7_10
REMARK    4  A    between atoms: C7_10  and  C8_11
REMARK    5  A    between atoms: C8_11  and  C9_12
REMARK    6  A    between atoms: C9_12  and  C10_13
REMARK    7  A    between atoms: C10_13  and  N2_14
REMARK    8  A    between atoms: N2_14  and  C11_15
REMARK    9  A    between atoms: N2_14  and  C12_17
REMARK   10  A    between atoms: C12_17  and  C13_18
REMARK   11  A    between atoms: C13_18  and  C14_19
REMARK   12  A    between atoms: C14_19  and  N3_20
REMARK       I    between atoms: N3_20  and  C15_21
REMARK   13  A    between atoms: C15_21  and  C16_23
REMARK   14  A    between atoms: C16_23  and  C17_24
REMARK   15  A    between atoms: C17_24  and  C18_25
REMARK   16  A    between atoms: C18_25  and  N4_26
REMARK   17  A    between atoms: C18_25  and  C19_30
ROOT
HETATM    1  C4  UNL     1      -5.601  19.167  -2.080  1.00  0.00     0.077 C
HETATM    2  N1  UNL     1      -5.405  17.862  -1.530  1.00  0.00    -0.323 N
ATOM      3  H1  UNL     1      -4.828  17.235  -2.091  1.00  0.00     0.169 HD
HETATM    4  C5  UNL     1      -5.895  17.314  -0.321  1.00  0.00     0.245 C
HETATM    5  O1  UNL     1      -4.951  16.905   0.443  1.00  0.00    -0.271 OA
HETATM    6  C6  UNL     1      -7.245  17.161   0.141  1.00  0.00     0.177 C
HETATM    7  N5  UNL     1      -8.234  18.128  -0.293  1.00  0.00    -0.346 N
ATOM      8  H5  UNL     1      -8.146  19.078   0.065  1.00  0.00     0.163 HD
HETATM    9  C20 UNL     1      -9.314  17.867  -1.174  1.00  0.00     0.249 C
HETATM   10  O6  UNL     1     -10.483  18.304  -0.886  1.00  0.00    -0.271 OA
HETATM   11  C21 UNL     1      -9.241  17.116  -2.443  1.00  0.00     0.277 C
HETATM   12  C22 UNL     1     -10.168  15.934  -2.535  1.00  0.00     0.043 C
HETATM   13  C23 UNL     1      -9.817  15.282  -3.883  1.00  0.00     0.003 C
HETATM   14  C24 UNL     1      -9.664  16.284  -4.974  1.00  0.00     0.002 C
HETATM   15  C25 UNL     1      -8.303  16.802  -5.233  1.00  0.00     0.033 C
HETATM   16  C26 UNL     1      -7.483  17.221  -4.068  1.00  0.00     0.194 C
HETATM   17  C27 UNL     1      -7.349  18.723  -3.934  1.00  0.00     0.118 C
HETATM   18  C28 UNL     1      -5.931  19.105  -3.498  1.00  0.00     0.177 C
HETATM   19  O7  UNL     1      -5.203  19.328  -4.440  1.00  0.00    -0.291 OA
HETATM   20  N6  UNL     1      -7.941  16.663  -2.812  1.00  0.00    -0.058 N
ATOM     21  H61 UNL     1      -7.902  15.644  -2.829  1.00  0.00     0.278 HD
ATOM     22  H62 UNL     1      -7.268  16.843  -2.066  1.00  0.00     0.278 HD
ENDROOT
BRANCH   6  23
HETATM   23  C7  UNL     1      -7.330  16.988   1.630  1.00  0.00     0.035 C
BRANCH  23  24
HETATM   24  C8  UNL     1      -8.465  17.569   2.361  1.00  0.00     0.004 C
BRANCH  24  25
HETATM   25  C9  UNL     1      -8.836  16.612   3.506  1.00  0.00     0.020 C
BRANCH  25  26
HETATM   26  C10 UNL     1      -9.013  17.379   4.761  1.00  0.00     0.125 C
BRANCH  26  27
HETATM   27  N2  UNL     1      -9.781  16.517   5.727  1.00  0.00    -0.359 N
BRANCH  27  28
HETATM   28  C11 UNL     1      -9.266  16.455   7.022  1.00  0.00     0.350 C
HETATM   29  O2  UNL     1      -9.624  17.233   7.926  1.00  0.00    -0.284 OA
ENDBRANCH  27  28
BRANCH  27  30
HETATM   30  C12 UNL     1     -10.965  15.893   5.220  1.00  0.00     0.131 C
BRANCH  30  31
HETATM   31  C13 UNL     1     -12.106  15.782   6.174  1.00  0.00     0.079 C
BRANCH  31  32
HETATM   32  C14 UNL     1     -12.859  14.481   6.154  1.00  0.00     0.160 C
BRANCH  32  33
HETATM   33  N3  UNL     1     -13.500  14.210   4.929  1.00  0.00    -0.388 NA
HETATM   34  C15 UNL     1     -14.103  13.955   3.777  1.00  0.00     0.290 C
HETATM   35  O3  UNL     1     -14.289  12.795   3.261  1.00  0.00    -0.257 OA
BRANCH  34  36
HETATM   36  C16 UNL     1     -14.673  15.089   2.886  1.00  0.00     0.122 C
BRANCH  36  37
HETATM   37  C17 UNL     1     -13.839  15.183   1.648  1.00  0.00     0.054 C
BRANCH  37  38
HETATM   38  C18 UNL     1     -12.420  15.571   1.892  1.00  0.00     0.283 C
BRANCH  38  39
HETATM   39  N4  UNL     1     -12.232  16.900   1.258  1.00  0.00    -0.065 N
ATOM     40  H43 UNL     1     -12.312  16.878   0.241  1.00  0.00     0.275 HD
ATOM     41  H42 UNL     1     -13.004  17.543   1.432  1.00  0.00     0.275 HD
ATOM     42  H41 UNL     1     -11.332  17.251   1.584  1.00  0.00     0.275 HD
ENDBRANCH  38  39
BRANCH  38  43
HETATM   43  C19 UNL     1     -11.469  14.646   1.298  1.00  0.00     0.204 C
HETATM   44  O4  UNL     1     -10.403  15.101   0.779  1.00  0.00    -0.646 OA
HETATM   45  O5  UNL     1     -11.678  13.280   1.277  1.00  0.00    -0.646 OA
ENDBRANCH  38  43
ENDBRANCH  37  38
ENDBRANCH  36  37
ENDBRANCH  34  36
ENDBRANCH  32  33
ENDBRANCH  31  32
ENDBRANCH  30  31
ENDBRANCH  27  30
ENDBRANCH  26  27
ENDBRANCH  25  26
ENDBRANCH  24  25
ENDBRANCH  23  24
ENDBRANCH   6  23
BRANCH   1  46
HETATM   46  C3  UNL     1      -4.627  20.184  -1.630  1.00  0.00     0.006 C
BRANCH  46  47
HETATM   47  C2  UNL     1      -3.213  19.875  -1.436  1.00  0.00     0.025 C
HETATM   48  C1  UNL     1      -2.309  19.604  -2.581  1.00  0.00     0.009 C
ENDBRANCH  46  47
ENDBRANCH   1  46
TORSDOF 17
ENDMDL