MODEL 3
REMARK VINA RESULT: -5.900582564      3.030      4.221
REMARK  3 active torsions:
REMARK  status: ('A' for Active; 'I' for Inactive)
REMARK    1  A    between atoms: O1_2  and  C2_3
REMARK    2  A    between atoms: C11_18  and  N5_19
REMARK    3  A    between atoms: N5_19  and  N6_21
ROOT
HETATM    1  C2  UNL     1       7.222  15.746  38.261  1.00  0.00     0.114 A
HETATM    2  C3  UNL     1       6.935  16.533  39.356  1.00  0.00     0.149 A
HETATM    3  C4  UNL     1       6.372  17.844  39.096  1.00  0.00     0.120 C
HETATM    4  N1  UNL     1       5.911  18.890  38.904  1.00  0.00    -0.190 NA
HETATM    5  N2  UNL     1       7.165  16.108  40.612  1.00  0.00    -0.330 N
ATOM      6  H2  UNL     1       6.946  16.701  41.413  1.00  0.00     0.168 HD
HETATM    7  C5  UNL     1       7.697  14.863  40.789  1.00  0.00     0.132 A
HETATM    8  C6  UNL     1       7.999  14.044  39.725  1.00  0.00     0.085 A
HETATM    9  C7  UNL     1       7.763  14.482  38.426  1.00  0.00     0.005 A
HETATM   10  C8  UNL     1       8.082  13.613  37.293  1.00  0.00     0.054 C
HETATM   11  N3  UNL     1       8.533  12.818  40.187  1.00  0.00    -0.348 N
HETATM   12  C9  UNL     1       8.729  11.534  39.507  1.00  0.00     0.145 C
HETATM   13  C10 UNL     1       9.305  10.557  40.518  1.00  0.00     0.141 C
HETATM   14  N4  UNL     1       8.651  10.672  41.800  1.00  0.00    -0.374 N
ATOM     15  H4  UNL     1       8.350   9.830  42.291  1.00  0.00     0.161 HD
HETATM   16  C11 UNL     1       8.445  11.825  42.329  1.00  0.00     0.135 C
HETATM   17  C12 UNL     1       8.902  13.011  41.573  1.00  0.00     0.256 C
HETATM   18  N7  UNL     1       8.054  14.132  41.957  1.00  0.00    -0.347 N
ATOM     19  H7  UNL     1       7.763  14.355  42.909  1.00  0.00     0.163 HD
ENDROOT
BRANCH   1  20
HETATM   20  O1  UNL     1       6.972  16.218  36.958  1.00  0.00    -0.352 OA
HETATM   21  C1  UNL     1       7.986  17.047  36.406  1.00  0.00     0.210 C
ENDBRANCH   1  20
BRANCH  16  22
HETATM   22  N5  UNL     1       7.805  11.950  43.584  1.00  0.00    -0.293 N
ATOM     23  H5  UNL     1       7.362  12.842  43.804  1.00  0.00     0.187 HD
BRANCH  22  24
HETATM   24  N6  UNL     1       7.739  10.947  44.535  1.00  0.00    -0.344 N
ATOM     25  H62 UNL     1       8.263  11.099  45.396  1.00  0.00     0.176 HD
ATOM     26  H61 UNL     1       7.206  10.083  44.430  1.00  0.00     0.176 HD
ENDBRANCH  22  24
ENDBRANCH  16  22
TORSDOF 3
ENDMDL