MODEL 4
REMARK VINA RESULT: -7.049802329      3.591      7.107
REMARK  3 active torsions:
REMARK  status: ('A' for Active; 'I' for Inactive)
REMARK    1  A    between atoms: C5_7  and  N2_8
REMARK    2  A    between atoms: C7_19  and  C8_20
REMARK    3  A    between atoms: C9_25  and  N9_26
ROOT
HETATM    1  C1  UNL     1       9.284  14.784  36.081  1.00  0.00     0.070 C
HETATM    2  C2  UNL     1       8.237  15.728  36.561  1.00  0.00     0.036 A
HETATM    3  N1  UNL     1       8.339  17.045  36.139  1.00  0.00    -0.358 N
ATOM      4  H1  UNL     1       9.110  17.315  35.527  1.00  0.00     0.165 HD
HETATM    5  C3  UNL     1       7.453  17.966  36.515  1.00  0.00     0.052 A
HETATM    6  C4  UNL     1       7.514  19.387  36.095  1.00  0.00     0.072 C
HETATM    7  C5  UNL     1       6.432  17.545  37.341  1.00  0.00     0.156 A
HETATM    8  N6  UNL     1       6.318  16.280  37.758  1.00  0.00    -0.335 N
ATOM      9  H6  UNL     1       5.544  16.019  38.368  1.00  0.00     0.168 HD
HETATM   10  C7  UNL     1       7.235  15.323  37.369  1.00  0.00     0.102 A
ENDROOT
BRANCH  10  11
HETATM   11  C8  UNL     1       7.060  13.963  37.853  1.00  0.00     0.165 A
HETATM   12  N7  UNL     1       5.960  13.676  38.642  1.00  0.00    -0.269 N
HETATM   13  N8  UNL     1       5.993  12.428  38.962  1.00  0.00    -0.131 N
ATOM     14  H7  UNL     1       5.241  14.342  38.924  1.00  0.00     0.189 HD
HETATM   15  C9  UNL     1       7.064  11.875  38.422  1.00  0.00     0.692 A
ATOM     16  H8  UNL     1       5.304  11.945  39.539  1.00  0.00     0.205 HD
HETATM   17  N10 UNL     1       7.718  12.831  37.737  1.00  0.00    -0.172 N
ATOM     18  H10 UNL     1       8.584  12.699  37.213  1.00  0.00     0.186 HD
BRANCH  15  19
HETATM   19  N9  UNL     1       7.405  10.636  38.540  1.00  0.00    -0.233 N
ATOM     20  H92 UNL     1       7.836  10.049  37.824  1.00  0.00     0.174 HD
ATOM     21  H91 UNL     1       7.286  10.068  39.378  1.00  0.00     0.174 HD
ENDBRANCH  15  19
ENDBRANCH  10  11
BRANCH   7  22
HETATM   22  N2  UNL     1       5.475  18.532  37.750  1.00  0.00    -0.170 N
HETATM   23  N3  UNL     1       5.447  19.190  38.900  1.00  0.00    -0.215 N
HETATM   24  N4  UNL     1       4.412  20.003  38.880  1.00  0.00    -0.224 N
ATOM     25  H3  UNL     1       6.111  19.084  39.667  1.00  0.00     0.210 HD
HETATM   26  N5  UNL     1       3.753  19.895  37.729  1.00  0.00    -0.234 N
ATOM     27  H4  UNL     1       4.152  20.629  39.642  1.00  0.00     0.210 HD
HETATM   28  C6  UNL     1       4.419  18.967  37.011  1.00  0.00     0.364 A
ATOM     29  H5  UNL     1       2.917  20.408  37.448  1.00  0.00     0.193 HD
HETATM   30  O1  UNL     1       4.100  18.584  35.857  1.00  0.00    -0.243 OA
ENDBRANCH   7  22
TORSDOF 3
ENDMDL