MODEL 2
REMARK VINA RESULT: -5.115213664      3.244      4.653
REMARK  5 active torsions:
REMARK  status: ('A' for Active; 'I' for Inactive)
REMARK    1  A    between atoms: S1_2  and  C2_3
REMARK    2  A    between atoms: C2_3  and  C3_4
REMARK    3  A    between atoms: C3_4  and  N1_5
REMARK    4  A    between atoms: N2_8  and  O2_9
REMARK    5  A    between atoms: C7_16  and  N4_17
ROOT
HETATM    1  N1  UNL     1       7.328  14.276  39.386  1.00  0.00    -0.280 N
HETATM    2  C4  UNL     1       7.528  13.541  38.244  1.00  0.00     0.355 A
HETATM    3  O1  UNL     1       8.182  13.933  37.234  1.00  0.00    -0.244 OA
HETATM    4  N2  UNL     1       6.943  12.355  38.338  1.00  0.00    -0.163 N
HETATM    5  C5  UNL     1       6.361  12.324  39.548  1.00  0.00     0.181 A
HETATM    6  C6  UNL     1       5.632  11.318  40.142  1.00  0.00     0.292 A
HETATM    7  O3  UNL     1       5.405  10.222  39.555  1.00  0.00    -0.265 OA
HETATM    8  N3  UNL     1       5.163  11.519  41.363  1.00  0.00    -0.154 N
ATOM      9  H3  UNL     1       4.619  10.791  41.827  1.00  0.00     0.187 HD
HETATM   10  C7  UNL     1       5.404  12.695  41.997  1.00  0.00     0.682 A
HETATM   11  N5  UNL     1       6.109  13.704  41.458  1.00  0.00    -0.170 N
HETATM   12  C8  UNL     1       6.367  14.930  42.166  1.00  0.00     0.177 C
HETATM   13  C9  UNL     1       6.601  13.524  40.207  1.00  0.00     0.164 A
ENDROOT
BRANCH   1  14
HETATM   14  C3  UNL     1       7.867  15.606  39.559  1.00  0.00     0.146 C
BRANCH  14  15
HETATM   15  C2  UNL     1       6.901  16.630  38.937  1.00  0.00     0.093 C
BRANCH  15  16
HETATM   16  S1  UNL     1       7.813  17.581  37.687  1.00  0.00    -0.172 SA
HETATM   17  C1  UNL     1       7.438  19.350  37.779  1.00  0.00     0.089 C
ENDBRANCH  15  16
ENDBRANCH  14  15
ENDBRANCH   1  14
BRANCH   4  18
HETATM   18  O2  UNL     1       6.900  11.326  37.426  1.00  0.00    -0.278 OA
ATOM     19  H2  UNL     1       6.432  10.501  37.468  1.00  0.00     0.245 HD
ENDBRANCH   4  18
BRANCH  10  20
HETATM   20  N4  UNL     1       4.919  12.800  43.169  1.00  0.00    -0.234 N
ATOM     21  H42 UNL     1       4.538  13.688  43.494  1.00  0.00     0.174 HD
ATOM     22  H41 UNL     1       4.943  11.951  43.735  1.00  0.00     0.174 HD
ENDBRANCH  10  20
TORSDOF 5
ENDMDL