MODEL 1
REMARK VINA RESULT: -6.485030100      0.000      0.000
REMARK  3 active torsions:
REMARK  status: ('A' for Active; 'I' for Inactive)
REMARK       I    between atoms: N1_2  and  C2_4
REMARK    1  A    between atoms: C2_4  and  C3_6
REMARK    2  A    between atoms: N4_11  and  C4_12
REMARK    3  A    between atoms: C5_13  and  O2_14
ROOT
HETATM    1  C3  UNL     1       7.721  17.433  37.018  1.00  0.00     0.206 A
HETATM    2  N2  UNL     1       8.321  16.358  36.480  1.00  0.00    -0.264 N
ATOM      3  H2  UNL     1       8.905  16.342  35.643  1.00  0.00     0.190 HD
HETATM    4  N3  UNL     1       8.013  15.337  37.238  1.00  0.00    -0.219 N
ATOM      5  H3  UNL     1       8.321  14.377  37.087  1.00  0.00     0.210 HD
HETATM    6  N4  UNL     1       7.236  15.743  38.233  1.00  0.00    -0.171 N
HETATM    7  N7  UNL     1       7.044  17.020  38.119  1.00  0.00    -0.257 N
ATOM      8  H7  UNL     1       6.487  17.605  38.742  1.00  0.00     0.191 HD
ENDROOT
BRANCH   6   9
HETATM    9  C4  UNL     1       6.744  14.822  39.226  1.00  0.00     0.194 A
HETATM   10  C5  UNL     1       6.222  13.605  38.845  1.00  0.00     0.179 A
HETATM   11  N5  UNL     1       5.767  12.757  39.785  1.00  0.00    -0.312 N
HETATM   12  C6  UNL     1       5.792  13.032  41.103  1.00  0.00     0.180 A
ATOM     13  H5  UNL     1       5.384  11.860  39.485  1.00  0.00     0.170 HD
HETATM   14  S1  UNL     1       5.226  11.967  42.217  1.00  0.00    -0.040 SA
HETATM   15  N6  UNL     1       6.298  14.213  41.482  1.00  0.00    -0.298 N
HETATM   16  C7  UNL     1       6.768  15.101  40.576  1.00  0.00     0.282 A
ATOM     17  H6  UNL     1       6.328  14.449  42.474  1.00  0.00     0.171 HD
HETATM   18  O3  UNL     1       7.237  16.199  40.934  1.00  0.00    -0.265 OA
BRANCH  10  19
HETATM   19  O2  UNL     1       6.191  13.307  37.488  1.00  0.00    -0.344 OA
ATOM     20  H2  UNL     1       6.699  12.565  37.184  1.00  0.00     0.219 HD
ENDBRANCH  10  19
ENDBRANCH   6   9
BRANCH   1  21
HETATM   21  C2  UNL     1       7.815  18.772  36.470  1.00  0.00     0.288 C
HETATM   22  N1  UNL     1       9.054  19.459  36.463  1.00  0.00    -0.359 N
HETATM   23  C1  UNL     1       9.208  20.798  35.929  1.00  0.00     0.149 C
ATOM     24  H1  UNL     1       9.873  18.991  36.851  1.00  0.00     0.162 HD
HETATM   25  O1  UNL     1       6.798  19.318  36.004  1.00  0.00    -0.264 OA
ENDBRANCH   1  21
TORSDOF 3
ENDMDL