MODEL 5
REMARK VINA RESULT: -8.077380659      2.404      6.790
REMARK  3 active torsions:
REMARK  status: ('A' for Active; 'I' for Inactive)
REMARK    1  A    between atoms: N1_1  and  C1_4
REMARK    2  A    between atoms: C2_7  and  C3_8
REMARK    3  A    between atoms: C4_19  and  C5_20
ROOT
HETATM    1  C1  UNL     1       8.325  18.727  36.773  1.00  0.00     0.679 A
HETATM    2  N2  UNL     1       8.372  17.385  36.867  1.00  0.00    -0.173 N
ATOM      3  H2  UNL     1       9.235  16.880  36.667  1.00  0.00     0.186 HD
HETATM    4  C2  UNL     1       7.259  16.726  37.228  1.00  0.00     0.170 A
HETATM    5  N7  UNL     1       6.155  17.422  37.479  1.00  0.00    -0.324 N
ATOM      6  H7  UNL     1       5.318  16.908  37.752  1.00  0.00     0.169 HD
HETATM    7  C4  UNL     1       6.071  18.762  37.396  1.00  0.00     0.140 A
HETATM    8  N10 UNL     1       7.185  19.418  37.034  1.00  0.00    -0.176 N
ATOM      9  H10 UNL     1       7.176  20.434  36.956  1.00  0.00     0.186 HD
ENDROOT
BRANCH   4  10
HETATM   10  C3  UNL     1       7.258  15.260  37.345  1.00  0.00     0.182 A
HETATM   11  N3  UNL     1       8.237  14.433  36.948  1.00  0.00    -0.266 N
HETATM   12  N4  UNL     1       7.846  13.210  37.230  1.00  0.00    -0.226 N
ATOM     13  H3  UNL     1       9.118  14.702  36.511  1.00  0.00     0.190 HD
HETATM   14  N5  UNL     1       6.653  13.221  37.790  1.00  0.00    -0.226 N
ATOM     15  H4  UNL     1       8.390  12.368  37.042  1.00  0.00     0.210 HD
HETATM   16  N6  UNL     1       6.296  14.485  37.859  1.00  0.00    -0.266 N
ATOM     17  H5  UNL     1       6.116  12.414  38.106  1.00  0.00     0.210 HD
ATOM     18  H6  UNL     1       5.415  14.824  38.247  1.00  0.00     0.190 HD
ENDBRANCH   4  10
BRANCH   1  19
HETATM   19  N1  UNL     1       9.378  19.411  36.426  1.00  0.00    -0.234 N
ATOM     20  H12 UNL     1      10.292  19.013  36.643  1.00  0.00     0.174 HD
ATOM     21  H11 UNL     1       9.286  20.311  35.953  1.00  0.00     0.174 HD
ENDBRANCH   1  19
BRANCH   7  22
HETATM   22  C5  UNL     1       4.809  19.401  37.695  1.00  0.00     0.092 A
HETATM   23  C6  UNL     1       4.588  19.995  38.903  1.00  0.00     0.110 A
HETATM   24  N8  UNL     1       3.382  20.588  39.149  1.00  0.00    -0.361 N
HETATM   25  C7  UNL     1       2.410  20.598  38.224  1.00  0.00     0.183 A
ATOM     26  H8  UNL     1       3.219  21.032  40.053  1.00  0.00     0.166 HD
HETATM   27  N9  UNL     1       2.649  20.011  37.052  1.00  0.00    -0.319 N
HETATM   28  C8  UNL     1       3.811  19.414  36.755  1.00  0.00     0.261 A
ATOM     29  H9  UNL     1       1.911  20.016  36.348  1.00  0.00     0.169 HD
HETATM   30  O1  UNL     1       3.947  18.881  35.612  1.00  0.00    -0.267 OA
ENDBRANCH   7  22
TORSDOF 3
ENDMDL