MODEL 2
REMARK VINA RESULT: -6.267146708      0.458      1.135
REMARK  2 active torsions:
REMARK  status: ('A' for Active; 'I' for Inactive)
REMARK    1  A    between atoms: C2_3  and  N2_4
REMARK    2  A    between atoms: C4_8  and  C5_9
ROOT
HETATM    1  N2  UNL     1       6.662  15.566  40.076  1.00  0.00    -0.278 N
ATOM      2  H2  UNL     1       5.649  15.446  40.087  1.00  0.00     0.179 HD
HETATM    3  C3  UNL     1       7.250  15.425  41.310  1.00  0.00     0.183 C
HETATM    4  N3  UNL     1       7.710  15.301  42.368  1.00  0.00    -0.172 NA
ENDROOT
BRANCH   1   5
HETATM    5  C2  UNL     1       7.181  15.842  38.812  1.00  0.00     0.138 A
HETATM    6  N1  UNL     1       7.155  17.067  38.276  1.00  0.00    -0.313 N
HETATM    7  C1  UNL     1       6.574  18.214  38.952  1.00  0.00     0.160 C
HETATM    8  C9  UNL     1       7.677  17.350  37.040  1.00  0.00     0.182 A
HETATM    9  N7  UNL     1       8.244  16.373  36.314  1.00  0.00    -0.299 N
HETATM   10  S1  UNL     1       7.627  18.871  36.413  1.00  0.00    -0.040 SA
HETATM   11  C8  UNL     1       8.284  15.137  36.824  1.00  0.00     0.265 A
ATOM     12  H7  UNL     1       8.637  16.570  35.393  1.00  0.00     0.171 HD
HETATM   13  C4  UNL     1       7.767  14.809  38.070  1.00  0.00     0.122 A
HETATM   14  O1  UNL     1       8.814  14.198  36.163  1.00  0.00    -0.267 OA
BRANCH  13  15
HETATM   15  C5  UNL     1       7.830  13.422  38.500  1.00  0.00     0.135 C
HETATM   16  N4  UNL     1       8.945  13.057  39.051  1.00  0.00    -0.289 N
HETATM   17  N5  UNL     1       9.151  11.768  39.510  1.00  0.00    -0.333 N
ATOM     18  H4  UNL     1       9.694  13.742  39.150  1.00  0.00     0.188 HD
HETATM   19  C6  UNL     1       8.078  10.819  39.724  1.00  0.00     0.159 C
ATOM     20  H5  UNL     1      10.106  11.471  39.707  1.00  0.00     0.180 HD
HETATM   21  C7  UNL     1       6.862  11.112  38.907  1.00  0.00     0.142 C
HETATM   22  N6  UNL     1       6.843  12.444  38.346  1.00  0.00    -0.373 N
ATOM     23  H6  UNL     1       6.030  12.695  37.784  1.00  0.00     0.161 HD
ENDBRANCH  13  15
ENDBRANCH   1   5
TORSDOF 2
ENDMDL