MODEL 3
REMARK VINA RESULT: -6.958790914      4.131      6.594
REMARK  4 active torsions:
REMARK  status: ('A' for Active; 'I' for Inactive)
REMARK    1  A    between atoms: C3_8  and  C4_9
REMARK    2  A    between atoms: C4_9  and  N3_10
REMARK    3  A    between atoms: C4_9  and  C7_20
REMARK       I    between atoms: C7_20  and  N6_22
REMARK    4  A    between atoms: N6_22  and  N7_24
ROOT
HETATM    1  C4  UNL     1       6.414  18.491  37.730  1.00  0.00     0.233 C
ENDROOT
BRANCH   1   2
HETATM    2  C3  UNL     1       5.132  19.041  37.246  1.00  0.00     0.090 A
HETATM    3  C2  UNL     1       4.079  19.442  38.025  1.00  0.00     0.057 A
HETATM    4  C1  UNL     1       3.932  19.445  39.494  1.00  0.00     0.072 C
HETATM    5  N1  UNL     1       3.124  19.871  37.146  1.00  0.00    -0.244 N
HETATM    6  O1  UNL     1       3.578  19.732  35.951  1.00  0.00    -0.157 OA
ATOM      7  H1  UNL     1       2.206  20.239  37.395  1.00  0.00     0.196 HD
HETATM    8  N2  UNL     1       4.795  19.230  35.964  1.00  0.00    -0.241 N
ATOM      9  H2  UNL     1       5.373  19.023  35.150  1.00  0.00     0.196 HD
ENDBRANCH   1   2
BRANCH   1  10
HETATM   10  N3  UNL     1       6.634  17.217  37.134  1.00  0.00    -0.336 N
HETATM   11  C5  UNL     1       6.789  16.123  37.824  1.00  0.00     0.242 A
HETATM   12  N4  UNL     1       6.780  15.948  39.156  1.00  0.00    -0.262 N
HETATM   13  O2  UNL     1       6.991  14.941  37.308  1.00  0.00    -0.249 OA
HETATM   14  N5  UNL     1       6.976  14.666  39.437  1.00  0.00    -0.267 N
ATOM     15  H4  UNL     1       6.643  16.688  39.846  1.00  0.00     0.190 HD
HETATM   16  C6  UNL     1       7.110  14.032  38.246  1.00  0.00     0.236 A
ATOM     17  H5  UNL     1       7.017  14.242  40.364  1.00  0.00     0.190 HD
HETATM   18  S1  UNL     1       7.372  12.432  37.989  1.00  0.00    -0.031 SA
ATOM     19  H3  UNL     1       6.671  17.158  36.117  1.00  0.00     0.164 HD
ENDBRANCH   1  10
BRANCH   1  20
HETATM   20  C7  UNL     1       7.517  19.436  37.342  1.00  0.00     0.264 C
HETATM   21  O3  UNL     1       7.635  20.498  38.022  1.00  0.00    -0.269 OA
HETATM   22  N6  UNL     1       8.370  19.146  36.271  1.00  0.00    -0.275 N
ATOM     23  H6  UNL     1       8.257  18.285  35.736  1.00  0.00     0.189 HD
BRANCH  22  24
HETATM   24  N7  UNL     1       9.380  20.056  35.948  1.00  0.00    -0.343 N
ATOM     25  H72 UNL     1       9.981  20.424  36.685  1.00  0.00     0.176 HD
ATOM     26  H71 UNL     1       9.497  20.336  34.975  1.00  0.00     0.176 HD
ENDBRANCH  22  24
ENDBRANCH   1  20
TORSDOF 4
ENDMDL