MODEL 1
REMARK VINA RESULT: -5.718859294      0.000      0.000
REMARK  4 active torsions:
REMARK  status: ('A' for Active; 'I' for Inactive)
REMARK    1  A    between atoms: O1_2  and  C2_3
REMARK    2  A    between atoms: C2_3  and  C3_5
REMARK    3  A    between atoms: C4_8  and  O3_9
REMARK    4  A    between atoms: C7_14  and  N3_15
ROOT
HETATM    1  C3  UNL     1       6.706  13.859  39.123  1.00  0.00     0.136 A
HETATM    2  N1  UNL     1       5.884  12.796  39.151  1.00  0.00    -0.329 N
ATOM      3  H1  UNL     1       5.625  12.357  38.266  1.00  0.00     0.168 HD
HETATM    4  C4  UNL     1       5.387  12.283  40.289  1.00  0.00     0.171 A
HETATM    5  C6  UNL     1       5.760  12.904  41.464  1.00  0.00     0.117 A
HETATM    6  N2  UNL     1       5.313  12.464  42.657  1.00  0.00    -0.187 N
ATOM      7  H2  UNL     1       4.687  11.660  42.698  1.00  0.00     0.184 HD
HETATM    8  C7  UNL     1       5.682  13.075  43.791  1.00  0.00     0.679 A
HETATM    9  N4  UNL     1       6.502  14.140  43.798  1.00  0.00    -0.156 N
ATOM     10  H4  UNL     1       6.761  14.578  44.682  1.00  0.00     0.187 HD
HETATM   11  C8  UNL     1       6.980  14.625  42.648  1.00  0.00     0.274 A
HETATM   12  O4  UNL     1       7.741  15.614  42.663  1.00  0.00    -0.267 OA
HETATM   13  C9  UNL     1       6.614  14.014  41.474  1.00  0.00     0.091 A
HETATM   14  C10 UNL     1       7.098  14.502  40.278  1.00  0.00     0.097 A
HETATM   15  N5  UNL     1       7.977  15.637  40.242  1.00  0.00    -0.099 NA
ENDROOT
BRANCH   1  16
HETATM   16  C2  UNL     1       7.224  14.383  37.854  1.00  0.00     0.311 C
HETATM   17  O2  UNL     1       8.170  13.801  37.271  1.00  0.00    -0.258 OA
BRANCH  16  18
HETATM   18  O1  UNL     1       6.703  15.516  37.258  1.00  0.00    -0.321 OA
HETATM   19  C1  UNL     1       7.488  16.635  36.889  1.00  0.00     0.213 C
ENDBRANCH  16  18
ENDBRANCH   1  16
BRANCH   4  20
HETATM   20  O3  UNL     1       4.545  11.198  40.340  1.00  0.00    -0.339 OA
HETATM   21  C5  UNL     1       4.831   9.928  39.841  1.00  0.00     0.211 C
ENDBRANCH   4  20
BRANCH   8  22
HETATM   22  N3  UNL     1       5.244  12.638  44.913  1.00  0.00    -0.234 N
ATOM     23  H32 UNL     1       4.666  11.799  44.912  1.00  0.00     0.174 HD
ATOM     24  H31 UNL     1       5.482  13.134  45.772  1.00  0.00     0.174 HD
ENDBRANCH   8  22
TORSDOF 4
ENDMDL