MODEL 1
REMARK VINA RESULT: -7.089047139      0.000      0.000
REMARK  3 active torsions:
REMARK  status: ('A' for Active; 'I' for Inactive)
REMARK    1  A    between atoms: N1_1  and  C1_4
REMARK    2  A    between atoms: C2_7  and  N3_8
REMARK    3  A    between atoms: N6_22  and  O3_23
ROOT
HETATM    1  C1  UNL     1       7.618  18.670  36.616  1.00  0.00     0.145 A
HETATM    2  N2  UNL     1       6.505  19.331  36.980  1.00  0.00    -0.175 N
ATOM      3  H2  UNL     1       6.465  20.346  36.897  1.00  0.00     0.186 HD
HETATM    4  C2  UNL     1       5.455  18.660  37.450  1.00  0.00     0.683 A
HETATM    5  N4  UNL     1       5.526  17.308  37.553  1.00  0.00    -0.172 N
ATOM      6  H4  UNL     1       4.719  16.796  37.911  1.00  0.00     0.186 HD
HETATM    7  C7  UNL     1       6.621  16.624  37.199  1.00  0.00     0.184 A
HETATM    8  C8  UNL     1       7.713  17.283  36.715  1.00  0.00     0.128 A
HETATM    9  N5  UNL     1       8.674  16.379  36.434  1.00  0.00    -0.300 N
ATOM     10  H5  UNL     1       9.602  16.570  36.058  1.00  0.00     0.171 HD
HETATM   11  C9  UNL     1       8.166  15.179  36.747  1.00  0.00     0.353 A
HETATM   12  O2  UNL     1       8.782  14.083  36.620  1.00  0.00    -0.244 OA
HETATM   13  N6  UNL     1       6.921  15.296  37.214  1.00  0.00    -0.152 N
ENDROOT
BRANCH   4  14
HETATM   14  N3  UNL     1       4.242  19.251  37.883  1.00  0.00    -0.213 N
HETATM   15  C3  UNL     1       3.796  19.333  39.252  1.00  0.00     0.167 C
HETATM   16  C4  UNL     1       3.223  20.716  39.530  1.00  0.00     0.188 C
HETATM   17  O1  UNL     1       2.384  21.148  38.530  1.00  0.00    -0.388 OA
HETATM   18  C5  UNL     1       2.079  20.179  37.575  1.00  0.00     0.188 C
HETATM   19  C6  UNL     1       3.384  19.839  36.882  1.00  0.00     0.167 C
ENDBRANCH   4  14
BRANCH   1  20
HETATM   20  N1  UNL     1       8.652  19.306  36.148  1.00  0.00    -0.383 N
ATOM     21  H12 UNL     1       8.575  20.318  36.053  1.00  0.00     0.157 HD
ATOM     22  H11 UNL     1       9.505  18.807  35.893  1.00  0.00     0.157 HD
ENDBRANCH   1  20
BRANCH  13  23
HETATM   23  O3  UNL     1       6.058  14.316  37.640  1.00  0.00    -0.277 OA
ATOM     24  H3  UNL     1       6.321  13.559  38.151  1.00  0.00     0.245 HD
ENDBRANCH  13  23
TORSDOF 3
ENDMDL