MODEL 4
REMARK VINA RESULT: -5.748089283      2.207      6.646
REMARK  14 active torsions:
REMARK  status: ('A' for Active; 'I' for Inactive)
REMARK    1  A    between atoms: C1_1  and  C2_2
REMARK    2  A    between atoms: C1_1  and  C11_11
REMARK    3  A    between atoms: C2_2  and  C3_3
REMARK    4  A    between atoms: C3_3  and  C4_4
REMARK    5  A    between atoms: C4_4  and  C5_5
REMARK    6  A    between atoms: C5_5  and  C6_6
REMARK    7  A    between atoms: C6_6  and  C7_7
REMARK    8  A    between atoms: C7_7  and  C8_8
REMARK    9  A    between atoms: C11_11  and  C12_12
REMARK   10  A    between atoms: C12_12  and  C13_13
REMARK   11  A    between atoms: C13_13  and  C14_14
REMARK   12  A    between atoms: C14_14  and  C15_15
REMARK   13  A    between atoms: C15_15  and  C16_16
REMARK   14  A    between atoms: C16_16  and  C17_17
ROOT
HETATM    1  C12 UNL     1     -51.893  71.016 -11.505  1.00  0.00    -0.031 C
ENDROOT
BRANCH   1   2
HETATM    2  C11 UNL     1     -52.239  71.240 -12.915  1.00  0.00     0.027 C
BRANCH   2   3
HETATM    3  C1  UNL     1     -53.173  70.275 -13.552  1.00  0.00     0.004 C
BRANCH   3   4
HETATM    4  C2  UNL     1     -52.491  69.135 -14.228  1.00  0.00     0.000 C
BRANCH   4   5
HETATM    5  C3  UNL     1     -52.540  67.900 -13.398  1.00  0.00     0.000 C
BRANCH   5   6
HETATM    6  C4  UNL     1     -51.196  67.578 -12.818  1.00  0.00     0.000 C
BRANCH   6   7
HETATM    7  C5  UNL     1     -50.099  68.320 -13.493  1.00  0.00     0.000 C
BRANCH   7   8
HETATM    8  C6  UNL     1     -48.999  68.733 -12.548  1.00  0.00     0.000 C
BRANCH   8   9
HETATM    9  C7  UNL     1     -48.927  67.831 -11.335  1.00  0.00     0.004 C
BRANCH   9  10
HETATM   10  C8  UNL     1     -48.908  68.733 -10.113  1.00  0.00    -0.014 A
HETATM   11  C9  UNL     1     -48.944  67.957  -8.810  1.00  0.00     0.005 A
HETATM   12  C10 UNL     1     -50.070  68.835  -9.221  1.00  0.00     0.005 A
ENDBRANCH   9  10
ENDBRANCH   8   9
ENDBRANCH   7   8
ENDBRANCH   6   7
ENDBRANCH   5   6
ENDBRANCH   4   5
ENDBRANCH   3   4
ENDBRANCH   2   3
ENDBRANCH   1   2
BRANCH   1  13
HETATM   13  C13 UNL     1     -51.573  72.095 -10.578  1.00  0.00    -0.031 C
BRANCH  13  14
HETATM   14  C14 UNL     1     -52.200  72.197  -9.247  1.00  0.00     0.027 C
BRANCH  14  15
HETATM   15  C15 UNL     1     -51.372  72.839  -8.195  1.00  0.00     0.006 C
BRANCH  15  16
HETATM   16  C16 UNL     1     -49.903  72.510  -8.552  1.00  0.00     0.033 C
BRANCH  16  17
HETATM   17  C17 UNL     1     -48.982  73.007  -7.475  1.00  0.00     0.185 C
HETATM   18  C18 UNL     1     -49.222  72.252  -6.203  1.00  0.00     0.033 C
HETATM   19  C19 UNL     1     -47.895  71.614  -5.770  1.00  0.00     0.004 C
HETATM   20  C20 UNL     1     -47.502  70.696  -6.935  1.00  0.00     0.027 C
HETATM   21  C21 UNL     1     -47.233  71.545  -8.163  1.00  0.00     0.232 C
HETATM   22  N1  UNL     1     -47.625  72.897  -7.910  1.00  0.00    -0.071 N
ATOM     23  H12 UNL     1     -47.452  73.486  -8.724  1.00  0.00     0.277 HD
ATOM     24  H11 UNL     1     -46.991  73.342  -7.246  1.00  0.00     0.277 HD
ENDBRANCH  16  17
ENDBRANCH  15  16
ENDBRANCH  14  15
ENDBRANCH  13  14
ENDBRANCH   1  13
TORSDOF 14
ENDMDL