MODEL 2
REMARK VINA RESULT: -5.965097715      1.369      2.460
REMARK  13 active torsions:
REMARK  status: ('A' for Active; 'I' for Inactive)
REMARK    1  A    between atoms: C4_4  and  C5_5
REMARK    2  A    between atoms: C5_5  and  N1_6
REMARK    3  A    between atoms: N1_6  and  C6_9
REMARK    4  A    between atoms: C6_9  and  C7_10
REMARK    5  A    between atoms: C7_10  and  C8_11
REMARK    6  A    between atoms: C8_11  and  C9_12
REMARK    7  A    between atoms: C9_12  and  C10_13
REMARK    8  A    between atoms: C10_13  and  C11_14
REMARK    9  A    between atoms: C11_14  and  C12_15
REMARK   10  A    between atoms: C12_15  and  C13_16
REMARK   11  A    between atoms: C13_16  and  C14_17
REMARK   12  A    between atoms: C15_18  and  C16_19
REMARK   13  A    between atoms: C16_19  and  C17_20
ROOT
HETATM    1  C7  UNL     1     -49.540  66.196 -11.642  1.00  0.00     0.027 C
ENDROOT
BRANCH   1   2
HETATM    2  C6  UNL     1     -48.449  67.082 -12.197  1.00  0.00     0.232 C
BRANCH   2   3
HETATM    3  N1  UNL     1     -48.865  67.581 -13.483  1.00  0.00    -0.071 N
ATOM      4  H12 UNL     1     -49.653  67.042 -13.842  1.00  0.00     0.277 HD
ATOM      5  H11 UNL     1     -48.171  67.363 -14.197  1.00  0.00     0.277 HD
BRANCH   3   6
HETATM    6  C5  UNL     1     -49.165  68.974 -13.479  1.00  0.00     0.270 C
BRANCH   6   7
HETATM    7  C4  UNL     1     -50.607  69.261 -13.282  1.00  0.00    -0.033 A
HETATM    8  C3  UNL     1     -51.565  68.337 -13.588  1.00  0.00     0.009 A
HETATM    9  C2  UNL     1     -52.915  68.603 -13.409  1.00  0.00     0.001 A
HETATM   10  C1  UNL     1     -53.277  69.837 -12.906  1.00  0.00     0.000 A
HETATM   11  C21 UNL     1     -52.319  70.778 -12.595  1.00  0.00     0.001 A
HETATM   12  C20 UNL     1     -50.975  70.493 -12.781  1.00  0.00     0.009 A
ENDBRANCH   6   7
ENDBRANCH   3   6
ENDBRANCH   2   3
ENDBRANCH   1   2
BRANCH   1  13
HETATM   13  C8  UNL     1     -49.809  66.527 -10.177  1.00  0.00     0.002 C
BRANCH  13  14
HETATM   14  C9  UNL     1     -49.250  67.882  -9.923  1.00  0.00     0.000 C
BRANCH  14  15
HETATM   15  C10 UNL     1     -50.266  68.871  -9.372  1.00  0.00     0.000 C
BRANCH  15  16
HETATM   16  C11 UNL     1     -49.620  70.199  -9.287  1.00  0.00     0.000 C
BRANCH  16  17
HETATM   17  C12 UNL     1     -50.680  71.305  -9.207  1.00  0.00     0.004 C
BRANCH  17  18
HETATM   18  C13 UNL     1     -50.083  72.503  -8.586  1.00  0.00     0.027 C
BRANCH  18  19
HETATM   19  C14 UNL     1     -50.367  72.671  -7.149  1.00  0.00    -0.031 C
HETATM   20  C15 UNL     1     -49.371  72.404  -6.132  1.00  0.00    -0.030 C
BRANCH  20  21
HETATM   21  C16 UNL     1     -48.085  73.115  -6.076  1.00  0.00     0.031 C
BRANCH  21  22
HETATM   22  C17 UNL     1     -46.963  72.023  -6.101  1.00  0.00    -0.011 A
HETATM   23  C18 UNL     1     -46.997  71.028  -5.028  1.00  0.00     0.005 A
HETATM   24  C19 UNL     1     -47.381  70.631  -6.432  1.00  0.00     0.005 A
ENDBRANCH  21  22
ENDBRANCH  20  21
ENDBRANCH  18  19
ENDBRANCH  17  18
ENDBRANCH  16  17
ENDBRANCH  15  16
ENDBRANCH  14  15
ENDBRANCH  13  14
ENDBRANCH   1  13
TORSDOF 13
ENDMDL