MODEL 2
REMARK VINA RESULT: -5.958049604      2.292      3.765
REMARK  15 active torsions:
REMARK  status: ('A' for Active; 'I' for Inactive)
REMARK    1  A    between atoms: N1_1  and  C1_5
REMARK    2  A    between atoms: C1_5  and  C2_6
REMARK    3  A    between atoms: C2_6  and  C3_7
REMARK    4  A    between atoms: C3_7  and  C4_8
REMARK    5  A    between atoms: C4_8  and  C5_9
REMARK    6  A    between atoms: C5_9  and  C6_10
REMARK    7  A    between atoms: C6_10  and  C7_11
REMARK    8  A    between atoms: C7_11  and  C8_12
REMARK    9  A    between atoms: C8_12  and  C9_13
REMARK   10  A    between atoms: C9_13  and  C10_14
REMARK   11  A    between atoms: C10_14  and  C11_15
REMARK   12  A    between atoms: C12_17  and  C13_18
REMARK   13  A    between atoms: C13_18  and  C14_19
REMARK   14  A    between atoms: C14_19  and  C15_20
REMARK   15  A    between atoms: C15_20  and  C16_21
ROOT
HETATM    1  C9  UNL     1     -51.136  72.303  -8.285  1.00  0.00    -0.028 C
ENDROOT
BRANCH   1   2
HETATM    2  C8  UNL     1     -50.333  71.707  -9.339  1.00  0.00    -0.031 C
BRANCH   2   3
HETATM    3  C7  UNL     1     -50.536  70.362  -9.910  1.00  0.00     0.027 C
BRANCH   3   4
HETATM    4  C6  UNL     1     -49.851  69.283  -9.169  1.00  0.00     0.004 C
BRANCH   4   5
HETATM    5  C5  UNL     1     -48.538  69.535  -8.545  1.00  0.00     0.000 C
BRANCH   5   6
HETATM    6  C4  UNL     1     -47.618  68.476  -8.141  1.00  0.00     0.000 C
BRANCH   6   7
HETATM    7  C3  UNL     1     -46.301  68.446  -8.791  1.00  0.00     0.002 C
BRANCH   7   8
HETATM    8  C2  UNL     1     -45.758  69.897  -8.988  1.00  0.00     0.027 C
BRANCH   8   9
HETATM    9  C1  UNL     1     -45.103  69.881 -10.351  1.00  0.00     0.229 C
BRANCH   9  10
HETATM   10  N1  UNL     1     -45.979  69.417 -11.382  1.00  0.00    -0.079 N
ATOM     11  H13 UNL     1     -45.481  69.318 -12.267  1.00  0.00     0.274 HD
ATOM     12  H12 UNL     1     -46.239  68.443 -11.229  1.00  0.00     0.274 HD
ATOM     13  H11 UNL     1     -46.806  70.003 -11.492  1.00  0.00     0.274 HD
ENDBRANCH   9  10
ENDBRANCH   8   9
ENDBRANCH   7   8
ENDBRANCH   6   7
ENDBRANCH   5   6
ENDBRANCH   4   5
ENDBRANCH   3   4
ENDBRANCH   2   3
ENDBRANCH   1   2
BRANCH   1  14
HETATM   14  C10 UNL     1     -50.595  73.197  -7.259  1.00  0.00     0.061 C
BRANCH  14  15
HETATM   15  C11 UNL     1     -49.066  72.984  -7.205  1.00  0.00     0.154 A
HETATM   16  O1  UNL     1     -48.542  73.873  -6.137  1.00  0.00    -0.375 OA
HETATM   17  C12 UNL     1     -48.440  72.365  -6.154  1.00  0.00     0.151 A
BRANCH  17  18
HETATM   18  C13 UNL     1     -46.982  72.009  -6.178  1.00  0.00     0.035 C
BRANCH  18  19
HETATM   19  C14 UNL     1     -46.722  70.799  -5.328  1.00  0.00     0.007 C
BRANCH  19  20
HETATM   20  C15 UNL     1     -45.260  70.563  -5.166  1.00  0.00     0.038 C
BRANCH  20  21
HETATM   21  C16 UNL     1     -44.897  69.128  -5.418  1.00  0.00    -0.058 A
HETATM   22  C17 UNL     1     -43.715  68.788  -6.030  1.00  0.00     0.007 A
HETATM   23  C18 UNL     1     -43.382  67.448  -6.261  1.00  0.00     0.001 A
HETATM   24  C19 UNL     1     -44.246  66.439  -5.874  1.00  0.00     0.000 A
HETATM   25  C20 UNL     1     -45.431  66.782  -5.261  1.00  0.00     0.001 A
HETATM   26  C21 UNL     1     -45.754  68.125  -5.033  1.00  0.00     0.007 A
ENDBRANCH  20  21
ENDBRANCH  19  20
ENDBRANCH  18  19
ENDBRANCH  17  18
ENDBRANCH  14  15
ENDBRANCH   1  14
TORSDOF 15
ENDMDL