MODEL 3
REMARK VINA RESULT: -5.929458748      2.080      7.157
REMARK  14 active torsions:
REMARK  status: ('A' for Active; 'I' for Inactive)
REMARK    1  A    between atoms: C3_3  and  C4_4
REMARK    2  A    between atoms: C4_4  and  C5_5
REMARK    3  A    between atoms: C5_5  and  C6_6
REMARK    4  A    between atoms: C6_6  and  C7_7
REMARK    5  A    between atoms: C7_7  and  C8_8
REMARK    6  A    between atoms: C8_8  and  C9_9
REMARK    7  A    between atoms: C9_9  and  C10_10
REMARK    8  A    between atoms: C10_10  and  C11_11
REMARK    9  A    between atoms: C11_11  and  C12_12
REMARK   10  A    between atoms: C12_12  and  C13_13
REMARK   11  A    between atoms: C13_13  and  C14_14
REMARK   12  A    between atoms: C14_14  and  C15_15
REMARK   13  A    between atoms: C15_15  and  N1_16
REMARK   14  A    between atoms: N1_16  and  C16_18
ROOT
HETATM    1  C11 UNL     1     -49.669  69.267  -9.239  1.00  0.00     0.000 C
ENDROOT
BRANCH   1   2
HETATM    2  C10 UNL     1     -50.264  70.603  -9.584  1.00  0.00     0.000 C
BRANCH   2   3
HETATM    3  C9  UNL     1     -50.779  71.300  -8.379  1.00  0.00     0.000 C
BRANCH   3   4
HETATM    4  C8  UNL     1     -50.427  72.748  -8.400  1.00  0.00     0.000 C
BRANCH   4   5
HETATM    5  C7  UNL     1     -50.074  73.277  -7.017  1.00  0.00     0.000 C
BRANCH   5   6
HETATM    6  C6  UNL     1     -49.694  72.114  -6.163  1.00  0.00     0.000 C
BRANCH   6   7
HETATM    7  C5  UNL     1     -48.208  72.058  -5.845  1.00  0.00     0.001 C
BRANCH   7   8
HETATM    8  C4  UNL     1     -47.478  71.099  -6.711  1.00  0.00     0.009 C
BRANCH   8   9
HETATM    9  C3  UNL     1     -46.432  71.778  -7.555  1.00  0.00     0.011 A
HETATM   10  C2  UNL     1     -46.766  71.926  -8.971  1.00  0.00    -0.026 A
HETATM   11  C1  UNL     1     -46.686  73.230  -8.964  1.00  0.00    -0.030 A
HETATM   12  C21 UNL     1     -46.337  73.252  -7.535  1.00  0.00     0.035 A
ENDBRANCH   8   9
ENDBRANCH   7   8
ENDBRANCH   6   7
ENDBRANCH   5   6
ENDBRANCH   4   5
ENDBRANCH   3   4
ENDBRANCH   2   3
ENDBRANCH   1   2
BRANCH   1  13
HETATM   13  C12 UNL     1     -48.494  69.049 -10.208  1.00  0.00     0.000 C
BRANCH  13  14
HETATM   14  C13 UNL     1     -48.106  67.587 -10.229  1.00  0.00     0.002 C
BRANCH  14  15
HETATM   15  C14 UNL     1     -48.598  66.856 -11.417  1.00  0.00     0.020 C
BRANCH  15  16
HETATM   16  C15 UNL     1     -48.268  67.370 -12.761  1.00  0.00     0.119 C
BRANCH  16  17
HETATM   17  N1  UNL     1     -49.353  67.733 -13.618  1.00  0.00    -0.393 N
ATOM     18  H1  UNL     1     -49.284  67.413 -14.584  1.00  0.00     0.159 HD
BRANCH  17  19
HETATM   19  C16 UNL     1     -50.516  68.483 -13.294  1.00  0.00     0.001 C
HETATM   20  C17 UNL     1     -50.681  69.770 -13.168  1.00  0.00    -0.002 C
HETATM   21  C18 UNL     1     -52.086  70.131 -12.816  1.00  0.00     0.029 C
HETATM   22  C19 UNL     1     -52.836  68.881 -13.299  1.00  0.00     0.010 C
HETATM   23  C20 UNL     1     -51.812  67.822 -12.999  1.00  0.00     0.056 C
ENDBRANCH  17  19
ENDBRANCH  16  17
ENDBRANCH  15  16
ENDBRANCH  14  15
ENDBRANCH  13  14
ENDBRANCH   1  13
TORSDOF 14
ENDMDL