MODEL 1
REMARK VINA RESULT: -5.764672732      0.000      0.000
REMARK  14 active torsions:
REMARK  status: ('A' for Active; 'I' for Inactive)
REMARK    1  A    between atoms: C3_3  and  C4_4
REMARK    2  A    between atoms: C4_4  and  C5_5
REMARK    3  A    between atoms: C5_5  and  C6_6
REMARK    4  A    between atoms: C6_6  and  C7_7
REMARK    5  A    between atoms: C7_7  and  C8_8
REMARK    6  A    between atoms: C8_8  and  C9_9
REMARK    7  A    between atoms: C9_9  and  C10_10
REMARK    8  A    between atoms: C10_10  and  C11_11
REMARK    9  A    between atoms: C11_11  and  C12_12
REMARK   10  A    between atoms: C12_12  and  C13_13
REMARK   11  A    between atoms: C13_13  and  C14_14
REMARK   12  A    between atoms: C14_14  and  C15_15
REMARK   13  A    between atoms: C15_15  and  C16_16
REMARK   14  A    between atoms: C16_16  and  C17_17
ROOT
HETATM    1  C1  UNL     1     -47.294  73.178  -8.679  1.00  0.00     0.012 C
HETATM    2  C2  UNL     1     -48.106  72.990  -7.791  1.00  0.00    -0.117 C
HETATM    3  C3  UNL     1     -49.081  72.744  -6.719  1.00  0.00     0.093 C
ENDROOT
BRANCH   3   4
HETATM    4  C4  UNL     1     -50.479  72.982  -7.333  1.00  0.00     0.012 C
BRANCH   4   5
HETATM    5  C5  UNL     1     -50.775  71.847  -8.239  1.00  0.00     0.001 C
BRANCH   5   6
HETATM    6  C6  UNL     1     -51.908  72.180  -9.177  1.00  0.00     0.000 C
BRANCH   6   7
HETATM    7  C7  UNL     1     -51.440  72.128 -10.595  1.00  0.00     0.000 C
BRANCH   7   8
HETATM    8  C8  UNL     1     -52.142  71.033 -11.349  1.00  0.00     0.000 C
BRANCH   8   9
HETATM    9  C9  UNL     1     -52.015  71.281 -12.835  1.00  0.00     0.000 C
BRANCH   9  10
HETATM   10  C10 UNL     1     -51.614  70.014 -13.563  1.00  0.00     0.000 C
BRANCH  10  11
HETATM   11  C11 UNL     1     -52.567  68.911 -13.179  1.00  0.00     0.000 C
BRANCH  11  12
HETATM   12  C12 UNL     1     -51.821  67.632 -13.024  1.00  0.00     0.000 C
BRANCH  12  13
HETATM   13  C13 UNL     1     -50.424  67.877 -12.528  1.00  0.00     0.000 C
BRANCH  13  14
HETATM   14  C14 UNL     1     -49.898  66.728 -11.751  1.00  0.00     0.000 C
BRANCH  14  15
HETATM   15  C15 UNL     1     -50.232  66.806 -10.256  1.00  0.00     0.000 C
BRANCH  15  16
HETATM   16  C16 UNL     1     -50.262  68.212  -9.798  1.00  0.00     0.006 C
BRANCH  16  17
HETATM   17  C17 UNL     1     -49.030  68.650  -9.058  1.00  0.00     0.011 C
HETATM   18  C18 UNL     1     -48.280  69.693  -9.857  1.00  0.00     0.008 C
HETATM   19  C19 UNL     1     -47.092  69.036 -10.541  1.00  0.00     0.028 C
HETATM   20  C20 UNL     1     -46.176  68.509  -9.489  1.00  0.00     0.232 C
HETATM   21  N1  UNL     1     -46.851  68.145  -8.259  1.00  0.00    -0.075 N
HETATM   22  C21 UNL     1     -48.128  67.534  -8.658  1.00  0.00     0.237 C
ATOM     23  H12 UNL     1     -46.290  67.550  -7.649  1.00  0.00     0.277 HD
ATOM     24  H11 UNL     1     -46.960  68.924  -7.610  1.00  0.00     0.277 HD
ENDBRANCH  16  17
ENDBRANCH  15  16
ENDBRANCH  14  15
ENDBRANCH  13  14
ENDBRANCH  12  13
ENDBRANCH  11  12
ENDBRANCH  10  11
ENDBRANCH   9  10
ENDBRANCH   8   9
ENDBRANCH   7   8
ENDBRANCH   6   7
ENDBRANCH   5   6
ENDBRANCH   4   5
ENDBRANCH   3   4
TORSDOF 14
ENDMDL