MODEL 3
REMARK VINA RESULT: -5.766823395      1.324      3.332
REMARK  15 active torsions:
REMARK  status: ('A' for Active; 'I' for Inactive)
REMARK    1  A    between atoms: N1_1  and  C1_5
REMARK    2  A    between atoms: C1_5  and  C2_6
REMARK    3  A    between atoms: C2_6  and  C3_7
REMARK    4  A    between atoms: C3_7  and  C4_8
REMARK    5  A    between atoms: C4_8  and  C5_9
REMARK    6  A    between atoms: C5_9  and  C6_10
REMARK    7  A    between atoms: C6_10  and  C7_11
REMARK    8  A    between atoms: C7_11  and  C8_12
REMARK    9  A    between atoms: C8_12  and  C9_13
REMARK   10  A    between atoms: C9_13  and  C10_14
REMARK   11  A    between atoms: C10_14  and  C11_15
REMARK   12  A    between atoms: C11_15  and  C12_16
REMARK   13  A    between atoms: C12_16  and  C13_17
REMARK   14  A    between atoms: C13_17  and  C14_18
REMARK   15  A    between atoms: C14_18  and  C15_19
ROOT
HETATM    1  C9  UNL     1     -49.539  68.196 -10.240  1.00  0.00    -0.040 C
HETATM    2  C18 UNL     1     -48.602  68.657 -11.258  1.00  0.00     0.009 C
HETATM    3  C19 UNL     1     -49.331  68.443 -12.615  1.00  0.00     0.001 C
HETATM    4  C20 UNL     1     -50.133  67.208 -12.389  1.00  0.00     0.001 C
HETATM    5  C21 UNL     1     -50.495  67.225 -10.951  1.00  0.00     0.009 C
ENDROOT
BRANCH   1   6
HETATM    6  C8  UNL     1     -48.795  67.217  -9.279  1.00  0.00     0.009 C
BRANCH   6   7
HETATM    7  C7  UNL     1     -47.342  67.301  -9.281  1.00  0.00     0.001 C
BRANCH   7   8
HETATM    8  C6  UNL     1     -46.570  67.980  -8.241  1.00  0.00     0.000 C
BRANCH   8   9
HETATM    9  C5  UNL     1     -47.169  69.150  -7.551  1.00  0.00     0.000 C
BRANCH   9  10
HETATM   10  C4  UNL     1     -46.636  69.270  -6.101  1.00  0.00     0.000 C
BRANCH  10  11
HETATM   11  C3  UNL     1     -46.766  67.911  -5.477  1.00  0.00     0.002 C
BRANCH  11  12
HETATM   12  C2  UNL     1     -45.610  67.402  -4.706  1.00  0.00     0.027 C
BRANCH  12  13
HETATM   13  C1  UNL     1     -45.057  66.103  -5.176  1.00  0.00     0.229 C
BRANCH  13  14
HETATM   14  N1  UNL     1     -43.985  66.199  -6.123  1.00  0.00    -0.079 N
ATOM     15  H13 UNL     1     -44.221  65.685  -6.972  1.00  0.00     0.274 HD
ATOM     16  H12 UNL     1     -43.931  67.147  -6.496  1.00  0.00     0.274 HD
ATOM     17  H11 UNL     1     -43.071  65.904  -5.780  1.00  0.00     0.274 HD
ENDBRANCH  13  14
ENDBRANCH  12  13
ENDBRANCH  11  12
ENDBRANCH  10  11
ENDBRANCH   9  10
ENDBRANCH   8   9
ENDBRANCH   7   8
ENDBRANCH   6   7
ENDBRANCH   1   6
BRANCH   1  18
HETATM   18  C10 UNL     1     -50.310  69.147  -9.442  1.00  0.00     0.009 C
BRANCH  18  19
HETATM   19  C11 UNL     1     -50.153  70.595  -9.411  1.00  0.00     0.001 C
BRANCH  19  20
HETATM   20  C12 UNL     1     -51.328  71.494  -9.448  1.00  0.00     0.000 C
BRANCH  20  21
HETATM   21  C13 UNL     1     -51.778  72.028 -10.754  1.00  0.00     0.000 C
BRANCH  21  22
HETATM   22  C14 UNL     1     -51.748  71.211 -11.971  1.00  0.00     0.004 C
BRANCH  22  23
HETATM   23  C15 UNL     1     -52.973  70.504 -12.415  1.00  0.00    -0.014 A
HETATM   24  C16 UNL     1     -52.923  69.215 -13.138  1.00  0.00     0.005 A
HETATM   25  C17 UNL     1     -53.156  70.423 -13.948  1.00  0.00     0.005 A
ENDBRANCH  22  23
ENDBRANCH  21  22
ENDBRANCH  20  21
ENDBRANCH  19  20
ENDBRANCH  18  19
ENDBRANCH   1  18
TORSDOF 15
ENDMDL