MODEL 4
REMARK VINA RESULT: -6.054955348      3.047      7.829
REMARK  14 active torsions:
REMARK  status: ('A' for Active; 'I' for Inactive)
REMARK    1  A    between atoms: C3_3  and  C4_4
REMARK    2  A    between atoms: C4_4  and  C5_5
REMARK    3  A    between atoms: C5_5  and  C6_6
REMARK    4  A    between atoms: C6_6  and  C7_7
REMARK    5  A    between atoms: C7_7  and  C8_8
REMARK    6  A    between atoms: C8_8  and  C9_9
REMARK    7  A    between atoms: C9_9  and  C10_10
REMARK    8  A    between atoms: C10_10  and  C11_11
REMARK    9  A    between atoms: C11_11  and  C12_12
REMARK   10  A    between atoms: C12_12  and  C13_13
REMARK   11  A    between atoms: C13_13  and  C14_14
REMARK   12  A    between atoms: C14_14  and  C15_15
REMARK   13  A    between atoms: C15_15  and  C16_16
REMARK   14  A    between atoms: C16_16  and  C17_17
ROOT
HETATM    1  C1  UNL     1     -49.671  69.066  -9.911  1.00  0.00     0.012 C
HETATM    2  C2  UNL     1     -48.954  68.499  -9.144  1.00  0.00    -0.117 C
HETATM    3  C3  UNL     1     -48.082  67.824  -8.190  1.00  0.00     0.093 C
ENDROOT
BRANCH   3   4
HETATM    4  C4  UNL     1     -46.886  67.276  -8.994  1.00  0.00     0.012 C
BRANCH   4   5
HETATM    5  C5  UNL     1     -45.892  68.331  -9.256  1.00  0.00     0.001 C
BRANCH   5   6
HETATM    6  C6  UNL     1     -44.508  68.030  -8.886  1.00  0.00     0.000 C
BRANCH   6   7
HETATM    7  C7  UNL     1     -44.152  66.688  -8.464  1.00  0.00     0.000 C
BRANCH   7   8
HETATM    8  C8  UNL     1     -43.336  66.387  -7.278  1.00  0.00     0.000 C
BRANCH   8   9
HETATM    9  C9  UNL     1     -43.778  66.993  -5.984  1.00  0.00     0.000 C
BRANCH   9  10
HETATM   10  C10 UNL     1     -45.131  66.412  -5.613  1.00  0.00     0.000 C
BRANCH  10  11
HETATM   11  C11 UNL     1     -46.013  67.540  -5.136  1.00  0.00     0.000 C
BRANCH  11  12
HETATM   12  C12 UNL     1     -45.328  68.868  -5.186  1.00  0.00     0.000 C
BRANCH  12  13
HETATM   13  C13 UNL     1     -46.131  69.943  -5.842  1.00  0.00     0.000 C
BRANCH  13  14
HETATM   14  C14 UNL     1     -45.191  70.868  -6.578  1.00  0.00     0.000 C
BRANCH  14  15
HETATM   15  C15 UNL     1     -45.877  71.678  -7.639  1.00  0.00     0.002 C
BRANCH  15  16
HETATM   16  C16 UNL     1     -47.380  71.470  -7.562  1.00  0.00     0.033 C
BRANCH  16  17
HETATM   17  C17 UNL     1     -48.057  72.836  -7.422  1.00  0.00     0.185 C
HETATM   18  C18 UNL     1     -48.999  72.766  -6.268  1.00  0.00     0.033 C
HETATM   19  C19 UNL     1     -50.240  73.589  -6.609  1.00  0.00     0.004 C
HETATM   20  C20 UNL     1     -50.919  72.870  -7.762  1.00  0.00     0.027 C
HETATM   21  C21 UNL     1     -49.954  72.590  -8.878  1.00  0.00     0.232 C
HETATM   22  N1  UNL     1     -48.666  73.218  -8.665  1.00  0.00    -0.071 N
ATOM     23  H12 UNL     1     -48.738  74.233  -8.739  1.00  0.00     0.277 HD
ATOM     24  H11 UNL     1     -48.039  73.039  -9.450  1.00  0.00     0.277 HD
ENDBRANCH  16  17
ENDBRANCH  15  16
ENDBRANCH  14  15
ENDBRANCH  13  14
ENDBRANCH  12  13
ENDBRANCH  11  12
ENDBRANCH  10  11
ENDBRANCH   9  10
ENDBRANCH   8   9
ENDBRANCH   7   8
ENDBRANCH   6   7
ENDBRANCH   5   6
ENDBRANCH   4   5
ENDBRANCH   3   4
TORSDOF 14
ENDMDL