MODEL 4
REMARK VINA RESULT: -5.803922586      1.242      2.549
REMARK  14 active torsions:
REMARK  status: ('A' for Active; 'I' for Inactive)
REMARK    1  A    between atoms: C1_1  and  C2_2
REMARK    2  A    between atoms: C1_1  and  C13_13
REMARK    3  A    between atoms: C2_2  and  C3_3
REMARK    4  A    between atoms: C3_3  and  C4_4
REMARK    5  A    between atoms: C4_4  and  C5_5
REMARK    6  A    between atoms: C5_5  and  C6_6
REMARK    7  A    between atoms: C6_6  and  C7_7
REMARK    8  A    between atoms: C13_13  and  C14_14
REMARK    9  A    between atoms: C14_14  and  C15_15
REMARK   10  A    between atoms: C15_15  and  C16_16
REMARK   11  A    between atoms: C16_16  and  N1_17
REMARK   12  A    between atoms: N1_17  and  C17_20
REMARK   13  A    between atoms: C17_20  and  C18_21
REMARK   14  A    between atoms: C18_21  and  C19_22
ROOT
HETATM    1  C1  UNL     1     -50.326  67.743  -9.353  1.00  0.00     0.000 C
ENDROOT
BRANCH   1   2
HETATM    2  C2  UNL     1     -49.477  68.976  -9.112  1.00  0.00     0.000 C
BRANCH   2   3
HETATM    3  C3  UNL     1     -50.054  70.182  -9.832  1.00  0.00     0.000 C
BRANCH   3   4
HETATM    4  C4  UNL     1     -51.001  71.000  -9.053  1.00  0.00     0.000 C
BRANCH   4   5
HETATM    5  C5  UNL     1     -50.705  72.480  -8.972  1.00  0.00     0.000 C
BRANCH   5   6
HETATM    6  C6  UNL     1     -50.413  72.899  -7.562  1.00  0.00     0.004 C
BRANCH   6   7
HETATM    7  C7  UNL     1     -48.998  73.057  -7.177  1.00  0.00    -0.014 C
HETATM    8  C8  UNL     1     -47.972  73.027  -8.251  1.00  0.00     0.004 C
HETATM    9  C9  UNL     1     -46.619  73.351  -7.653  1.00  0.00     0.000 C
HETATM   10  C10 UNL     1     -46.519  73.166  -6.185  1.00  0.00     0.000 C
HETATM   11  C11 UNL     1     -47.298  71.977  -5.661  1.00  0.00     0.000 C
HETATM   12  C12 UNL     1     -48.681  71.899  -6.208  1.00  0.00     0.004 C
ENDBRANCH   6   7
ENDBRANCH   5   6
ENDBRANCH   4   5
ENDBRANCH   3   4
ENDBRANCH   2   3
ENDBRANCH   1   2
BRANCH   1  13
HETATM   13  C13 UNL     1     -49.514  66.581  -9.917  1.00  0.00     0.000 C
BRANCH  13  14
HETATM   14  C14 UNL     1     -48.262  67.085 -10.597  1.00  0.00     0.002 C
BRANCH  14  15
HETATM   15  C15 UNL     1     -48.398  66.811 -12.099  1.00  0.00     0.027 C
BRANCH  15  16
HETATM   16  C16 UNL     1     -48.672  68.145 -12.805  1.00  0.00     0.232 C
BRANCH  16  17
HETATM   17  N1  UNL     1     -49.777  68.057 -13.742  1.00  0.00    -0.075 N
ATOM     18  H12 UNL     1     -49.860  68.914 -14.290  1.00  0.00     0.277 HD
ATOM     19  H11 UNL     1     -49.567  67.400 -14.493  1.00  0.00     0.277 HD
BRANCH  17  20
HETATM   20  C17 UNL     1     -51.013  67.735 -13.115  1.00  0.00     0.232 C
BRANCH  20  21
HETATM   21  C18 UNL     1     -51.899  68.863 -12.727  1.00  0.00     0.032 C
BRANCH  21  22
HETATM   22  C19 UNL     1     -51.652  70.147 -13.417  1.00  0.00    -0.013 A
HETATM   23  C20 UNL     1     -51.983  71.432 -12.714  1.00  0.00     0.005 A
HETATM   24  C21 UNL     1     -52.751  71.039 -13.943  1.00  0.00     0.005 A
ENDBRANCH  21  22
ENDBRANCH  20  21
ENDBRANCH  17  20
ENDBRANCH  16  17
ENDBRANCH  15  16
ENDBRANCH  14  15
ENDBRANCH  13  14
ENDBRANCH   1  13
TORSDOF 14
ENDMDL