MODEL 4
REMARK VINA RESULT: -5.748418073      2.897      4.980
REMARK  14 active torsions:
REMARK  status: ('A' for Active; 'I' for Inactive)
REMARK    1  A    between atoms: C3_3  and  C4_4
REMARK    2  A    between atoms: C4_4  and  C5_5
REMARK    3  A    between atoms: C5_5  and  C6_6
REMARK    4  A    between atoms: C6_6  and  C7_7
REMARK    5  A    between atoms: C7_7  and  C8_8
REMARK    6  A    between atoms: C8_8  and  C9_9
REMARK    7  A    between atoms: C9_9  and  C10_10
REMARK    8  A    between atoms: C10_10  and  C11_11
REMARK    9  A    between atoms: C11_11  and  C12_12
REMARK   10  A    between atoms: C12_12  and  C13_13
REMARK   11  A    between atoms: C13_13  and  C14_14
REMARK   12  A    between atoms: C14_14  and  C15_15
REMARK   13  A    between atoms: C15_15  and  O1_16
REMARK   14  A    between atoms: O1_16  and  C16_17
ROOT
HETATM    1  C1  UNL     1     -51.405  71.758  -9.829  1.00  0.00     0.012 C
HETATM    2  C2  UNL     1     -51.067  72.263  -8.783  1.00  0.00    -0.117 C
HETATM    3  C3  UNL     1     -50.664  72.876  -7.506  1.00  0.00     0.093 C
ENDROOT
BRANCH   3   4
HETATM    4  C4  UNL     1     -49.184  72.797  -7.338  1.00  0.00     0.012 C
BRANCH   4   5
HETATM    5  C5  UNL     1     -48.783  72.083  -6.061  1.00  0.00     0.001 C
BRANCH   5   6
HETATM    6  C6  UNL     1     -47.278  71.896  -5.995  1.00  0.00     0.000 C
BRANCH   6   7
HETATM    7  C7  UNL     1     -46.979  70.829  -4.964  1.00  0.00     0.000 C
BRANCH   7   8
HETATM    8  C8  UNL     1     -46.103  69.746  -5.532  1.00  0.00     0.000 C
BRANCH   8   9
HETATM    9  C9  UNL     1     -46.703  68.379  -5.382  1.00  0.00     0.000 C
BRANCH   9  10
HETATM   10  C10 UNL     1     -45.655  67.500  -4.625  1.00  0.00     0.000 C
BRANCH  10  11
HETATM   11  C11 UNL     1     -45.221  66.496  -5.594  1.00  0.00     0.004 C
BRANCH  11  12
HETATM   12  C12 UNL     1     -43.847  66.428  -6.111  1.00  0.00     0.027 C
BRANCH  12  13
HETATM   13  C13 UNL     1     -43.146  67.617  -6.579  1.00  0.00    -0.025 C
BRANCH  13  14
HETATM   14  C14 UNL     1     -42.869  67.901  -7.984  1.00  0.00     0.020 C
BRANCH  14  15
HETATM   15  C15 UNL     1     -43.799  68.418  -8.968  1.00  0.00     0.135 C
BRANCH  15  16
HETATM   16  O1  UNL     1     -44.950  67.993  -9.407  1.00  0.00    -0.358 OA
BRANCH  16  17
HETATM   17  C16 UNL     1     -46.157  68.107  -8.856  1.00  0.00     0.127 C
HETATM   18  C17 UNL     1     -47.035  66.903  -8.959  1.00  0.00     0.032 C
HETATM   19  C18 UNL     1     -48.340  67.171  -9.663  1.00  0.00     0.002 C
HETATM   20  C19 UNL     1     -49.110  68.325  -9.116  1.00  0.00     0.000 C
HETATM   21  C20 UNL     1     -48.193  69.420  -8.638  1.00  0.00     0.002 C
HETATM   22  C21 UNL     1     -46.922  69.333  -9.455  1.00  0.00     0.032 C
ENDBRANCH  16  17
ENDBRANCH  15  16
ENDBRANCH  14  15
ENDBRANCH  13  14
ENDBRANCH  12  13
ENDBRANCH  11  12
ENDBRANCH  10  11
ENDBRANCH   9  10
ENDBRANCH   8   9
ENDBRANCH   7   8
ENDBRANCH   6   7
ENDBRANCH   5   6
ENDBRANCH   4   5
ENDBRANCH   3   4
TORSDOF 14
ENDMDL