MODEL 4
REMARK VINA RESULT: -5.976682614      1.242      3.101
REMARK  14 active torsions:
REMARK  status: ('A' for Active; 'I' for Inactive)
REMARK    1  A    between atoms: C4_4  and  C5_5
REMARK    2  A    between atoms: C5_5  and  N1_6
REMARK    3  A    between atoms: N1_6  and  C6_9
REMARK    4  A    between atoms: C6_9  and  C7_10
REMARK    5  A    between atoms: C7_10  and  C8_11
REMARK    6  A    between atoms: C8_11  and  C9_12
REMARK    7  A    between atoms: C9_12  and  C10_13
REMARK    8  A    between atoms: C10_13  and  C11_14
REMARK    9  A    between atoms: C11_14  and  C12_15
REMARK   10  A    between atoms: C12_15  and  C13_16
REMARK   11  A    between atoms: C13_16  and  C14_17
REMARK   12  A    between atoms: C14_17  and  C15_18
REMARK   13  A    between atoms: C15_18  and  C16_19
REMARK   14  A    between atoms: C16_19  and  C17_20
ROOT
HETATM    1  C7  UNL     1     -49.848  67.551  -9.347  1.00  0.00     0.027 C
ENDROOT
BRANCH   1   2
HETATM    2  C6  UNL     1     -49.073  67.007 -10.526  1.00  0.00     0.232 C
BRANCH   2   3
HETATM    3  N1  UNL     1     -49.955  66.551 -11.566  1.00  0.00    -0.075 N
ATOM      4  H12 UNL     1     -50.873  66.303 -11.198  1.00  0.00     0.277 HD
ATOM      5  H11 UNL     1     -49.677  65.635 -11.919  1.00  0.00     0.277 HD
BRANCH   3   6
HETATM    6  C5  UNL     1     -50.052  67.524 -12.628  1.00  0.00     0.237 C
BRANCH   6   7
HETATM    7  C4  UNL     1     -51.350  68.280 -12.590  1.00  0.00     0.015 C
HETATM    8  C3  UNL     1     -51.148  69.766 -12.300  1.00  0.00     0.033 C
HETATM    9  C2  UNL     1     -52.540  70.377 -12.283  1.00  0.00    -0.030 C
HETATM   10  C1  UNL     1     -53.296  70.121 -13.342  1.00  0.00    -0.031 C
HETATM   11  C21 UNL     1     -52.721  69.283 -14.413  1.00  0.00     0.027 C
HETATM   12  C20 UNL     1     -52.146  68.026 -13.820  1.00  0.00     0.010 C
ENDBRANCH   6   7
ENDBRANCH   3   6
ENDBRANCH   2   3
ENDBRANCH   1   2
BRANCH   1  13
HETATM   13  C8  UNL     1     -49.443  68.975  -9.068  1.00  0.00     0.002 C
BRANCH  13  14
HETATM   14  C9  UNL     1     -48.296  69.373  -9.927  1.00  0.00     0.000 C
BRANCH  14  15
HETATM   15  C10 UNL     1     -47.342  70.255  -9.188  1.00  0.00     0.000 C
BRANCH  15  16
HETATM   16  C11 UNL     1     -47.721  70.337  -7.752  1.00  0.00     0.000 C
BRANCH  16  17
HETATM   17  C12 UNL     1     -47.213  71.610  -7.119  1.00  0.00     0.000 C
BRANCH  17  18
HETATM   18  C13 UNL     1     -47.798  71.901  -5.786  1.00  0.00     0.000 C
BRANCH  18  19
HETATM   19  C14 UNL     1     -49.300  72.103  -5.810  1.00  0.00     0.000 C
BRANCH  19  20
HETATM   20  C15 UNL     1     -49.575  73.475  -6.340  1.00  0.00     0.000 C
BRANCH  20  21
HETATM   21  C16 UNL     1     -50.853  73.516  -7.189  1.00  0.00     0.004 C
BRANCH  21  22
HETATM   22  C17 UNL     1     -50.812  72.331  -8.101  1.00  0.00    -0.014 A
HETATM   23  C18 UNL     1     -51.962  72.292  -9.110  1.00  0.00     0.005 A
HETATM   24  C19 UNL     1     -50.538  72.407  -9.540  1.00  0.00     0.005 A
ENDBRANCH  21  22
ENDBRANCH  20  21
ENDBRANCH  19  20
ENDBRANCH  18  19
ENDBRANCH  17  18
ENDBRANCH  16  17
ENDBRANCH  15  16
ENDBRANCH  14  15
ENDBRANCH  13  14
ENDBRANCH   1  13
TORSDOF 14
ENDMDL