MODEL 4
REMARK VINA RESULT: -5.312369953      1.048      1.077
REMARK  6 active torsions:
REMARK  status: ('A' for Active; 'I' for Inactive)
REMARK    1  A    between atoms: C3_8  and  N3_9
REMARK    2  A    between atoms: N3_9  and  N4_11
REMARK    3  A    between atoms: N4_11  and  C4_13
REMARK    4  A    between atoms: C4_13  and  C5_14
REMARK    5  A    between atoms: C5_14  and  N5_15
REMARK    6  A    between atoms: C5_14  and  N6_19
ROOT
HETATM    1  N4  UNL     1      25.068  26.055  25.837  1.00  0.00    -0.331 N
ATOM      2  H4  UNL     1      25.751  25.757  25.141  1.00  0.00     0.180 HD
ENDROOT
BRANCH   1   3
HETATM    3  N3  UNL     1      23.817  26.518  25.423  1.00  0.00    -0.287 N
ATOM      4  H3  UNL     1      22.980  26.124  25.853  1.00  0.00     0.188 HD
BRANCH   3   5
HETATM    5  C3  UNL     1      23.684  27.420  24.520  1.00  0.00     0.166 A
HETATM    6  C2  UNL     1      23.914  28.766  24.710  1.00  0.00     0.077 A
HETATM    7  C1  UNL     1      24.355  29.442  25.978  1.00  0.00     0.074 C
HETATM    8  N1  UNL     1      23.655  29.333  23.515  1.00  0.00    -0.242 N
HETATM    9  O1  UNL     1      23.295  28.390  22.667  1.00  0.00    -0.155 OA
ATOM     10  H1  UNL     1      23.725  30.329  23.301  1.00  0.00     0.196 HD
HETATM   11  N2  UNL     1      23.304  27.239  23.240  1.00  0.00    -0.222 N
ATOM     12  H2  UNL     1      23.067  26.348  22.803  1.00  0.00     0.198 HD
ENDBRANCH   3   5
ENDBRANCH   1   3
BRANCH   1  13
HETATM   13  C4  UNL     1      25.407  25.991  27.243  1.00  0.00     0.201 C
BRANCH  13  14
HETATM   14  C5  UNL     1      24.130  26.076  28.085  1.00  0.00     0.396 C
BRANCH  14  15
HETATM   15  N5  UNL     1      24.078  27.357  28.765  1.00  0.00    -0.049 N
ATOM     16  H53 UNL     1      24.879  27.497  29.381  1.00  0.00     0.276 HD
ATOM     17  H52 UNL     1      24.244  28.136  28.129  1.00  0.00     0.276 HD
ATOM     18  H51 UNL     1      23.192  27.446  29.260  1.00  0.00     0.276 HD
ENDBRANCH  14  15
BRANCH  14  19
HETATM   19  N6  UNL     1      24.175  25.030  29.084  1.00  0.00    -0.049 N
ATOM     20  H63 UNL     1      24.708  25.299  29.910  1.00  0.00     0.276 HD
ATOM     21  H62 UNL     1      23.275  24.883  29.540  1.00  0.00     0.276 HD
ATOM     22  H61 UNL     1      24.534  24.183  28.644  1.00  0.00     0.276 HD
ENDBRANCH  14  19
ENDBRANCH  13  14
ENDBRANCH   1  13
TORSDOF 6
ENDMDL