MODEL 1
REMARK VINA RESULT: -5.519224905      0.000      0.000
REMARK  6 active torsions:
REMARK  status: ('A' for Active; 'I' for Inactive)
REMARK    1  A    between atoms: C2_3  and  N2_4
REMARK    2  A    between atoms: C2_3  and  C3_8
REMARK    3  A    between atoms: C3_8  and  N3_9
REMARK    4  A    between atoms: C5_11  and  C6_12
REMARK    5  A    between atoms: C6_12  and  N4_13
REMARK    6  A    between atoms: C6_12  and  N5_17
ROOT
HETATM    1  N1  UNL     1      22.242  27.576  23.259  1.00  0.00    -0.195 NA
HETATM    2  C1  UNL     1      23.359  27.683  23.505  1.00  0.00     0.094 C
HETATM    3  C2  UNL     1      24.770  27.840  23.826  1.00  0.00     0.308 C
ENDROOT
BRANCH   3   4
HETATM    4  N2  UNL     1      25.439  28.780  22.953  1.00  0.00    -0.061 N
ATOM      5  H23 UNL     1      26.432  28.842  23.175  1.00  0.00     0.276 HD
ATOM      6  H22 UNL     1      25.504  28.416  22.003  1.00  0.00     0.276 HD
ATOM      7  H21 UNL     1      25.003  29.703  22.962  1.00  0.00     0.276 HD
ENDBRANCH   3   4
BRANCH   3   8
HETATM    8  C3  UNL     1      25.446  26.492  23.697  1.00  0.00     0.197 C
BRANCH   8   9
HETATM    9  N3  UNL     1      25.291  25.696  24.890  1.00  0.00    -0.284 N
HETATM   10  C4  UNL     1      25.566  26.111  26.139  1.00  0.00     0.142 A
HETATM   11  C5  UNL     1      25.300  25.082  27.029  1.00  0.00     0.101 A
HETATM   12  N6  UNL     1      24.866  24.067  26.264  1.00  0.00    -0.285 N
HETATM   13  N7  UNL     1      24.868  24.451  24.992  1.00  0.00    -0.241 N
ATOM     14  H6  UNL     1      24.581  23.148  26.605  1.00  0.00     0.188 HD
ATOM     15  H7  UNL     1      24.582  23.866  24.207  1.00  0.00     0.208 HD
BRANCH  11  16
HETATM   16  C6  UNL     1      25.479  25.164  28.478  1.00  0.00     0.430 C
BRANCH  16  17
HETATM   17  N4  UNL     1      24.260  24.938  29.230  1.00  0.00    -0.045 N
ATOM     18  H43 UNL     1      23.632  25.737  29.147  1.00  0.00     0.277 HD
ATOM     19  H42 UNL     1      23.688  24.223  28.781  1.00  0.00     0.277 HD
ATOM     20  H41 UNL     1      24.421  24.707  30.211  1.00  0.00     0.277 HD
ENDBRANCH  16  17
BRANCH  16  21
HETATM   21  N5  UNL     1      26.542  24.269  28.953  1.00  0.00    -0.045 N
ATOM     22  H53 UNL     1      26.157  23.483  29.476  1.00  0.00     0.277 HD
ATOM     23  H52 UNL     1      26.967  23.756  28.180  1.00  0.00     0.277 HD
ATOM     24  H51 UNL     1      27.246  24.767  29.498  1.00  0.00     0.277 HD
ENDBRANCH  16  21
ENDBRANCH  11  16
ENDBRANCH   8   9
ENDBRANCH   3   8
TORSDOF 6
ENDMDL