MODEL 5
REMARK VINA RESULT: -4.531847969      2.051      2.732
REMARK  7 active torsions:
REMARK  status: ('A' for Active; 'I' for Inactive)
REMARK    1  A    between atoms: N1_2  and  S1_4
REMARK    2  A    between atoms: S1_4  and  N2_5
REMARK    3  A    between atoms: S1_4  and  C3_8
REMARK    4  A    between atoms: C3_8  and  N3_9
REMARK    5  A    between atoms: C3_8  and  N5_13
REMARK    6  A    between atoms: N3_9  and  N4_10
REMARK    7  A    between atoms: N5_13  and  O1_14
ROOT
HETATM    1  C3  UNL     1      23.537  27.830  24.774  1.00  0.00     0.303 C
ENDROOT
BRANCH   1   2
HETATM    2  S1  UNL     1      25.101  28.006  23.977  1.00  0.00    -0.019 SA
BRANCH   2   3
HETATM    3  N1  UNL     1      26.216  26.781  24.396  1.00  0.00    -0.258 NA
HETATM    4  C1  UNL     1      27.580  27.104  24.050  1.00  0.00     0.124 C
HETATM    5  C2  UNL     1      26.183  26.633  25.853  1.00  0.00     0.124 C
ENDBRANCH   2   3
BRANCH   2   6
HETATM    6  N2  UNL     1      24.823  28.027  22.267  1.00  0.00    -0.369 NA
ATOM      7  H22 UNL     1      23.838  28.238  22.115  1.00  0.00     0.164 HD
ATOM      8  H21 UNL     1      25.119  27.148  21.841  1.00  0.00     0.164 HD
ENDBRANCH   2   6
ENDBRANCH   1   2
BRANCH   1   9
HETATM    9  N3  UNL     1      22.734  29.030  24.685  1.00  0.00    -0.111 NA
BRANCH   9  10
HETATM   10  N4  UNL     1      23.437  30.020  24.032  1.00  0.00    -0.346 N
ATOM     11  H42 UNL     1      23.164  31.002  24.014  1.00  0.00     0.172 HD
ATOM     12  H41 UNL     1      24.259  29.620  23.578  1.00  0.00     0.172 HD
ENDBRANCH   9  10
ENDBRANCH   1   9
BRANCH   1  13
HETATM   13  N5  UNL     1      22.814  26.767  24.100  1.00  0.00    -0.067 NA
BRANCH  13  14
HETATM   14  O1  UNL     1      21.993  27.327  23.188  1.00  0.00    -0.294 OA
ATOM     15  H1  UNL     1      21.311  26.699  22.978  1.00  0.00     0.238 HD
ENDBRANCH  13  14
ENDBRANCH   1  13
TORSDOF 7
ENDMDL