MODEL 4
REMARK VINA RESULT: -5.362855003      1.171      1.676
REMARK  6 active torsions:
REMARK  status: ('A' for Active; 'I' for Inactive)
REMARK    1  A    between atoms: C2_3  and  N2_4
REMARK    2  A    between atoms: C2_3  and  C3_8
REMARK    3  A    between atoms: C3_8  and  N3_9
REMARK    4  A    between atoms: C3_8  and  C4_13
REMARK    5  A    between atoms: C4_13  and  N4_14
REMARK    6  A    between atoms: C6_18  and  N6_19
ROOT
HETATM    1  N1  UNL     1      23.018  29.092  24.887  1.00  0.00    -0.195 NA
HETATM    2  C1  UNL     1      23.307  28.164  24.279  1.00  0.00     0.094 C
HETATM    3  C2  UNL     1      23.687  26.965  23.513  1.00  0.00     0.321 C
ENDROOT
BRANCH   3   4
HETATM    4  N2  UNL     1      22.552  26.084  23.336  1.00  0.00    -0.060 N
ATOM      5  H23 UNL     1      22.680  25.460  22.539  1.00  0.00     0.276 HD
ATOM      6  H22 UNL     1      22.501  25.382  24.075  1.00  0.00     0.276 HD
ATOM      7  H21 UNL     1      21.686  26.618  23.262  1.00  0.00     0.276 HD
ENDBRANCH   3   4
BRANCH   3   8
HETATM    8  C3  UNL     1      24.743  26.185  24.247  1.00  0.00     0.247 C
BRANCH   8   9
HETATM    9  N3  UNL     1      25.471  25.290  23.370  1.00  0.00    -0.070 N
ATOM     10  H33 UNL     1      26.169  25.794  22.824  1.00  0.00     0.274 HD
ATOM     11  H32 UNL     1      26.093  24.678  23.901  1.00  0.00     0.274 HD
ATOM     12  H31 UNL     1      24.850  24.752  22.767  1.00  0.00     0.274 HD
ENDBRANCH   8   9
BRANCH   8  13
HETATM   13  C4  UNL     1      24.105  25.355  25.320  1.00  0.00     0.186 C
BRANCH  13  14
HETATM   14  N4  UNL     1      24.802  25.403  26.580  1.00  0.00    -0.271 N
HETATM   15  C5  UNL     1      24.709  26.323  27.550  1.00  0.00     0.218 A
HETATM   16  N5  UNL     1      25.538  25.970  28.551  1.00  0.00    -0.185 N
HETATM   17  C6  UNL     1      26.157  24.826  28.216  1.00  0.00     0.691 A
ATOM     18  H5  UNL     1      25.674  26.486  29.420  1.00  0.00     0.185 HD
HETATM   19  N7  UNL     1      25.684  24.503  27.001  1.00  0.00    -0.129 N
ATOM     20  H7  UNL     1      25.964  23.676  26.472  1.00  0.00     0.206 HD
BRANCH  17  21
HETATM   21  N6  UNL     1      27.039  24.154  28.918  1.00  0.00    -0.233 N
ATOM     22  H62 UNL     1      26.918  23.224  29.322  1.00  0.00     0.174 HD
ATOM     23  H61 UNL     1      27.982  24.443  29.177  1.00  0.00     0.174 HD
ENDBRANCH  17  21
ENDBRANCH  13  14
ENDBRANCH   8  13
ENDBRANCH   3   8
TORSDOF 6
ENDMDL