MODEL 1
REMARK VINA RESULT: -5.856794013      0.000      0.000
REMARK  4 active torsions:
REMARK  status: ('A' for Active; 'I' for Inactive)
REMARK    1  A    between atoms: N1_1  and  C1_5
REMARK    2  A    between atoms: C3_7  and  N2_8
REMARK    3  A    between atoms: N2_8  and  N3_9
REMARK    4  A    between atoms: N3_9  and  C4_11
ROOT
HETATM    1  N3  UNL     1      24.828  25.242  23.885  1.00  0.00    -0.134 N
ATOM      2  H3  UNL     1      25.594  25.007  23.256  1.00  0.00     0.201 HD
ENDROOT
BRANCH   1   3
HETATM    3  N2  UNL     1      24.691  24.515  25.073  1.00  0.00    -0.119 NA
BRANCH   3   4
HETATM    4  C3  UNL     1      24.533  25.436  26.177  1.00  0.00     0.132 A
HETATM    5  C1  UNL     1      25.129  24.918  27.491  1.00  0.00     0.206 A
HETATM    6  C2  UNL     1      25.693  26.088  26.810  1.00  0.00     0.059 A
BRANCH   5   7
HETATM    7  N1  UNL     1      24.211  25.034  28.602  1.00  0.00    -0.073 N
ATOM      8  H13 UNL     1      24.102  26.027  28.810  1.00  0.00     0.274 HD
ATOM      9  H12 UNL     1      23.283  24.783  28.263  1.00  0.00     0.274 HD
ATOM     10  H11 UNL     1      24.358  24.549  29.487  1.00  0.00     0.274 HD
ENDBRANCH   5   7
ENDBRANCH   3   4
ENDBRANCH   1   3
BRANCH   1  11
HETATM   11  C4  UNL     1      23.947  26.288  23.520  1.00  0.00     0.719 A
HETATM   12  N4  UNL     1      24.290  27.535  23.160  1.00  0.00    -0.116 N
HETATM   13  N5  UNL     1      23.204  28.242  22.887  1.00  0.00     0.006 NA
ATOM     14  H4  UNL     1      25.246  27.887  23.103  1.00  0.00     0.202 HD
HETATM   15  N6  UNL     1      22.159  27.451  23.071  1.00  0.00     0.006 NA
HETATM   16  N7  UNL     1      22.603  26.260  23.457  1.00  0.00    -0.116 N
ATOM     17  H7  UNL     1      22.018  25.453  23.673  1.00  0.00     0.202 HD
ENDBRANCH   1  11
TORSDOF 4
ENDMDL