MODEL 3
REMARK VINA RESULT: -5.611826744      1.210      1.420
REMARK  6 active torsions:
REMARK  status: ('A' for Active; 'I' for Inactive)
REMARK    1  A    between atoms: N1_1  and  C1_4
REMARK    2  A    between atoms: C2_9  and  O1_10
REMARK    3  A    between atoms: O1_10  and  N4_11
REMARK    4  A    between atoms: N5_13  and  O2_14
REMARK    5  A    between atoms: N5_13  and  N6_16
REMARK    6  A    between atoms: N6_16  and  N7_18
ROOT
HETATM    1  C1  UNL     1      24.349  25.718  28.017  1.00  0.00     0.693 A
HETATM    2  N2  UNL     1      25.381  24.975  28.452  1.00  0.00    -0.129 N
ATOM      3  H2  UNL     1      25.797  25.013  29.382  1.00  0.00     0.205 HD
HETATM    4  N3  UNL     1      25.766  24.175  27.447  1.00  0.00    -0.249 N
ATOM      5  H3  UNL     1      26.530  23.500  27.491  1.00  0.00     0.191 HD
HETATM    6  C2  UNL     1      24.984  24.402  26.363  1.00  0.00     0.278 A
HETATM    7  N8  UNL     1      24.126  25.349  26.741  1.00  0.00    -0.151 N
ATOM      8  H8  UNL     1      23.398  25.742  26.145  1.00  0.00     0.188 HD
ENDROOT
BRANCH   6   9
HETATM    9  O1  UNL     1      25.069  23.766  25.115  1.00  0.00    -0.180 OA
BRANCH   9  10
HETATM   10  N4  UNL     1      25.626  24.517  24.111  1.00  0.00    -0.155 N
HETATM   11  N5  UNL     1      25.022  25.334  23.378  1.00  0.00    -0.060 N
ATOM     12  H4  UNL     1      26.625  24.399  23.945  1.00  0.00     0.221 HD
BRANCH  11  13
HETATM   13  O2  UNL     1      23.687  25.543  23.544  1.00  0.00    -0.251 OA
ATOM     14  H2  UNL     1      23.368  26.398  23.806  1.00  0.00     0.248 HD
ENDBRANCH  11  13
BRANCH  11  15
HETATM   15  N6  UNL     1      25.713  26.027  22.401  1.00  0.00    -0.205 N
ATOM     16  H6  UNL     1      25.232  26.473  21.619  1.00  0.00     0.212 HD
BRANCH  15  17
HETATM   17  N7  UNL     1      27.115  26.088  22.537  1.00  0.00    -0.328 N
ATOM     18  H72 UNL     1      27.587  25.586  23.290  1.00  0.00     0.178 HD
ATOM     19  H71 UNL     1      27.618  26.651  21.852  1.00  0.00     0.178 HD
ENDBRANCH  15  17
ENDBRANCH  11  15
ENDBRANCH   9  10
ENDBRANCH   6   9
BRANCH   1  20
HETATM   20  N1  UNL     1      23.725  26.600  28.715  1.00  0.00    -0.233 N
ATOM     21  H12 UNL     1      22.993  26.457  29.411  1.00  0.00     0.174 HD
ATOM     22  H11 UNL     1      23.883  27.606  28.666  1.00  0.00     0.174 HD
ENDBRANCH   1  20
TORSDOF 6
ENDMDL