MODEL 3
REMARK VINA RESULT: -5.571328050      3.114      4.061
REMARK  5 active torsions:
REMARK  status: ('A' for Active; 'I' for Inactive)
REMARK    1  A    between atoms: O1_2  and  C2_3
REMARK    2  A    between atoms: C4_5  and  O2_6
REMARK    3  A    between atoms: O2_6  and  N1_7
REMARK    4  A    between atoms: N1_7  and  N2_8
REMARK    5  A    between atoms: C5_13  and  N4_14
ROOT
HETATM    1  C2  UNL     1      24.340  29.349  26.281  1.00  0.00     0.161 A
HETATM    2  C3  UNL     1      23.685  28.617  25.330  1.00  0.00     0.115 A
HETATM    3  C4  UNL     1      23.824  28.993  24.009  1.00  0.00     0.186 A
HETATM    4  N3  UNL     1      24.600  30.062  23.756  1.00  0.00    -0.169 N
ATOM      5  H3  UNL     1      24.714  30.355  22.785  1.00  0.00     0.186 HD
HETATM    6  C5  UNL     1      25.236  30.768  24.709  1.00  0.00     0.679 A
HETATM    7  N5  UNL     1      25.115  30.422  26.005  1.00  0.00    -0.171 N
ATOM      8  H5  UNL     1      25.587  30.943  26.744  1.00  0.00     0.186 HD
ENDROOT
BRANCH   3   9
HETATM    9  O2  UNL     1      23.202  28.318  22.963  1.00  0.00    -0.205 OA
BRANCH   9  10
HETATM   10  N1  UNL     1      22.162  27.480  23.103  1.00  0.00     0.021 NA
BRANCH  10  11
HETATM   11  N2  UNL     1      22.613  26.150  23.310  1.00  0.00    -0.322 N
ATOM     12  H22 UNL     1      23.040  25.823  24.176  1.00  0.00     0.174 HD
ATOM     13  H21 UNL     1      22.451  25.582  22.478  1.00  0.00     0.174 HD
ENDBRANCH  10  11
ENDBRANCH   9  10
ENDBRANCH   3   9
BRANCH   1  14
HETATM   14  O1  UNL     1      24.225  29.004  27.617  1.00  0.00    -0.340 OA
HETATM   15  C1  UNL     1      24.305  27.669  28.027  1.00  0.00     0.211 C
ENDBRANCH   1  14
BRANCH   6  16
HETATM   16  N4  UNL     1      25.979  31.795  24.452  1.00  0.00    -0.234 N
ATOM     17  H42 UNL     1      26.984  31.630  24.405  1.00  0.00     0.174 HD
ATOM     18  H41 UNL     1      25.604  32.732  24.302  1.00  0.00     0.174 HD
ENDBRANCH   6  16
TORSDOF 5
ENDMDL