MODEL 4
REMARK VINA RESULT: -5.222058945      1.621      1.995
REMARK  5 active torsions:
REMARK  status: ('A' for Active; 'I' for Inactive)
REMARK    1  A    between atoms: C3_7  and  N3_8
REMARK    2  A    between atoms: N4_11  and  C4_12
REMARK    3  A    between atoms: C4_12  and  N5_13
REMARK    4  A    between atoms: C4_12  and  C5_17
REMARK    5  A    between atoms: C5_17  and  N6_18
ROOT
HETATM    1  N6  UNL     1      24.939  26.798  26.683  1.00  0.00    -0.325 N
ATOM      2  H6  UNL     1      25.862  26.504  27.004  1.00  0.00     0.171 HD
HETATM    3  C6  UNL     1      24.465  28.105  26.953  1.00  0.00     0.177 C
HETATM    4  N7  UNL     1      24.089  29.176  27.176  1.00  0.00    -0.172 NA
ENDROOT
BRANCH   1   5
HETATM    5  C5  UNL     1      24.074  25.870  25.930  1.00  0.00     0.186 C
BRANCH   5   6
HETATM    6  C4  UNL     1      23.939  26.440  24.577  1.00  0.00     0.324 C
BRANCH   6   7
HETATM    7  N4  UNL     1      25.132  26.445  23.799  1.00  0.00    -0.139 N
HETATM    8  C2  UNL     1      25.692  27.555  23.214  1.00  0.00     0.113 A
HETATM    9  C1  UNL     1      25.103  28.904  23.323  1.00  0.00     0.091 C
HETATM   10  N1  UNL     1      26.798  27.157  22.575  1.00  0.00    -0.274 N
HETATM   11  N2  UNL     1      26.964  25.869  22.723  1.00  0.00    -0.131 N
ATOM     12  H1  UNL     1      27.421  27.769  22.048  1.00  0.00     0.189 HD
HETATM   13  C3  UNL     1      25.930  25.414  23.487  1.00  0.00     0.696 A
ATOM     14  H2  UNL     1      27.724  25.309  22.339  1.00  0.00     0.205 HD
BRANCH  13  15
HETATM   15  N3  UNL     1      25.847  24.175  23.792  1.00  0.00    -0.233 N
ATOM     16  H32 UNL     1      26.034  23.693  24.671  1.00  0.00     0.174 HD
ATOM     17  H31 UNL     1      25.553  23.490  23.095  1.00  0.00     0.174 HD
ENDBRANCH  13  15
ENDBRANCH   6   7
BRANCH   6  18
HETATM   18  N5  UNL     1      22.789  25.911  23.882  1.00  0.00    -0.056 N
ATOM     19  H53 UNL     1      22.887  26.040  22.876  1.00  0.00     0.276 HD
ATOM     20  H52 UNL     1      22.782  24.893  23.925  1.00  0.00     0.276 HD
ATOM     21  H51 UNL     1      21.899  26.289  24.206  1.00  0.00     0.276 HD
ENDBRANCH   6  18
ENDBRANCH   5   6
ENDBRANCH   1   5
TORSDOF 5
ENDMDL