MODEL 4
REMARK VINA RESULT: -6.958742349      1.827      2.396
REMARK  15 active torsions:
REMARK  status: ('A' for Active; 'I' for Inactive)
REMARK    1  A    between atoms: C4_6  and  O1_7
REMARK    2  A    between atoms: C5_9  and  C6_10
REMARK    3  A    between atoms: N4_15  and  C7_16
REMARK    4  A    between atoms: C7_16  and  C8_17
REMARK    5  A    between atoms: C8_17  and  N5_18
REMARK    6  A    between atoms: C8_17  and  C9_22
REMARK    7  A    between atoms: C9_22  and  N6_23
REMARK    8  A    between atoms: C11_28  and  C12_29
REMARK    9  A    between atoms: C12_29  and  N9_30
REMARK   10  A    between atoms: C12_29  and  O2_34
REMARK   11  A    between atoms: C13_36  and  C14_37
REMARK   12  A    between atoms: C14_37  and  O3_38
REMARK   13  A    between atoms: C16_44  and  C17_45
REMARK   14  A    between atoms: C17_45  and  O4_49
REMARK   15  A    between atoms: C18_52  and  O5_53
ROOT
HETATM    1  C6  UNL     1      38.502  -3.589  22.689  1.00  0.00     0.152 A
HETATM    2  N2  UNL     1      38.935  -4.645  23.412  1.00  0.00    -0.268 N
ATOM      3  H2  UNL     1      39.241  -4.622  24.385  1.00  0.00     0.190 HD
HETATM    4  N3  UNL     1      38.891  -5.678  22.660  1.00  0.00    -0.224 N
ATOM      5  H3  UNL     1      39.156  -6.619  22.952  1.00  0.00     0.210 HD
HETATM    6  N4  UNL     1      38.458  -5.362  21.460  1.00  0.00    -0.216 N
HETATM    7  N10 UNL     1      38.198  -4.083  21.456  1.00  0.00    -0.266 N
ATOM      8  H10 UNL     1      37.831  -3.548  20.668  1.00  0.00     0.190 HD
ENDROOT
BRANCH   6   9
HETATM    9  C7  UNL     1      38.420  -6.376  20.422  1.00  0.00     0.209 C
BRANCH   9  10
HETATM   10  C8  UNL     1      37.387  -5.987  19.306  1.00  0.00     0.243 C
BRANCH  10  11
HETATM   11  N5  UNL     1      36.718  -7.344  19.156  1.00  0.00    -0.069 N
ATOM     12  H53 UNL     1      37.193  -8.139  19.584  1.00  0.00     0.275 HD
ATOM     13  H52 UNL     1      35.857  -7.491  19.683  1.00  0.00     0.275 HD
ATOM     14  H51 UNL     1      36.640  -7.351  18.139  1.00  0.00     0.275 HD
ENDBRANCH  10  11
BRANCH  10  15
HETATM   15  C9  UNL     1      38.183  -5.872  18.073  1.00  0.00     0.107 C
BRANCH  15  16
HETATM   16  N6  UNL     1      38.490  -4.673  17.377  1.00  0.00    -0.298 N
HETATM   17  C10 UNL     1      37.642  -4.286  16.300  1.00  0.00     0.199 A
HETATM   18  N7  UNL     1      36.636  -4.997  15.674  1.00  0.00    -0.063 NA
HETATM   19  N8  UNL     1      38.019  -3.042  15.937  1.00  0.00    -0.328 N
HETATM   20  C11 UNL     1      39.032  -2.605  16.672  1.00  0.00     0.093 A
ATOM     21  H8  UNL     1      37.580  -2.505  15.189  1.00  0.00     0.168 HD
HETATM   22  C13 UNL     1      39.312  -3.661  17.564  1.00  0.00     0.069 A
BRANCH  20  23
HETATM   23  C12 UNL     1      39.811  -1.334  16.635  1.00  0.00     0.369 C
BRANCH  23  24
HETATM   24  N9  UNL     1      38.920  -0.352  15.987  1.00  0.00    -0.047 N
ATOM     25  H93 UNL     1      39.408   0.311  15.383  1.00  0.00     0.277 HD
ATOM     26  H92 UNL     1      38.322  -0.752  15.264  1.00  0.00     0.277 HD
ATOM     27  H91 UNL     1      38.405   0.089  16.750  1.00  0.00     0.277 HD
ENDBRANCH  23  24
BRANCH  23  28
HETATM   28  O2  UNL     1      40.928  -1.474  15.806  1.00  0.00    -0.365 OA
ATOM     29  H2  UNL     1      41.255  -2.365  15.841  1.00  0.00     0.212 HD
ENDBRANCH  23  28
ENDBRANCH  20  23
BRANCH  22  30
HETATM   30  C14 UNL     1      40.381  -3.520  18.580  1.00  0.00     0.224 C
BRANCH  30  31
HETATM   31  O3  UNL     1      39.952  -2.756  19.672  1.00  0.00    -0.395 OA
ATOM     32  H3  UNL     1      39.128  -3.079  20.020  1.00  0.00     0.209 HD
ENDBRANCH  30  31
ENDBRANCH  22  30
ENDBRANCH  15  16
ENDBRANCH  10  15
ENDBRANCH   9  10
ENDBRANCH   6   9
BRANCH   1  33
HETATM   33  C5  UNL     1      38.444  -2.201  23.166  1.00  0.00     0.074 A
HETATM   34  C4  UNL     1      37.249  -1.492  23.196  1.00  0.00     0.126 A
HETATM   35  C3  UNL     1      37.236  -0.211  23.664  1.00  0.00     0.149 A
HETATM   36  N1  UNL     1      36.329   0.738  23.881  1.00  0.00    -0.340 N
HETATM   37  N13 UNL     1      38.391   0.405  24.120  1.00  0.00    -0.268 N
HETATM   38  C2  UNL     1      36.701   1.811  24.388  1.00  0.00     0.059 A
ATOM     39  H1  UNL     1      35.350   0.589  23.637  1.00  0.00     0.167 HD
HETATM   40  C1  UNL     1      35.972   3.079  24.779  1.00  0.00     0.072 C
HETATM   41  C18 UNL     1      38.102   1.659  24.581  1.00  0.00     0.171 A
HETATM   42  C16 UNL     1      39.582  -0.268  24.096  1.00  0.00     0.118 A
HETATM   43  C15 UNL     1      39.563  -1.591  23.608  1.00  0.00     0.095 A
HETATM   44  N11 UNL     1      40.766  -2.394  23.683  1.00  0.00    -0.099 NA
BRANCH  34  45
HETATM   45  O1  UNL     1      36.103  -2.074  22.754  1.00  0.00    -0.356 OA
ATOM     46  H1  UNL     1      35.511  -1.597  22.184  1.00  0.00     0.218 HD
ENDBRANCH  34  45
BRANCH  41  47
HETATM   47  O5  UNL     1      38.939   2.596  25.137  1.00  0.00    -0.344 OA
ATOM     48  H5  UNL     1      39.595   3.098  24.668  1.00  0.00     0.219 HD
ENDBRANCH  41  47
BRANCH  42  49
HETATM   49  C17 UNL     1      40.732   0.464  24.376  1.00  0.00     0.163 C
HETATM   50  N12 UNL     1      41.733   1.169  24.946  1.00  0.00    -0.378 N
ATOM     51 2H12 UNL     1      41.329   1.109  25.881  1.00  0.00     0.158 HD
ATOM     52 1H12 UNL     1      42.576   1.706  25.151  1.00  0.00     0.158 HD
BRANCH  49  53
HETATM   53  O4  UNL     1      41.343   0.555  22.960  1.00  0.00    -0.345 OA
ATOM     54  H4  UNL     1      41.094   1.442  22.729  1.00  0.00     0.219 HD
ENDBRANCH  49  53
ENDBRANCH  42  49
ENDBRANCH   1  33
TORSDOF 15
ENDMDL