MODEL 4
REMARK VINA RESULT: -7.263953311      2.411      5.146
REMARK  14 active torsions:
REMARK  status: ('A' for Active; 'I' for Inactive)
REMARK    1  A    between atoms: N1_1  and  C1_4
REMARK    2  A    between atoms: C3_9  and  N4_10
REMARK    3  A    between atoms: C5_12  and  C6_13
REMARK       I    between atoms: C6_13  and  N5_15
REMARK    4  A    between atoms: N5_15  and  C7_17
REMARK    5  A    between atoms: C7_17  and  O2_18
REMARK    6  A    between atoms: C7_17  and  C8_20
REMARK    7  A    between atoms: C8_20  and  N6_21
REMARK    8  A    between atoms: C10_23  and  C11_24
REMARK    9  A    between atoms: C11_24  and  O3_25
REMARK   10  A    between atoms: C11_24  and  C12_27
REMARK   11  A    between atoms: C13_30  and  N8_31
REMARK   12  A    between atoms: N8_31  and  C14_33
REMARK   13  A    between atoms: C14_33  and  O4_34
REMARK   14  A    between atoms: N9_36  and  O5_38
ROOT
HETATM    1  C7  UNL     1      38.543  -5.523  22.968  1.00  0.00     0.240 C
ENDROOT
BRANCH   1   2
HETATM    2  N5  UNL     1      38.579  -4.094  23.001  1.00  0.00    -0.328 N
HETATM    3  C6  UNL     1      37.431  -3.283  23.236  1.00  0.00     0.273 C
HETATM    4  O1  UNL     1      36.335  -3.845  23.421  1.00  0.00    -0.266 OA
ATOM      5  H5  UNL     1      39.475  -3.630  22.848  1.00  0.00     0.165 HD
BRANCH   3   6
HETATM    6  C5  UNL     1      37.513  -1.829  23.263  1.00  0.00     0.134 A
HETATM    7  C4  UNL     1      38.572  -1.079  23.728  1.00  0.00     0.155 A
HETATM    8  N4  UNL     1      38.270   0.246  23.584  1.00  0.00    -0.244 N
HETATM    9  N14 UNL     1      37.067   0.283  23.048  1.00  0.00    -0.235 N
HETATM   10  N13 UNL     1      36.595  -0.938  22.848  1.00  0.00    -0.279 N
ATOM     11  H14 UNL     1      36.565   1.140  22.817  1.00  0.00     0.209 HD
ATOM     12  H13 UNL     1      35.686  -1.166  22.445  1.00  0.00     0.189 HD
BRANCH   8  13
HETATM   13  C3  UNL     1      39.087   1.351  23.934  1.00  0.00     0.142 A
HETATM   14  C2  UNL     1      38.696   2.132  25.018  1.00  0.00     0.164 A
HETATM   15  N2  UNL     1      39.409   3.192  25.413  1.00  0.00    -0.177 N
HETATM   16  N3  UNL     1      37.505   1.795  25.724  1.00  0.00    -0.080 NA
HETATM   17  C1  UNL     1      40.552   3.545  24.764  1.00  0.00     0.678 A
ATOM     18  H2  UNL     1      39.093   3.742  26.211  1.00  0.00     0.185 HD
HETATM   19  N16 UNL     1      40.945   2.803  23.713  1.00  0.00    -0.175 N
HETATM   20  C15 UNL     1      40.230   1.715  23.295  1.00  0.00     0.147 A
ATOM     21  H16 UNL     1      41.798   3.057  23.216  1.00  0.00     0.186 HD
HETATM   22  N15 UNL     1      40.649   1.045  22.287  1.00  0.00    -0.383 N
ATOM     23 2H15 UNL     1      40.115   0.234  21.975  1.00  0.00     0.157 HD
ATOM     24 1H15 UNL     1      41.507   1.318  21.808  1.00  0.00     0.157 HD
BRANCH  17  25
HETATM   25  N1  UNL     1      41.231   4.578  25.163  1.00  0.00    -0.234 N
ATOM     26  H12 UNL     1      40.992   5.079  26.019  1.00  0.00     0.174 HD
ATOM     27  H11 UNL     1      42.025   4.907  24.615  1.00  0.00     0.174 HD
ENDBRANCH  17  25
ENDBRANCH   8  13
ENDBRANCH   3   6
ENDBRANCH   1   2
BRANCH   1  28
HETATM   28  O2  UNL     1      39.153  -6.022  24.116  1.00  0.00    -0.375 OA
ATOM     29  H2  UNL     1      39.386  -6.932  23.975  1.00  0.00     0.212 HD
ENDBRANCH   1  28
BRANCH   1  30
HETATM   30  C8  UNL     1      39.397  -6.012  21.789  1.00  0.00     0.203 C
BRANCH  30  31
HETATM   31  N6  UNL     1      38.555  -6.469  20.692  1.00  0.00    -0.283 N
HETATM   32  C9  UNL     1      38.976  -6.811  19.465  1.00  0.00     0.141 A
HETATM   33  C10 UNL     1      37.900  -7.183  18.721  1.00  0.00     0.081 A
HETATM   34  N11 UNL     1      36.819  -7.051  19.544  1.00  0.00    -0.286 N
HETATM   35  N12 UNL     1      37.250  -6.629  20.693  1.00  0.00    -0.240 N
ATOM     36  H11 UNL     1      35.849  -7.249  19.300  1.00  0.00     0.188 HD
ATOM     37  H12 UNL     1      36.651  -6.445  21.497  1.00  0.00     0.208 HD
BRANCH  33  38
HETATM   38  C11 UNL     1      37.817  -7.653  17.318  1.00  0.00     0.248 C
BRANCH  38  39
HETATM   39  O3  UNL     1      38.930  -8.526  17.139  1.00  0.00    -0.381 OA
ATOM     40  H3  UNL     1      39.047  -8.602  16.199  1.00  0.00     0.211 HD
ENDBRANCH  38  39
BRANCH  38  41
HETATM   41  C12 UNL     1      37.937  -6.537  16.349  1.00  0.00     0.197 A
HETATM   42  N7  UNL     1      37.716  -5.210  16.641  1.00  0.00    -0.167 N
HETATM   43  C13 UNL     1      37.905  -4.456  15.558  1.00  0.00     0.707 A
ATOM     44  H7  UNL     1      37.445  -4.854  17.559  1.00  0.00     0.186 HD
HETATM   45  N10 UNL     1      38.249  -5.332  14.580  1.00  0.00    -0.089 N
HETATM   46  O6  UNL     1      38.253  -6.528  15.089  1.00  0.00    -0.206 OA
ATOM     47  H10 UNL     1      38.466  -5.093  13.612  1.00  0.00     0.213 HD
BRANCH  43  48
HETATM   48  N8  UNL     1      37.789  -3.047  15.401  1.00  0.00    -0.151 N
ATOM     49  H8  UNL     1      38.316  -2.432  16.022  1.00  0.00     0.188 HD
BRANCH  48  50
HETATM   50  C14 UNL     1      36.960  -2.476  14.405  1.00  0.00     0.255 C
HETATM   51  N9  UNL     1      36.794  -1.215  14.346  1.00  0.00    -0.232 N
ATOM     52  H9  UNL     1      36.192  -0.823  13.622  1.00  0.00     0.198 HD
BRANCH  50  53
HETATM   53  O4  UNL     1      36.312  -3.297  13.470  1.00  0.00    -0.331 OA
ATOM     54  H4  UNL     1      35.807  -2.912  12.763  1.00  0.00     0.221 HD
ENDBRANCH  50  53
BRANCH  51  55
HETATM   55  O5  UNL     1      37.404  -0.380  15.233  1.00  0.00    -0.287 OA
ATOM     56  H5  UNL     1      37.727  -0.698  16.068  1.00  0.00     0.244 HD
ENDBRANCH  51  55
ENDBRANCH  48  50
ENDBRANCH  43  48
ENDBRANCH  38  41
ENDBRANCH  33  38
ENDBRANCH  30  31
ENDBRANCH   1  30
TORSDOF 14
ENDMDL