MODEL 3
REMARK VINA RESULT: -6.683418710      3.721      6.410
REMARK  11 active torsions:
REMARK  status: ('A' for Active; 'I' for Inactive)
REMARK       I    between atoms: C2_2  and  N1_4
REMARK    1  A    between atoms: N1_4  and  C3_6
REMARK    2  A    between atoms: C5_10  and  C6_11
REMARK    3  A    between atoms: C6_11  and  O2_12
REMARK    4  A    between atoms: C6_11  and  N3_14
REMARK    5  A    between atoms: N3_14  and  C7_16
REMARK    6  A    between atoms: N4_19  and  C10_20
REMARK    7  A    between atoms: C11_24  and  N6_25
REMARK    8  A    between atoms: C13_31  and  N9_32
REMARK    9  A    between atoms: N9_32  and  C14_34
REMARK   10  A    between atoms: N12_37  and  N13_38
REMARK   11  A    between atoms: C16_47  and  N16_48
ROOT
HETATM    1  N6  UNL     1      38.482  -1.873  22.694  1.00  0.00    -0.066 N
HETATM    2  N7  UNL     1      39.163  -0.752  22.743  1.00  0.00    -0.261 N
ATOM      3  H7  UNL     1      40.168  -0.772  22.564  1.00  0.00     0.189 HD
HETATM    4  C12 UNL     1      38.568   0.426  23.024  1.00  0.00     0.181 A
HETATM    5  N8  UNL     1      39.035   1.687  23.132  1.00  0.00    -0.171 N
ATOM      6  H8  UNL     1      39.999   1.995  23.010  1.00  0.00     0.186 HD
HETATM    7  C13 UNL     1      37.971   2.458  23.433  1.00  0.00     0.684 A
HETATM    8  N14 UNL     1      36.879   1.682  23.508  1.00  0.00    -0.172 N
ATOM      9  H14 UNL     1      35.939   2.013  23.722  1.00  0.00     0.186 HD
HETATM   10  C15 UNL     1      37.211   0.393  23.256  1.00  0.00     0.182 A
HETATM   11  N15 UNL     1      36.527  -0.761  23.203  1.00  0.00    -0.171 N
ATOM     12  H15 UNL     1      35.522  -0.765  23.379  1.00  0.00     0.186 HD
HETATM   13  C16 UNL     1      37.160  -1.905  22.920  1.00  0.00     0.698 A
ENDROOT
BRANCH   1  14
HETATM   14  C11 UNL     1      39.176  -3.103  22.389  1.00  0.00     0.475 C
HETATM   15  N5  UNL     1      40.631  -2.996  22.623  1.00  0.00     0.017 N
HETATM   16  C10 UNL     1      40.316  -3.343  24.004  1.00  0.00     0.446 C
ATOM     17  H52 UNL     1      41.157  -2.155  22.383  1.00  0.00     0.287 HD
ATOM     18  H51 UNL     1      41.308  -3.525  22.072  1.00  0.00     0.287 HD
HETATM   19  O4  UNL     1      39.211  -4.040  23.452  1.00  0.00    -0.291 OA
BRANCH  16  20
HETATM   20  N4  UNL     1      41.264  -4.132  24.713  1.00  0.00    -0.266 N
HETATM   21  C3  UNL     1      41.489  -5.466  24.509  1.00  0.00     0.130 A
HETATM   22  C4  UNL     1      42.478  -5.801  25.401  1.00  0.00     0.138 A
HETATM   23  N2  UNL     1      42.845  -4.728  26.119  1.00  0.00    -0.348 N
HETATM   24  C5  UNL     1      42.092  -3.700  25.690  1.00  0.00     0.138 A
ATOM     25  H2  UNL     1      43.557  -4.699  26.849  1.00  0.00     0.166 HD
BRANCH  21  26
HETATM   26  N1  UNL     1      40.814  -6.285  23.574  1.00  0.00    -0.312 N
HETATM   27  C2  UNL     1      41.156  -6.404  22.229  1.00  0.00     0.219 C
HETATM   28  C1  UNL     1      40.420  -7.294  21.275  1.00  0.00     0.117 C
HETATM   29  O1  UNL     1      42.111  -5.767  21.742  1.00  0.00    -0.274 OA
ATOM     30  H1  UNL     1      40.018  -6.828  23.909  1.00  0.00     0.170 HD
ENDBRANCH  21  26
BRANCH  24  31
HETATM   31  C6  UNL     1      42.233  -2.345  26.294  1.00  0.00     0.283 C
BRANCH  31  32
HETATM   32  O2  UNL     1      42.982  -2.454  27.482  1.00  0.00    -0.370 OA
ATOM     33  H2  UNL     1      42.402  -2.724  28.185  1.00  0.00     0.212 HD
ENDBRANCH  31  32
BRANCH  31  34
HETATM   34  N3  UNL     1      42.817  -1.370  25.467  1.00  0.00    -0.387 N
ATOM     35  H3  UNL     1      43.771  -1.494  25.128  1.00  0.00     0.156 HD
BRANCH  34  36
HETATM   36  C7  UNL     1      42.082  -0.220  25.106  1.00  0.00     0.071 C
HETATM   37  C8  UNL     1      42.452   0.218  23.710  1.00  0.00     0.031 C
HETATM   38  C9  UNL     1      42.396   0.976  26.010  1.00  0.00     0.031 C
ENDBRANCH  34  36
ENDBRANCH  31  34
ENDBRANCH  24  31
ENDBRANCH  16  20
ENDBRANCH   1  14
BRANCH  13  39
HETATM   39  N16 UNL     1      36.507  -3.044  22.863  1.00  0.00    -0.233 N
ATOM     40 2H16 UNL     1      37.003  -3.933  22.802  1.00  0.00     0.174 HD
ATOM     41 1H16 UNL     1      35.486  -3.051  22.878  1.00  0.00     0.174 HD
ENDBRANCH  13  39
BRANCH   7  42
HETATM   42  N9  UNL     1      38.036   3.875  23.635  1.00  0.00    -0.182 N
ATOM     43  H9  UNL     1      38.330   4.501  22.885  1.00  0.00     0.182 HD
BRANCH  42  44
HETATM   44  C14 UNL     1      37.675   4.389  24.931  1.00  0.00     0.377 C
HETATM   45  N10 UNL     1      36.608   5.372  24.702  1.00  0.00    -0.073 NA
HETATM   46  N11 UNL     1      35.475   4.549  24.791  1.00  0.00    -0.005 NA
HETATM   47  N12 UNL     1      35.795   3.621  25.778  1.00  0.00     0.006 NA
HETATM   48  O3  UNL     1      37.114   3.395  25.704  1.00  0.00    -0.223 OA
BRANCH  47  49
HETATM   49  N13 UNL     1      35.042   2.447  25.630  1.00  0.00    -0.324 NA
ATOM     50 2H13 UNL     1      34.146   2.495  26.115  1.00  0.00     0.174 HD
ATOM     51 1H13 UNL     1      35.545   1.639  25.998  1.00  0.00     0.174 HD
ENDBRANCH  47  49
ENDBRANCH  42  44
ENDBRANCH   7  42
TORSDOF 11
ENDMDL