MODEL 5
REMARK VINA RESULT: -6.474252495      2.269      6.527
REMARK  16 active torsions:
REMARK  status: ('A' for Active; 'I' for Inactive)
REMARK    1  A    between atoms: C1_4  and  N2_5
REMARK    2  A    between atoms: C1_4  and  C2_10
REMARK    3  A    between atoms: N2_5  and  N3_7
REMARK    4  A    between atoms: N5_14  and  C3_15
REMARK    5  A    between atoms: C5_20  and  O3_21
REMARK    6  A    between atoms: C6_23  and  O4_24
REMARK    7  A    between atoms: C7_26  and  C8_27
REMARK    8  A    between atoms: C9_34  and  C10_35
REMARK    9  A    between atoms: C10_35  and  N10_36
REMARK   10  A    between atoms: C12_38  and  C13_39
REMARK   11  A    between atoms: C13_39  and  O5_40
REMARK   12  A    between atoms: C13_39  and  C14_42
REMARK   13  A    between atoms: C14_42  and  O6_43
REMARK   14  A    between atoms: C14_42  and  C15_45
REMARK   15  A    between atoms: C15_45  and  O7_46
REMARK   16  A    between atoms: C16_53  and  N14_54
ROOT
HETATM    1  C3  UNL     1      38.030  -5.004  15.530  1.00  0.00     0.157 A
HETATM    2  N6  UNL     1      37.265  -4.304  14.672  1.00  0.00    -0.304 N
ATOM      3  H6  UNL     1      36.672  -4.812  14.017  1.00  0.00     0.171 HD
HETATM    4  C4  UNL     1      37.253  -2.963  14.645  1.00  0.00     0.283 A
HETATM    5  O2  UNL     1      36.508  -2.341  13.810  1.00  0.00    -0.265 OA
HETATM    6  C5  UNL     1      38.029  -2.227  15.501  1.00  0.00     0.169 A
HETATM    7  C6  UNL     1      38.837  -2.886  16.407  1.00  0.00     0.122 A
HETATM    8  C7  UNL     1      38.824  -4.286  16.407  1.00  0.00     0.092 A
ENDROOT
BRANCH   8   9
HETATM    9  C8  UNL     1      39.645  -5.046  17.329  1.00  0.00     0.139 A
HETATM   10  N7  UNL     1      40.943  -5.284  17.111  1.00  0.00    -0.270 N
HETATM   11  N8  UNL     1      41.707  -5.975  17.938  1.00  0.00    -0.240 N
ATOM     12  H7  UNL     1      41.367  -4.911  16.262  1.00  0.00     0.190 HD
HETATM   13  N9  UNL     1      41.140  -6.451  19.038  1.00  0.00    -0.273 N
ATOM     14  H8  UNL     1      42.695  -6.136  17.738  1.00  0.00     0.208 HD
HETATM   15  C9  UNL     1      39.849  -6.261  19.335  1.00  0.00     0.118 A
ATOM     16  H9  UNL     1      41.714  -6.988  19.689  1.00  0.00     0.190 HD
HETATM   17  N13 UNL     1      39.104  -5.550  18.463  1.00  0.00    -0.328 N
ATOM     18  H13 UNL     1      38.116  -5.389  18.661  1.00  0.00     0.169 HD
BRANCH  15  19
HETATM   19  C10 UNL     1      39.310  -6.833  20.584  1.00  0.00     0.223 C
BRANCH  19  20
HETATM   20  N10 UNL     1      38.581  -5.815  21.305  1.00  0.00    -0.278 N
HETATM   21  C11 UNL     1      39.063  -5.072  22.307  1.00  0.00     0.137 A
HETATM   22  C12 UNL     1      38.081  -4.217  22.740  1.00  0.00     0.072 A
HETATM   23  N11 UNL     1      36.998  -4.471  21.968  1.00  0.00    -0.284 N
HETATM   24  N12 UNL     1      37.324  -5.442  21.106  1.00  0.00    -0.020 NA
ATOM     25  H11 UNL     1      36.093  -4.004  22.031  1.00  0.00     0.184 HD
BRANCH  22  26
HETATM   26  C13 UNL     1      38.147  -3.213  23.822  1.00  0.00     0.201 C
BRANCH  26  27
HETATM   27  O5  UNL     1      39.076  -3.518  24.805  1.00  0.00    -0.387 OA
ATOM     28  H5  UNL     1      38.684  -3.810  25.620  1.00  0.00     0.210 HD
ENDBRANCH  26  27
BRANCH  26  29
HETATM   29  C14 UNL     1      38.389  -1.819  23.296  1.00  0.00     0.176 C
BRANCH  29  30
HETATM   30  O6  UNL     1      38.803  -1.812  21.978  1.00  0.00    -0.390 OA
ATOM     31  H6  UNL     1      39.112  -0.959  21.696  1.00  0.00     0.210 HD
ENDBRANCH  29  30
BRANCH  29  32
HETATM   32  C15 UNL     1      37.122  -0.990  23.414  1.00  0.00     0.198 C
BRANCH  32  33
HETATM   33  O7  UNL     1      36.097  -1.477  22.626  1.00  0.00    -0.398 OA
ATOM     34  H7  UNL     1      36.144  -1.160  21.732  1.00  0.00     0.209 HD
ENDBRANCH  32  33
ENDBRANCH  29  32
ENDBRANCH  26  29
ENDBRANCH  22  26
ENDBRANCH  19  20
ENDBRANCH  15  19
ENDBRANCH   8   9
BRANCH   1  35
HETATM   35  N5  UNL     1      38.044  -6.424  15.563  1.00  0.00    -0.161 N
HETATM   36  O1  UNL     1      37.535  -7.286  16.353  1.00  0.00    -0.146 OA
HETATM   37  N4  UNL     1      37.795  -8.494  16.012  1.00  0.00    -0.234 N
HETATM   38  C2  UNL     1      38.559  -8.483  14.872  1.00  0.00     0.147 A
ATOM     39  H4  UNL     1      37.484  -9.329  16.508  1.00  0.00     0.197 HD
HETATM   40  C16 UNL     1      38.705  -7.150  14.605  1.00  0.00     0.164 A
BRANCH  38  41
HETATM   41  C1  UNL     1      39.037  -9.675  14.204  1.00  0.00     0.146 C
HETATM   42  N1  UNL     1      40.246 -10.069  14.278  1.00  0.00    -0.382 N
ATOM     43  H12 UNL     1      40.584 -10.908  13.807  1.00  0.00     0.157 HD
ATOM     44  H11 UNL     1      40.896  -9.514  14.835  1.00  0.00     0.157 HD
BRANCH  41  45
HETATM   45  N2  UNL     1      38.114 -10.462  13.413  1.00  0.00    -0.290 N
ATOM     46  H2  UNL     1      37.968 -10.261  12.423  1.00  0.00     0.188 HD
BRANCH  45  47
HETATM   47  N3  UNL     1      37.437 -11.489  14.034  1.00  0.00    -0.344 N
ATOM     48  H32 UNL     1      37.641 -11.720  15.007  1.00  0.00     0.176 HD
ATOM     49  H31 UNL     1      36.738 -12.000  13.495  1.00  0.00     0.176 HD
ENDBRANCH  45  47
ENDBRANCH  41  45
ENDBRANCH  38  41
BRANCH  40  50
HETATM   50  N14 UNL     1      39.362  -6.664  13.608  1.00  0.00    -0.382 N
ATOM     51 2H14 UNL     1      38.981  -6.457  12.685  1.00  0.00     0.157 HD
ATOM     52 1H14 UNL     1      40.353  -6.425  13.622  1.00  0.00     0.157 HD
ENDBRANCH  40  50
ENDBRANCH   1  35
BRANCH   7  53
HETATM   53  O4  UNL     1      39.648  -2.206  17.303  1.00  0.00    -0.357 OA
ATOM     54  H4  UNL     1      40.483  -2.554  17.593  1.00  0.00     0.218 HD
ENDBRANCH   7  53
BRANCH   6  55
HETATM   55  O3  UNL     1      38.015  -0.840  15.472  1.00  0.00    -0.354 OA
ATOM     56  H3  UNL     1      38.724  -0.333  15.849  1.00  0.00     0.218 HD
ENDBRANCH   6  55
TORSDOF 16
ENDMDL