MODEL 1
REMARK VINA RESULT: -6.697882352      0.000      0.000
REMARK  13 active torsions:
REMARK  status: ('A' for Active; 'I' for Inactive)
REMARK    1  A    between atoms: O1_2  and  C2_3
REMARK    2  A    between atoms: C3_6  and  N2_7
REMARK    3  A    between atoms: C4_14  and  O2_15
REMARK    4  A    between atoms: O2_15  and  C5_16
REMARK    5  A    between atoms: C6_19  and  N7_20
REMARK    6  A    between atoms: C7_25  and  N9_26
REMARK    7  A    between atoms: C8_29  and  N10_30
REMARK    8  A    between atoms: N10_30  and  C9_32
REMARK    9  A    between atoms: C9_32  and  N11_33
REMARK   10  A    between atoms: C10_38  and  C11_39
REMARK       I    between atoms: C11_39  and  N14_41
REMARK   11  A    between atoms: N14_41  and  C12_43
REMARK   12  A    between atoms: C13_47  and  O4_48
REMARK   13  A    between atoms: C15_54  and  O6_55
ROOT
HETATM    1  C5  UNL     1      38.992  -6.924  14.691  1.00  0.00     0.197 A
HETATM    2  N6  UNL     1      39.714  -6.236  13.779  1.00  0.00    -0.168 N
ATOM      3  H6  UNL     1      39.522  -5.246  13.623  1.00  0.00     0.186 HD
HETATM    4  C6  UNL     1      40.681  -6.847  13.079  1.00  0.00     0.679 A
HETATM    5  N8  UNL     1      40.909  -8.141  13.305  1.00  0.00    -0.175 N
ATOM      6  H8  UNL     1      41.647  -8.594  12.767  1.00  0.00     0.186 HD
HETATM    7  C7  UNL     1      40.230  -8.894  14.198  1.00  0.00     0.146 A
HETATM    8  C8  UNL     1      39.239  -8.273  14.918  1.00  0.00     0.130 A
ENDROOT
BRANCH   8   9
HETATM    9  N10 UNL     1      38.440  -8.941  15.879  1.00  0.00    -0.343 N
ATOM     10  H10 UNL     1      37.559  -9.336  15.553  1.00  0.00     0.167 HD
BRANCH   9  11
HETATM   11  C9  UNL     1      38.752  -9.113  17.262  1.00  0.00     0.229 C
BRANCH  11  12
HETATM   12  N11 UNL     1      38.131  -8.171  18.157  1.00  0.00    -0.176 N
HETATM   13  N12 UNL     1      36.954  -7.592  18.009  1.00  0.00    -0.219 N
HETATM   14  N13 UNL     1      36.687  -6.789  19.021  1.00  0.00    -0.264 N
ATOM     15  H12 UNL     1      36.332  -7.744  17.215  1.00  0.00     0.210 HD
HETATM   16  C10 UNL     1      37.734  -6.851  19.860  1.00  0.00     0.206 A
ATOM     17  H13 UNL     1      35.845  -6.227  19.143  1.00  0.00     0.190 HD
HETATM   18  N16 UNL     1      38.606  -7.698  19.319  1.00  0.00    -0.256 N
ATOM     19  H16 UNL     1      39.504  -7.951  19.728  1.00  0.00     0.191 HD
BRANCH  16  20
HETATM   20  C11 UNL     1      37.831  -6.103  21.112  1.00  0.00     0.291 C
HETATM   21  O3  UNL     1      38.611  -6.453  22.023  1.00  0.00    -0.264 OA
HETATM   22  N14 UNL     1      37.022  -4.958  21.297  1.00  0.00    -0.305 N
ATOM     23  H14 UNL     1      36.384  -4.672  20.554  1.00  0.00     0.167 HD
BRANCH  22  24
HETATM   24  C12 UNL     1      37.079  -4.186  22.516  1.00  0.00     0.440 C
HETATM   25  N15 UNL     1      38.345  -3.438  22.547  1.00  0.00     0.020 N
HETATM   26  C13 UNL     1      37.514  -2.394  23.122  1.00  0.00     0.475 C
ATOM     27 2H15 UNL     1      39.189  -3.790  23.000  1.00  0.00     0.288 HD
ATOM     28 1H15 UNL     1      38.927  -3.293  21.721  1.00  0.00     0.288 HD
HETATM   29  O5  UNL     1      36.427  -2.960  22.444  1.00  0.00    -0.289 OA
BRANCH  26  30
HETATM   30  O4  UNL     1      37.319  -2.515  24.489  1.00  0.00    -0.349 OA
ATOM     31  H4  UNL     1      38.107  -2.393  25.005  1.00  0.00     0.214 HD
ENDBRANCH  26  30
ENDBRANCH  22  24
ENDBRANCH  16  20
ENDBRANCH  11  12
ENDBRANCH   9  11
ENDBRANCH   8   9
BRANCH   1  32
HETATM   32  O2  UNL     1      38.003  -6.244  15.390  1.00  0.00    -0.256 OA
BRANCH  32  33
HETATM   33  C4  UNL     1      37.535  -5.021  14.946  1.00  0.00     0.271 A
HETATM   34  N2  UNL     1      37.777  -3.796  15.442  1.00  0.00    -0.185 N
HETATM   35  N3  UNL     1      37.110  -2.942  14.682  1.00  0.00    -0.216 N
HETATM   36  N4  UNL     1      36.478  -3.609  13.754  1.00  0.00    -0.224 N
ATOM     37  H3  UNL     1      37.092  -1.930  14.801  1.00  0.00     0.210 HD
HETATM   38  N5  UNL     1      36.710  -4.902  13.874  1.00  0.00    -0.247 N
ATOM     39  H4  UNL     1      35.888  -3.189  13.036  1.00  0.00     0.210 HD
ATOM     40  H5  UNL     1      36.346  -5.652  13.288  1.00  0.00     0.192 HD
BRANCH  34  41
HETATM   41  C3  UNL     1      38.591  -3.486  16.559  1.00  0.00     0.137 A
HETATM   42  N1  UNL     1      38.649  -4.201  17.694  1.00  0.00    -0.319 N
HETATM   43  C2  UNL     1      39.532  -3.615  18.549  1.00  0.00     0.177 A
ATOM     44  H1  UNL     1      38.116  -5.049  17.885  1.00  0.00     0.169 HD
HETATM   45  C15 UNL     1      40.047  -2.494  17.932  1.00  0.00     0.120 A
HETATM   46  C14 UNL     1      39.446  -2.422  16.677  1.00  0.00     0.091 A
BRANCH  43  47
HETATM   47  O1  UNL     1      39.891  -4.024  19.825  1.00  0.00    -0.339 OA
HETATM   48  C1  UNL     1      41.091  -4.725  20.090  1.00  0.00     0.211 C
ENDBRANCH  43  47
BRANCH  45  49
HETATM   49  O6  UNL     1      40.970  -1.590  18.412  1.00  0.00    -0.356 OA
ATOM     50  H6  UNL     1      41.278  -0.784  18.013  1.00  0.00     0.218 HD
ENDBRANCH  45  49
ENDBRANCH  34  41
ENDBRANCH  32  33
ENDBRANCH   1  32
BRANCH   7  51
HETATM   51  N9  UNL     1      40.493 -10.151  14.365  1.00  0.00    -0.383 N
ATOM     52  H92 UNL     1      40.234 -10.843  13.663  1.00  0.00     0.157 HD
ATOM     53  H91 UNL     1      40.974 -10.490  15.198  1.00  0.00     0.157 HD
ENDBRANCH   7  51
BRANCH   4  54
HETATM   54  N7  UNL     1      41.370  -6.164  12.200  1.00  0.00    -0.234 N
ATOM     55  H72 UNL     1      41.131  -5.204  11.953  1.00  0.00     0.174 HD
ATOM     56  H71 UNL     1      42.172  -6.599  11.744  1.00  0.00     0.174 HD
ENDBRANCH   4  54
TORSDOF 13
ENDMDL