MODEL 4
REMARK VINA RESULT: -6.407474942      4.768      7.714
REMARK  14 active torsions:
REMARK  status: ('A' for Active; 'I' for Inactive)
REMARK       I    between atoms: C2_2  and  N1_4
REMARK    1  A    between atoms: N1_4  and  C3_6
REMARK    2  A    between atoms: C6_17  and  N7_18
REMARK    3  A    between atoms: N7_18  and  C7_20
REMARK    4  A    between atoms: C8_23  and  S1_24
REMARK    5  A    between atoms: S1_24  and  C9_25
REMARK    6  A    between atoms: C9_25  and  N9_26
REMARK    7  A    between atoms: N9_26  and  C10_27
REMARK    8  A    between atoms: N9_26  and  C11_34
REMARK    9  A    between atoms: C10_27  and  N10_28
REMARK   10  A    between atoms: C10_27  and  O2_32
REMARK   11  A    between atoms: C13_36  and  N11_37
REMARK   12  A    between atoms: N11_37  and  O3_39
REMARK   13  A    between atoms: C14_41  and  C15_42
REMARK   14  A    between atoms: C15_42  and  N12_43
ROOT
HETATM    1  C7  UNL     1      40.912   0.796  21.944  1.00  0.00     0.150 A
HETATM    2  N8  UNL     1      41.005  -0.259  21.129  1.00  0.00    -0.320 N
ATOM      3  H8  UNL     1      40.503  -1.136  21.268  1.00  0.00     0.169 HD
HETATM    4  C8  UNL     1      41.853  -0.016  20.089  1.00  0.00     0.152 A
HETATM    5  N14 UNL     1      42.285   1.240  20.294  1.00  0.00    -0.322 N
ATOM      6  H14 UNL     1      42.940   1.732  19.687  1.00  0.00     0.169 HD
HETATM    7  C16 UNL     1      41.736   1.758  21.404  1.00  0.00     0.162 A
HETATM    8  N15 UNL     1      41.981   3.075  21.913  1.00  0.00    -0.079 NA
ENDROOT
BRANCH   4   9
HETATM    9  S1  UNL     1      42.236  -1.147  18.773  1.00  0.00    -0.049 SA
BRANCH   9  10
HETATM   10  C9  UNL     1      41.963  -0.468  17.139  1.00  0.00     0.145 C
BRANCH  10  11
HETATM   11  N9  UNL     1      40.670  -0.330  16.680  1.00  0.00    -0.315 N
BRANCH  11  12
HETATM   12  C10 UNL     1      39.671  -1.259  16.566  1.00  0.00     0.427 C
BRANCH  12  13
HETATM   13  N10 UNL     1      40.035  -2.620  16.195  1.00  0.00    -0.035 N
ATOM     14 3H10 UNL     1      40.201  -2.657  15.190  1.00  0.00     0.279 HD
ATOM     15 2H10 UNL     1      40.968  -2.824  16.555  1.00  0.00     0.279 HD
ATOM     16 1H10 UNL     1      39.404  -3.377  16.456  1.00  0.00     0.279 HD
ENDBRANCH  12  13
BRANCH  12  17
HETATM   17  O2  UNL     1      38.583  -0.784  15.811  1.00  0.00    -0.354 OA
ATOM     18  H2  UNL     1      37.871  -1.412  15.770  1.00  0.00     0.213 HD
ENDBRANCH  12  17
ENDBRANCH  11  12
BRANCH  11  19
HETATM   19  C11 UNL     1      40.175   1.022  16.553  1.00  0.00     0.190 C
HETATM   20  C12 UNL     1      41.361   1.952  16.440  1.00  0.00     0.080 C
HETATM   21  C13 UNL     1      40.912   3.157  17.242  1.00  0.00     0.156 C
HETATM   22  C14 UNL     1      39.809   2.637  18.083  1.00  0.00     0.034 C
HETATM   23  N13 UNL     1      39.454   1.491  17.669  1.00  0.00    -0.372 N
ATOM     24  H13 UNL     1      38.706   0.953  18.108  1.00  0.00     0.161 HD
BRANCH  21  25
HETATM   25  N11 UNL     1      41.962   3.644  18.059  1.00  0.00    -0.295 N
ATOM     26  H11 UNL     1      41.842   4.514  18.578  1.00  0.00     0.188 HD
BRANCH  25  27
HETATM   27  O3  UNL     1      43.000   3.028  18.141  1.00  0.00    -0.294 OA
ATOM     28  H3  UNL     1      43.004   2.148  18.498  1.00  0.00     0.244 HD
ENDBRANCH  25  27
ENDBRANCH  21  25
BRANCH  22  29
HETATM   29  C15 UNL     1      39.249   3.421  19.242  1.00  0.00     0.283 C
BRANCH  29  30
HETATM   30  N12 UNL     1      37.899   2.973  19.554  1.00  0.00    -0.074 N
ATOM     31 3H12 UNL     1      37.857   1.963  19.693  1.00  0.00     0.274 HD
ATOM     32 2H12 UNL     1      37.608   3.266  20.487  1.00  0.00     0.274 HD
ATOM     33 1H12 UNL     1      37.246   3.286  18.836  1.00  0.00     0.274 HD
ENDBRANCH  29  30
ENDBRANCH  22  29
ENDBRANCH  11  19
ENDBRANCH  10  11
ENDBRANCH   9  10
ENDBRANCH   4   9
BRANCH   1  34
HETATM   34  N7  UNL     1      40.119   0.892  23.125  1.00  0.00    -0.326 N
ATOM     35  H7  UNL     1      40.505   0.561  24.010  1.00  0.00     0.169 HD
BRANCH  34  36
HETATM   36  C6  UNL     1      38.796   1.440  23.102  1.00  0.00     0.128 C
HETATM   37  C3  UNL     1      37.659   0.507  23.165  1.00  0.00     0.255 C
HETATM   38  N2  UNL     1      36.712   0.937  24.161  1.00  0.00    -0.337 N
HETATM   39  C4  UNL     1      36.208   2.104  24.316  1.00  0.00     0.192 C
ATOM     40  H2  UNL     1      36.404   0.225  24.824  1.00  0.00     0.164 HD
HETATM   41  N3  UNL     1      35.287   2.214  25.404  1.00  0.00    -0.063 NA
HETATM   42  N4  UNL     1      36.451   3.312  23.556  1.00  0.00    -0.305 N
HETATM   43  C5  UNL     1      37.616   3.553  22.988  1.00  0.00     0.196 C
ATOM     44  H4  UNL     1      35.700   3.995  23.457  1.00  0.00     0.171 HD
HETATM   45  N5  UNL     1      37.761   4.766  22.261  1.00  0.00    -0.063 NA
HETATM   46  N6  UNL     1      38.772   2.719  23.028  1.00  0.00    -0.317 N
ATOM     47  H6  UNL     1      39.676   3.191  22.994  1.00  0.00     0.170 HD
BRANCH  37  48
HETATM   48  N1  UNL     1      38.084  -0.862  23.387  1.00  0.00    -0.334 N
HETATM   49  C2  UNL     1      37.215  -1.946  23.116  1.00  0.00     0.215 C
HETATM   50  C1  UNL     1      37.633  -3.337  23.337  1.00  0.00     0.117 C
HETATM   51  O1  UNL     1      36.062  -1.712  22.678  1.00  0.00    -0.274 OA
ATOM     52  H1  UNL     1      39.022  -1.046  23.742  1.00  0.00     0.165 HD
ENDBRANCH  37  48
ENDBRANCH  34  36
ENDBRANCH   1  34
TORSDOF 14
ENDMDL