MODEL 1
REMARK VINA RESULT: -7.095364758      0.000      0.000
REMARK  16 active torsions:
REMARK  status: ('A' for Active; 'I' for Inactive)
REMARK    1  A    between atoms: N1_1  and  C1_4
REMARK    2  A    between atoms: C2_7  and  N3_8
REMARK    3  A    between atoms: C4_14  and  C5_15
REMARK    4  A    between atoms: C6_18  and  N7_19
REMARK    5  A    between atoms: C8_23  and  N9_24
REMARK    6  A    between atoms: N9_24  and  C9_26
REMARK    7  A    between atoms: C9_26  and  O1_27
REMARK    8  A    between atoms: C9_26  and  C10_29
REMARK    9  A    between atoms: C10_29  and  O2_30
REMARK   10  A    between atoms: C11_32  and  O3_33
REMARK   11  A    between atoms: N10_35  and  N11_36
REMARK   12  A    between atoms: C12_39  and  C13_40
REMARK   13  A    between atoms: C13_40  and  O4_41
REMARK   14  A    between atoms: N13_45  and  N14_46
REMARK   15  A    between atoms: N15_48  and  N16_50
REMARK       I    between atoms: N16_50  and  C14_52
REMARK   16  A    between atoms: N18_54  and  O5_56
ROOT
HETATM    1  N3  UNL     1      37.043   3.053  23.132  1.00  0.00    -0.122 N
HETATM    2  C3  UNL     1      36.347   4.049  23.683  1.00  0.00     0.225 A
HETATM    3  N4  UNL     1      35.734   3.624  24.807  1.00  0.00    -0.293 N
ATOM      4  H4  UNL     1      35.139   4.169  25.431  1.00  0.00     0.187 HD
HETATM    5  N5  UNL     1      36.070   2.352  24.929  1.00  0.00    -0.282 N
ATOM      6  H5  UNL     1      35.765   1.739  25.686  1.00  0.00     0.188 HD
HETATM    7  C4  UNL     1      36.870   1.980  23.915  1.00  0.00     0.174 A
ENDROOT
BRANCH   7   8
HETATM    8  C5  UNL     1      37.451   0.659  23.692  1.00  0.00     0.123 A
HETATM    9  N6  UNL     1      36.881  -0.450  23.185  1.00  0.00    -0.183 N
HETATM   10  C6  UNL     1      37.769  -1.459  23.149  1.00  0.00     0.713 A
ATOM     11  H6  UNL     1      35.912  -0.516  22.872  1.00  0.00     0.184 HD
HETATM   12  N10 UNL     1      38.937  -1.009  23.637  1.00  0.00    -0.092 N
HETATM   13  C12 UNL     1      38.750   0.289  23.973  1.00  0.00     0.106 A
BRANCH  10  14
HETATM   14  N7  UNL     1      37.490  -2.784  22.665  1.00  0.00    -0.117 N
HETATM   15  C7  UNL     1      36.498  -3.601  23.061  1.00  0.00     0.210 A
HETATM   16  N8  UNL     1      36.630  -4.719  22.342  1.00  0.00    -0.334 N
HETATM   17  C8  UNL     1      37.659  -4.680  21.490  1.00  0.00     0.161 A
ATOM     18  H8  UNL     1      36.007  -5.522  22.432  1.00  0.00     0.168 HD
HETATM   19  C11 UNL     1      38.207  -3.397  21.724  1.00  0.00     0.208 A
BRANCH  17  20
HETATM   20  N9  UNL     1      38.197  -5.570  20.551  1.00  0.00    -0.318 N
ATOM     21  H9  UNL     1      38.838  -6.276  20.914  1.00  0.00     0.169 HD
BRANCH  20  22
HETATM   22  C9  UNL     1      37.957  -5.603  19.188  1.00  0.00     0.163 C
BRANCH  22  23
HETATM   23  O1  UNL     1      36.964  -6.442  18.863  1.00  0.00    -0.345 OA
ATOM     24  H1  UNL     1      36.105  -6.065  19.013  1.00  0.00     0.219 HD
ENDBRANCH  22  23
BRANCH  22  25
HETATM   25  C10 UNL     1      38.506  -4.958  18.028  1.00  0.00     0.187 C
BRANCH  25  26
HETATM   26  O2  UNL     1      38.857  -3.666  18.178  1.00  0.00    -0.368 OA
ATOM     27  H2  UNL     1      39.071  -3.196  17.381  1.00  0.00     0.216 HD
ENDBRANCH  25  26
ENDBRANCH  22  25
ENDBRANCH  20  22
ENDBRANCH  17  20
BRANCH  19  28
HETATM   28  O3  UNL     1      39.304  -2.866  21.082  1.00  0.00    -0.343 OA
ATOM     29  H3  UNL     1      39.454  -1.942  20.918  1.00  0.00     0.219 HD
ENDBRANCH  19  28
ENDBRANCH  10  14
BRANCH  12  30
HETATM   30  N11 UNL     1      40.145  -1.693  23.797  1.00  0.00    -0.324 N
ATOM     31 2H11 UNL     1      40.276  -2.681  23.579  1.00  0.00     0.178 HD
ATOM     32 1H11 UNL     1      41.042  -1.343  24.135  1.00  0.00     0.178 HD
ENDBRANCH  12  30
BRANCH  13  33
HETATM   33  C13 UNL     1      39.781   1.187  24.555  1.00  0.00     0.226 C
BRANCH  33  34
HETATM   34  O4  UNL     1      40.755   1.478  23.604  1.00  0.00    -0.395 OA
ATOM     35  H4  UNL     1      40.896   2.416  23.557  1.00  0.00     0.209 HD
ENDBRANCH  33  34
ENDBRANCH  13  33
ENDBRANCH   7   8
BRANCH   1  36
HETATM   36  C2  UNL     1      37.827   3.074  21.950  1.00  0.00     0.722 A
HETATM   37  N2  UNL     1      39.102   3.505  21.920  1.00  0.00    -0.017 N
HETATM   38  C1  UNL     1      39.571   3.404  20.672  1.00  0.00     0.728 A
ATOM     39  H2  UNL     1      39.626   3.853  22.722  1.00  0.00     0.203 HD
HETATM   40  N13 UNL     1      38.580   2.908  19.918  1.00  0.00     0.010 N
HETATM   41  N12 UNL     1      37.545   2.719  20.710  1.00  0.00    -0.093 N
ATOM     42  H12 UNL     1      36.646   2.347  20.406  1.00  0.00     0.208 HD
BRANCH  38  43
HETATM   43  N1  UNL     1      40.778   3.735  20.275  1.00  0.00    -0.231 N
ATOM     44  H12 UNL     1      41.429   4.364  20.745  1.00  0.00     0.174 HD
ATOM     45  H11 UNL     1      41.241   3.403  19.428  1.00  0.00     0.174 HD
ENDBRANCH  38  43
BRANCH  40  46
HETATM   46  N14 UNL     1      38.683   2.654  18.534  1.00  0.00    -0.191 N
HETATM   47  N15 UNL     1      39.370   1.645  18.158  1.00  0.00    -0.224 N
ATOM     48  H15 UNL     1      39.825   1.049  18.850  1.00  0.00     0.210 HD
ATOM     49  H14 UNL     1      38.222   3.258  17.853  1.00  0.00     0.212 HD
BRANCH  47  50
HETATM   50  N16 UNL     1      39.497   1.359  16.797  1.00  0.00    -0.256 N
HETATM   51  C14 UNL     1      39.363   0.040  16.288  1.00  0.00     0.228 C
HETATM   52  N17 UNL     1      38.135  -0.327  15.672  1.00  0.00    -0.060 NA
HETATM   53  N18 UNL     1      40.337  -0.765  16.399  1.00  0.00    -0.240 N
ATOM     54  H18 UNL     1      41.185  -0.428  16.855  1.00  0.00     0.197 HD
ATOM     55  H16 UNL     1      39.691   2.122  16.148  1.00  0.00     0.191 HD
BRANCH  53  56
HETATM   56  O5  UNL     1      40.324  -2.062  15.947  1.00  0.00    -0.287 OA
ATOM     57  H5  UNL     1      40.507  -2.820  16.490  1.00  0.00     0.244 HD
ENDBRANCH  53  56
ENDBRANCH  47  50
ENDBRANCH  40  46
ENDBRANCH   1  36
TORSDOF 16
ENDMDL