MODEL 1
REMARK VINA RESULT: -7.111151881      0.000      0.000
REMARK  15 active torsions:
REMARK  status: ('A' for Active; 'I' for Inactive)
REMARK    1  A    between atoms: N1_1  and  C1_4
REMARK    2  A    between atoms: C2_7  and  O1_8
REMARK    3  A    between atoms: O1_8  and  C3_9
REMARK    4  A    between atoms: C3_9  and  O2_10
REMARK    5  A    between atoms: C3_9  and  C4_12
REMARK    6  A    between atoms: C3_9  and  C14_39
REMARK    7  A    between atoms: C6_14  and  O3_15
REMARK    8  A    between atoms: C7_17  and  O4_18
REMARK    9  A    between atoms: C8_20  and  C9_21
REMARK   10  A    between atoms: C10_26  and  C11_27
REMARK   11  A    between atoms: C11_27  and  C12_28
REMARK   12  A    between atoms: C12_28  and  N5_29
REMARK   13  A    between atoms: C12_28  and  C13_33
REMARK   14  A    between atoms: C15_49  and  N12_50
REMARK   15  A    between atoms: N13_53  and  N14_54
ROOT
HETATM    1  C3  UNL     1      41.108  -3.390  24.366  1.00  0.00     0.277 C
ENDROOT
BRANCH   1   2
HETATM    2  O1  UNL     1      40.799  -4.321  25.382  1.00  0.00    -0.269 OA
BRANCH   2   3
HETATM    3  C2  UNL     1      41.388  -4.335  26.623  1.00  0.00     0.256 A
HETATM    4  N2  UNL     1      40.727  -4.274  27.790  1.00  0.00    -0.152 N
HETATM    5  C1  UNL     1      41.363  -4.292  28.968  1.00  0.00     0.715 A
ATOM      6  H2  UNL     1      39.708  -4.213  27.779  1.00  0.00     0.188 HD
HETATM    7  N13 UNL     1      42.703  -4.373  29.011  1.00  0.00     0.083 N
HETATM    8  C15 UNL     1      43.377  -4.433  27.862  1.00  0.00     0.715 A
HETATM    9  N11 UNL     1      42.729  -4.415  26.685  1.00  0.00    -0.152 N
ATOM     10  H11 UNL     1      43.266  -4.464  25.819  1.00  0.00     0.188 HD
BRANCH   5  11
HETATM   11  N1  UNL     1      40.700  -4.231  30.089  1.00  0.00    -0.232 N
ATOM     12  H12 UNL     1      40.097  -5.013  30.348  1.00  0.00     0.174 HD
ATOM     13  H11 UNL     1      40.777  -3.419  30.701  1.00  0.00     0.174 HD
ENDBRANCH   5  11
BRANCH   7  14
HETATM   14  N14 UNL     1      43.327  -4.389  30.256  1.00  0.00    -0.309 N
ATOM     15 2H14 UNL     1      43.276  -5.186  30.891  1.00  0.00     0.178 HD
ATOM     16 1H14 UNL     1      43.858  -3.567  30.545  1.00  0.00     0.178 HD
ENDBRANCH   7  14
BRANCH   8  17
HETATM   17  N12 UNL     1      44.673  -4.510  27.927  1.00  0.00    -0.232 N
ATOM     18 2H12 UNL     1      45.215  -3.854  27.366  1.00  0.00     0.174 HD
ATOM     19 1H12 UNL     1      45.139  -5.200  28.515  1.00  0.00     0.174 HD
ENDBRANCH   8  17
ENDBRANCH   2   3
ENDBRANCH   1   2
BRANCH   1  20
HETATM   20  O2  UNL     1      42.036  -2.439  24.773  1.00  0.00    -0.354 OA
ATOM     21  H2  UNL     1      41.645  -1.734  25.275  1.00  0.00     0.214 HD
ENDBRANCH   1  20
BRANCH   1  22
HETATM   22  C4  UNL     1      39.826  -2.760  23.956  1.00  0.00     0.084 A
HETATM   23  C5  UNL     1      38.713  -3.570  23.834  1.00  0.00     0.070 A
HETATM   24  C6  UNL     1      37.480  -3.081  23.458  1.00  0.00     0.103 A
HETATM   25  C7  UNL     1      37.368  -1.738  23.198  1.00  0.00     0.130 A
HETATM   26  C8  UNL     1      38.495  -0.937  23.326  1.00  0.00     0.122 A
HETATM   27  N6  UNL     1      39.667  -1.464  23.693  1.00  0.00    -0.349 N
ATOM     28  H6  UNL     1      40.475  -0.846  23.776  1.00  0.00     0.166 HD
BRANCH  24  29
HETATM   29  O3  UNL     1      36.365  -3.882  23.333  1.00  0.00    -0.358 OA
ATOM     30  H3  UNL     1      36.225  -4.457  22.590  1.00  0.00     0.217 HD
ENDBRANCH  24  29
BRANCH  25  31
HETATM   31  O4  UNL     1      36.185  -1.117  22.811  1.00  0.00    -0.356 OA
ATOM     32  H4  UNL     1      35.809  -0.366  23.256  1.00  0.00     0.218 HD
ENDBRANCH  25  31
BRANCH  26  33
HETATM   33  C9  UNL     1      38.382   0.513  23.043  1.00  0.00     0.194 A
HETATM   34  N3  UNL     1      39.177   1.177  22.189  1.00  0.00    -0.276 N
HETATM   35  N4  UNL     1      38.784   2.453  22.193  1.00  0.00    -0.281 N
ATOM     36  H3  UNL     1      39.939   0.780  21.640  1.00  0.00     0.189 HD
HETATM   37  C10 UNL     1      37.738   2.571  23.060  1.00  0.00     0.143 A
ATOM     38  H4  UNL     1      39.195   3.207  21.643  1.00  0.00     0.189 HD
HETATM   39  O7  UNL     1      37.550   1.368  23.534  1.00  0.00    -0.276 OA
BRANCH  37  40
HETATM   40  C11 UNL     1      37.004   3.827  23.361  1.00  0.00     0.130 C
BRANCH  40  41
HETATM   41  C12 UNL     1      37.330   4.274  24.769  1.00  0.00     0.290 C
BRANCH  41  42
HETATM   42  N5  UNL     1      38.333   3.360  25.288  1.00  0.00    -0.065 N
ATOM     43  H53 UNL     1      39.020   3.081  24.587  1.00  0.00     0.275 HD
ATOM     44  H52 UNL     1      38.982   3.805  25.937  1.00  0.00     0.275 HD
ATOM     45  H51 UNL     1      37.836   2.569  25.698  1.00  0.00     0.275 HD
ENDBRANCH  41  42
BRANCH  41  46
HETATM   46  C13 UNL     1      36.084   4.187  25.569  1.00  0.00     0.204 C
HETATM   47  O5  UNL     1      35.681   5.224  26.151  1.00  0.00    -0.646 OA
HETATM   48  O6  UNL     1      35.384   3.010  25.677  1.00  0.00    -0.646 OA
ENDBRANCH  41  46
ENDBRANCH  40  41
ENDBRANCH  37  40
ENDBRANCH  26  33
ENDBRANCH   1  22
BRANCH   1  49
HETATM   49  C14 UNL     1      41.716  -4.086  23.177  1.00  0.00     0.181 A
HETATM   50  N7  UNL     1      41.915  -5.410  23.046  1.00  0.00    -0.266 N
HETATM   51  N8  UNL     1      42.470  -5.688  21.879  1.00  0.00    -0.005 NA
ATOM     52  H7  UNL     1      41.671  -6.105  23.752  1.00  0.00     0.185 HD
HETATM   53  N9  UNL     1      42.624  -4.528  21.264  1.00  0.00    -0.225 N
HETATM   54  N10 UNL     1      42.174  -3.554  22.033  1.00  0.00    -0.270 N
ATOM     55  H9  UNL     1      43.029  -4.404  20.337  1.00  0.00     0.205 HD
ATOM     56  H10 UNL     1      42.173  -2.562  21.798  1.00  0.00     0.189 HD
ENDBRANCH   1  49
TORSDOF 15
ENDMDL