MODEL 5
REMARK VINA RESULT: -6.565855328      3.131      7.923
REMARK  11 active torsions:
REMARK  status: ('A' for Active; 'I' for Inactive)
REMARK    1  A    between atoms: C2_6  and  C3_7
REMARK    2  A    between atoms: C3_7  and  O1_8
REMARK    3  A    between atoms: C3_7  and  N4_10
REMARK    4  A    between atoms: C4_11  and  C5_12
REMARK    5  A    between atoms: C6_17  and  N7_18
REMARK    6  A    between atoms: N7_18  and  C7_19
REMARK    7  A    between atoms: N7_18  and  C9_23
REMARK    8  A    between atoms: C7_19  and  C8_20
REMARK    9  A    between atoms: C8_20  and  O2_21
REMARK   10  A    between atoms: C9_23  and  N8_24
REMARK   11  A    between atoms: C14_42  and  N17_43
ROOT
HETATM    1  N4  UNL     1      40.453  -3.858  22.613  1.00  0.00    -0.281 N
HETATM    2  C4  UNL     1      39.298  -3.263  22.360  1.00  0.00     0.144 A
HETATM    3  N14 UNL     1      38.546  -4.186  21.692  1.00  0.00    -0.334 N
ATOM      4  H14 UNL     1      37.597  -4.021  21.359  1.00  0.00     0.168 HD
HETATM    5  C12 UNL     1      39.206  -5.320  21.532  1.00  0.00     0.121 A
HETATM    6  C13 UNL     1      38.903  -6.541  20.940  1.00  0.00     0.162 A
HETATM    7  N15 UNL     1      37.631  -6.706  20.343  1.00  0.00    -0.080 NA
HETATM    8  N16 UNL     1      39.802  -7.537  20.936  1.00  0.00    -0.177 N
ATOM      9  H16 UNL     1      39.583  -8.434  20.503  1.00  0.00     0.185 HD
HETATM   10  C14 UNL     1      40.993  -7.330  21.516  1.00  0.00     0.678 A
HETATM   11  N18 UNL     1      41.299  -6.157  22.088  1.00  0.00    -0.174 N
ATOM     12  H18 UNL     1      42.218  -6.045  22.514  1.00  0.00     0.186 HD
HETATM   13  C15 UNL     1      40.442  -5.124  22.123  1.00  0.00     0.157 A
ENDROOT
BRANCH   2  14
HETATM   14  C5  UNL     1      38.804  -1.921  22.676  1.00  0.00     0.135 A
HETATM   15  N5  UNL     1      39.265  -0.815  22.077  1.00  0.00    -0.280 N
HETATM   16  N6  UNL     1      38.828   0.379  22.358  1.00  0.00    -0.131 N
ATOM     17  H5  UNL     1      39.992  -0.913  21.369  1.00  0.00     0.188 HD
HETATM   18  C6  UNL     1      37.872   0.562  23.281  1.00  0.00     0.701 A
ATOM     19  H6  UNL     1      39.218   1.185  21.869  1.00  0.00     0.205 HD
HETATM   20  N12 UNL     1      37.383  -0.502  23.900  1.00  0.00    -0.175 N
HETATM   21  C11 UNL     1      37.818  -1.761  23.629  1.00  0.00     0.163 A
ATOM     22  H12 UNL     1      36.657  -0.372  24.604  1.00  0.00     0.185 HD
HETATM   23  N13 UNL     1      37.267  -2.876  24.314  1.00  0.00    -0.080 NA
BRANCH  18  24
HETATM   24  N7  UNL     1      37.438   1.932  23.533  1.00  0.00    -0.172 N
BRANCH  24  25
HETATM   25  C7  UNL     1      36.132   2.062  24.085  1.00  0.00     0.174 C
BRANCH  25  26
HETATM   26  C8  UNL     1      36.091   2.364  25.546  1.00  0.00     0.185 C
BRANCH  26  27
HETATM   27  O2  UNL     1      36.881   1.402  26.188  1.00  0.00    -0.399 OA
ATOM     28  H2  UNL     1      37.422   1.862  26.819  1.00  0.00     0.209 HD
ENDBRANCH  26  27
ENDBRANCH  25  26
ENDBRANCH  24  25
BRANCH  24  29
HETATM   29  C9  UNL     1      38.380   2.950  23.260  1.00  0.00     0.247 C
BRANCH  29  30
HETATM   30  N8  UNL     1      39.383   3.131  24.253  1.00  0.00    -0.187 N
HETATM   31  N9  UNL     1      40.501   3.872  24.369  1.00  0.00    -0.250 N
HETATM   32  C10 UNL     1      40.789   3.360  25.568  1.00  0.00     0.225 A
ATOM     33  H9  UNL     1      40.955   4.562  23.770  1.00  0.00     0.192 HD
HETATM   34  N10 UNL     1      41.819   3.508  26.569  1.00  0.00    -0.060 NA
HETATM   35  N11 UNL     1      39.677   2.634  25.436  1.00  0.00    -0.250 N
ATOM     36  H11 UNL     1      39.221   1.944  26.034  1.00  0.00     0.192 HD
ENDBRANCH  29  30
ENDBRANCH  24  29
ENDBRANCH  18  24
ENDBRANCH   2  14
BRANCH   1  37
HETATM   37  C3  UNL     1      41.608  -3.323  23.289  1.00  0.00     0.283 C
BRANCH  37  38
HETATM   38  C2  UNL     1      41.461  -3.465  24.779  1.00  0.00     0.115 A
HETATM   39  N3  UNL     1      40.395  -3.914  25.430  1.00  0.00    -0.280 N
HETATM   40  N2  UNL     1      40.630  -3.905  26.753  1.00  0.00    -0.019 NA
ATOM     41  H3  UNL     1      39.526  -4.220  24.992  1.00  0.00     0.184 HD
HETATM   42  N1  UNL     1      41.873  -3.440  26.932  1.00  0.00    -0.265 N
HETATM   43  C1  UNL     1      42.565  -3.251  28.197  1.00  0.00     0.176 C
HETATM   44  C16 UNL     1      42.412  -3.159  25.712  1.00  0.00     0.159 A
HETATM   45  N19 UNL     1      43.707  -2.650  25.429  1.00  0.00    -0.079 NA
ENDBRANCH  37  38
BRANCH  37  46
HETATM   46  O1  UNL     1      41.840  -2.000  22.941  1.00  0.00    -0.370 OA
ATOM     47  H1  UNL     1      41.830  -1.893  21.997  1.00  0.00     0.212 HD
ENDBRANCH  37  46
ENDBRANCH   1  37
BRANCH  10  48
HETATM   48  N17 UNL     1      41.860  -8.265  21.523  1.00  0.00    -0.234 N
ATOM     49 2H17 UNL     1      42.740  -8.118  22.019  1.00  0.00     0.174 HD
ATOM     50 1H17 UNL     1      41.663  -9.139  21.036  1.00  0.00     0.174 HD
ENDBRANCH  10  48
TORSDOF 11
ENDMDL