MODEL 1
REMARK VINA RESULT: -6.606219324      0.000      0.000
REMARK  14 active torsions:
REMARK  status: ('A' for Active; 'I' for Inactive)
REMARK    1  A    between atoms: N1_1  and  C1_4
REMARK    2  A    between atoms: C2_7  and  N3_8
REMARK       I    between atoms: N4_11  and  C3_12
REMARK    3  A    between atoms: C3_12  and  C4_14
REMARK    4  A    between atoms: C4_14  and  N5_15
REMARK    5  A    between atoms: C5_20  and  C6_21
REMARK    6  A    between atoms: C9_24  and  C10_25
REMARK    7  A    between atoms: C10_25  and  O2_26
REMARK    8  A    between atoms: C11_28  and  C12_29
REMARK    9  A    between atoms: C12_29  and  O3_30
REMARK   10  A    between atoms: C12_29  and  O4_32
REMARK   11  A    between atoms: C15_38  and  N9_39
REMARK   12  A    between atoms: N9_39  and  O5_41
REMARK   13  A    between atoms: N10_43  and  N11_44
REMARK   14  A    between atoms: N12_49  and  O7_50
ROOT
HETATM    1  N5  UNL     1      39.902   1.957  18.783  1.00  0.00    -0.264 N
HETATM    2  N6  UNL     1      38.836   2.585  18.245  1.00  0.00    -0.239 N
ATOM      3  H6  UNL     1      38.672   2.695  17.245  1.00  0.00     0.208 HD
HETATM    4  N7  UNL     1      38.044   3.033  19.181  1.00  0.00    -0.282 N
ATOM      5  H7  UNL     1      37.175   3.540  19.014  1.00  0.00     0.188 HD
HETATM    6  C5  UNL     1      38.530   2.736  20.378  1.00  0.00     0.107 A
HETATM    7  C13 UNL     1      39.730   2.044  20.100  1.00  0.00     0.116 A
HETATM    8  C14 UNL     1      40.614   1.614  21.147  1.00  0.00     0.146 A
HETATM    9  C15 UNL     1      40.688   0.404  21.761  1.00  0.00     0.183 A
HETATM   10  N10 UNL     1      41.671   0.542  22.717  1.00  0.00    -0.189 N
HETATM   11  C16 UNL     1      42.155   1.794  22.663  1.00  0.00     0.374 A
HETATM   12  O6  UNL     1      43.085   2.243  23.428  1.00  0.00    -0.242 OA
HETATM   13  N12 UNL     1      41.526   2.481  21.707  1.00  0.00    -0.165 N
ENDROOT
BRANCH   1  14
HETATM   14  C4  UNL     1      40.884   1.317  17.929  1.00  0.00     0.256 C
BRANCH  14  15
HETATM   15  C3  UNL     1      40.788  -0.180  17.981  1.00  0.00     0.279 C
HETATM   16  N4  UNL     1      39.899  -0.909  17.185  1.00  0.00    -0.036 N
HETATM   17  C2  UNL     1      39.028  -0.605  16.233  1.00  0.00     0.715 A
HETATM   18  N13 UNL     1      39.825  -2.256  17.287  1.00  0.00    -0.108 N
HETATM   19  N2  UNL     1      38.423  -1.728  15.746  1.00  0.00    -0.020 N
HETATM   20  C1  UNL     1      38.939  -2.744  16.422  1.00  0.00     0.706 A
ATOM     21  H2  UNL     1      37.718  -1.776  15.010  1.00  0.00     0.203 HD
ATOM     22  H13 UNL     1      40.373  -2.820  17.937  1.00  0.00     0.207 HD
HETATM   23  O1  UNL     1      41.564  -0.730  18.791  1.00  0.00    -0.269 OA
BRANCH  17  24
HETATM   24  N3  UNL     1      38.748   0.584  15.782  1.00  0.00    -0.232 N
ATOM     25  H32 UNL     1      37.925   0.856  15.244  1.00  0.00     0.174 HD
ATOM     26  H31 UNL     1      39.362   1.383  15.940  1.00  0.00     0.174 HD
ENDBRANCH  17  24
BRANCH  20  27
HETATM   27  N1  UNL     1      38.678  -4.014  16.324  1.00  0.00    -0.233 N
ATOM     28  H12 UNL     1      37.918  -4.462  16.837  1.00  0.00     0.174 HD
ATOM     29  H11 UNL     1      39.144  -4.727  15.763  1.00  0.00     0.174 HD
ENDBRANCH  20  27
ENDBRANCH  14  15
ENDBRANCH   1  14
BRANCH   6  30
HETATM   30  C6  UNL     1      38.001   3.042  21.720  1.00  0.00     0.063 A
HETATM   31  C7  UNL     1      38.034   4.349  22.116  1.00  0.00     0.032 A
HETATM   32  C8  UNL     1      37.520   4.694  23.352  1.00  0.00     0.014 A
HETATM   33  C9  UNL     1      36.970   3.711  24.191  1.00  0.00    -0.007 A
HETATM   34  C11 UNL     1      36.954   2.406  23.765  1.00  0.00     0.073 A
HETATM   35  N8  UNL     1      37.475   2.156  22.544  1.00  0.00    -0.353 N
ATOM     36  H8  UNL     1      37.460   1.187  22.228  1.00  0.00     0.166 HD
BRANCH  33  37
HETATM   37  C10 UNL     1      36.420   4.073  25.513  1.00  0.00     0.205 C
BRANCH  37  38
HETATM   38  O2  UNL     1      35.365   4.977  25.273  1.00  0.00    -0.396 OA
ATOM     39  H2  UNL     1      35.051   5.258  26.125  1.00  0.00     0.209 HD
ENDBRANCH  37  38
ENDBRANCH  33  37
BRANCH  34  40
HETATM   40  C12 UNL     1      36.401   1.268  24.543  1.00  0.00     0.305 C
BRANCH  40  41
HETATM   41  O3  UNL     1      36.282   0.135  23.796  1.00  0.00    -0.366 OA
ATOM     42  H3  UNL     1      37.045  -0.024  23.254  1.00  0.00     0.213 HD
ENDBRANCH  40  41
BRANCH  40  43
HETATM   43  O4  UNL     1      37.237   1.009  25.631  1.00  0.00    -0.366 OA
ATOM     44  H4  UNL     1      36.788   0.431  26.236  1.00  0.00     0.213 HD
ENDBRANCH  40  43
ENDBRANCH  34  40
ENDBRANCH   6  30
BRANCH   9  45
HETATM   45  N9  UNL     1      40.008  -0.837  21.613  1.00  0.00    -0.249 N
ATOM     46  H9  UNL     1      40.453  -1.665  21.217  1.00  0.00     0.196 HD
BRANCH  45  47
HETATM   47  O5  UNL     1      38.723  -0.832  22.042  1.00  0.00    -0.288 OA
ATOM     48  H5  UNL     1      38.521  -1.493  22.694  1.00  0.00     0.244 HD
ENDBRANCH  45  47
ENDBRANCH   9  45
BRANCH  13  49
HETATM   49  O7  UNL     1      41.795   3.776  21.412  1.00  0.00    -0.278 OA
ATOM     50  H7  UNL     1      41.567   4.571  21.880  1.00  0.00     0.245 HD
ENDBRANCH  13  49
BRANCH  10  51
HETATM   51  N11 UNL     1      42.084  -0.450  23.600  1.00  0.00    -0.333 N
ATOM     52 2H11 UNL     1      42.307  -0.313  24.586  1.00  0.00     0.177 HD
ATOM     53 1H11 UNL     1      42.203  -1.437  23.370  1.00  0.00     0.177 HD
ENDBRANCH  10  51
TORSDOF 14
ENDMDL