MODEL 2
REMARK VINA RESULT: -6.864133483      3.125      5.685
REMARK  15 active torsions:
REMARK  status: ('A' for Active; 'I' for Inactive)
REMARK    1  A    between atoms: C2_2  and  C3_3
REMARK    2  A    between atoms: C2_2  and  N4_18
REMARK    3  A    between atoms: C3_3  and  O1_4
REMARK    4  A    between atoms: C3_3  and  C4_6
REMARK    5  A    between atoms: C4_6  and  N1_7
REMARK    6  A    between atoms: C6_11  and  S1_12
REMARK    7  A    between atoms: N4_18  and  O5_19
REMARK    8  A    between atoms: N4_18  and  C7_21
REMARK    9  A    between atoms: C7_21  and  C8_22
REMARK   10  A    between atoms: C7_21  and  C11_36
REMARK       I    between atoms: C8_22  and  N5_24
REMARK   11  A    between atoms: N5_24  and  C9_26
REMARK   12  A    between atoms: C11_36  and  N10_41
REMARK   13  A    between atoms: N9_37  and  O8_39
REMARK   14  A    between atoms: N10_41  and  O9_43
REMARK   15  A    between atoms: O9_43  and  C12_44
ROOT
HETATM    1  C7  UNL     1      38.231  -7.382  15.652  1.00  0.00     0.271 C
ENDROOT
BRANCH   1   2
HETATM    2  N4  UNL     1      38.847  -7.302  16.887  1.00  0.00    -0.268 N
BRANCH   2   3
HETATM    3  C2  UNL     1      38.341  -7.701  18.097  1.00  0.00     0.136 C
HETATM    4  C1  UNL     1      36.928  -8.019  18.346  1.00  0.00     0.037 C
BRANCH   3   5
HETATM    5  C3  UNL     1      38.753  -6.658  19.163  1.00  0.00     0.162 C
BRANCH   5   6
HETATM    6  O1  UNL     1      38.212  -5.418  18.833  1.00  0.00    -0.392 OA
ATOM      7  H1  UNL     1      38.187  -4.867  19.607  1.00  0.00     0.210 HD
ENDBRANCH   5   6
BRANCH   5   8
HETATM    8  C4  UNL     1      38.168  -7.027  20.506  1.00  0.00     0.183 C
BRANCH   8   9
HETATM    9  N1  UNL     1      38.379  -5.878  21.378  1.00  0.00    -0.283 N
HETATM   10  C5  UNL     1      39.486  -5.626  22.106  1.00  0.00     0.202 A
HETATM   11  N2  UNL     1      39.314  -4.474  22.789  1.00  0.00    -0.324 N
HETATM   12  C6  UNL     1      38.103  -4.002  22.492  1.00  0.00     0.241 A
ATOM     13  H2  UNL     1      39.990  -4.042  23.419  1.00  0.00     0.169 HD
HETATM   14  N3  UNL     1      37.556  -4.876  21.631  1.00  0.00    -0.271 N
ATOM     15  H3  UNL     1      36.625  -4.779  21.226  1.00  0.00     0.189 HD
BRANCH  12  16
HETATM   16  S1  UNL     1      37.437  -2.527  23.140  1.00  0.00     0.173 S
HETATM   17  O2  UNL     1      37.453  -2.588  24.657  1.00  0.00    -0.589 OA
HETATM   18  O3  UNL     1      35.985  -2.450  22.730  1.00  0.00    -0.589 OA
HETATM   19  O4  UNL     1      38.273  -1.192  22.602  1.00  0.00    -0.589 OA
ENDBRANCH  12  16
ENDBRANCH   8   9
ENDBRANCH   5   8
ENDBRANCH   3   5
ENDBRANCH   2   3
BRANCH   2  20
HETATM   20  O5  UNL     1      39.901  -6.439  16.944  1.00  0.00    -0.291 OA
ATOM     21  H5  UNL     1      39.721  -5.551  16.658  1.00  0.00     0.244 HD
ENDBRANCH   2  20
ENDBRANCH   1   2
BRANCH   1  22
HETATM   22  C8  UNL     1      38.885  -8.011  14.512  1.00  0.00     0.256 C
HETATM   23  O6  UNL     1      39.860  -7.528  13.910  1.00  0.00    -0.270 OA
HETATM   24  N5  UNL     1      38.401  -9.274  14.024  1.00  0.00    -0.306 N
ATOM     25  H5  UNL     1      37.603  -9.714  14.484  1.00  0.00     0.170 HD
BRANCH  24  26
HETATM   26  C9  UNL     1      39.006  -9.919  12.922  1.00  0.00     0.176 A
HETATM   27  N6  UNL     1      40.311 -10.256  12.813  1.00  0.00    -0.222 N
HETATM   28  O7  UNL     1      40.522 -10.838  11.665  1.00  0.00    -0.153 OA
ATOM     29  H6  UNL     1      41.024 -10.081  13.522  1.00  0.00     0.198 HD
HETATM   30  N7  UNL     1      39.380 -10.893  11.012  1.00  0.00    -0.222 N
HETATM   31  C10 UNL     1      38.420 -10.337  11.753  1.00  0.00     0.167 A
ATOM     32  H7  UNL     1      39.250 -11.298  10.085  1.00  0.00     0.198 HD
HETATM   33  N8  UNL     1      37.199 -10.229  11.409  1.00  0.00    -0.381 N
ATOM     34  H82 UNL     1      36.466  -9.803  11.976  1.00  0.00     0.157 HD
ATOM     35  H81 UNL     1      36.764 -10.539  10.540  1.00  0.00     0.157 HD
ENDBRANCH  24  26
ENDBRANCH   1  22
BRANCH   1  36
HETATM   36  C11 UNL     1      37.605  -6.051  15.236  1.00  0.00     0.156 C
HETATM   37  N9  UNL     1      37.360  -5.910  13.987  1.00  0.00    -0.253 N
ATOM     38  H9  UNL     1      37.578  -6.656  13.326  1.00  0.00     0.195 HD
BRANCH  37  39
HETATM   39  O8  UNL     1      36.800  -4.736  13.557  1.00  0.00    -0.288 OA
ATOM     40  H8  UNL     1      35.859  -4.628  13.628  1.00  0.00     0.244 HD
ENDBRANCH  37  39
BRANCH  36  41
HETATM   41  N10 UNL     1      37.325  -5.033  16.148  1.00  0.00    -0.241 N
ATOM     42  H10 UNL     1      36.430  -4.974  16.633  1.00  0.00     0.196 HD
BRANCH  41  43
HETATM   43  O9  UNL     1      38.341  -4.102  16.358  1.00  0.00    -0.197 OA
BRANCH  43  44
HETATM   44  C12 UNL     1      38.195  -2.767  16.026  1.00  0.00     0.273 A
HETATM   45  N11 UNL     1      37.227  -2.286  15.343  1.00  0.00    -0.248 N
HETATM   46  N12 UNL     1      37.400  -0.909  15.199  1.00  0.00    -0.006 NA
ATOM     47  H11 UNL     1      36.449  -2.825  14.962  1.00  0.00     0.187 HD
HETATM   48  N13 UNL     1      38.559  -0.507  15.885  1.00  0.00    -0.006 NA
HETATM   49  N14 UNL     1      39.076  -1.730  16.381  1.00  0.00    -0.248 N
ATOM     50  H14 UNL     1      39.943  -1.840  16.907  1.00  0.00     0.187 HD
ENDBRANCH  43  44
ENDBRANCH  41  43
ENDBRANCH  36  41
ENDBRANCH   1  36
TORSDOF 15
ENDMDL