MODEL 3
REMARK VINA RESULT: -7.413881597      2.638      5.248
REMARK  13 active torsions:
REMARK  status: ('A' for Active; 'I' for Inactive)
REMARK    1  A    between atoms: N4_9  and  N5_11
REMARK    2  A    between atoms: C7_17  and  C8_18
REMARK    3  A    between atoms: C8_18  and  O1_19
REMARK    4  A    between atoms: C8_18  and  N7_21
REMARK    5  A    between atoms: N7_21  and  C9_23
REMARK    6  A    between atoms: C13_27  and  N8_28
REMARK    7  A    between atoms: N10_34  and  N11_35
REMARK    8  A    between atoms: N11_35  and  C16_37
REMARK    9  A    between atoms: C16_37  and  C17_38
REMARK   10  A    between atoms: C17_38  and  O4_39
REMARK   11  A    between atoms: C17_38  and  O5_41
REMARK   12  A    between atoms: N12_43  and  N13_44
REMARK   13  A    between atoms: N14_47  and  N15_48
ROOT
HETATM    1  N1  UNL     1      35.364   2.539  25.797  1.00  0.00    -0.188 NA
HETATM    2  C1  UNL     1      36.112   2.083  25.056  1.00  0.00     0.141 C
HETATM    3  C2  UNL     1      37.048   1.503  24.127  1.00  0.00     0.241 A
HETATM    4  N2  UNL     1      36.912   0.351  23.445  1.00  0.00    -0.260 N
ATOM      5  H2  UNL     1      36.108  -0.274  23.500  1.00  0.00     0.190 HD
HETATM    6  N3  UNL     1      37.980   0.156  22.692  1.00  0.00    -0.127 N
ATOM      7  H3  UNL     1      38.132  -0.642  22.076  1.00  0.00     0.206 HD
HETATM    8  C3  UNL     1      38.837   1.178  22.870  1.00  0.00     0.736 A
HETATM    9  N4  UNL     1      40.005   1.344  22.297  1.00  0.00    -0.105 N
ATOM     10  H4  UNL     1      40.564   2.168  22.515  1.00  0.00     0.208 HD
HETATM   11  N14 UNL     1      38.255   1.998  23.750  1.00  0.00    -0.062 N
ENDROOT
BRANCH  11  12
HETATM   12  N15 UNL     1      38.800   3.183  24.217  1.00  0.00    -0.322 N
ATOM     13 2H15 UNL     1      39.038   3.988  23.637  1.00  0.00     0.178 HD
ATOM     14 1H15 UNL     1      39.021   3.374  25.194  1.00  0.00     0.178 HD
ENDBRANCH  11  12
BRANCH   9  15
HETATM   15  N5  UNL     1      40.487   0.392  21.386  1.00  0.00    -0.156 N
HETATM   16  C4  UNL     1      40.421   0.563  19.977  1.00  0.00     0.231 A
HETATM   17  N6  UNL     1      40.874  -0.333  19.167  1.00  0.00    -0.332 N
HETATM   18  C5  UNL     1      41.467  -1.541  19.641  1.00  0.00     0.159 A
ATOM     19  H6  UNL     1      40.807  -0.173  18.161  1.00  0.00     0.168 HD
HETATM   20  C6  UNL     1      41.549  -1.741  21.001  1.00  0.00     0.134 A
HETATM   21  N10 UNL     1      42.006  -2.607  18.997  1.00  0.00    -0.252 N
HETATM   22  C7  UNL     1      42.146  -2.946  21.178  1.00  0.00     0.042 A
HETATM   23  N12 UNL     1      41.059  -0.775  21.933  1.00  0.00    -0.176 N
HETATM   24  C15 UNL     1      42.423  -3.471  19.927  1.00  0.00     0.132 A
BRANCH  22  25
HETATM   25  C8  UNL     1      42.470  -3.648  22.430  1.00  0.00     0.256 C
BRANCH  25  26
HETATM   26  O1  UNL     1      43.302  -2.764  23.167  1.00  0.00    -0.372 OA
ATOM     27  H1  UNL     1      42.748  -2.035  23.420  1.00  0.00     0.212 HD
ENDBRANCH  25  26
BRANCH  25  28
HETATM   28  N7  UNL     1      41.278  -3.840  23.228  1.00  0.00    -0.358 N
ATOM     29  H7  UNL     1      41.314  -3.586  24.216  1.00  0.00     0.162 HD
BRANCH  28  30
HETATM   30  C9  UNL     1      40.064  -4.362  22.715  1.00  0.00     0.057 A
HETATM   31  C10 UNL     1      40.111  -5.468  21.925  1.00  0.00     0.031 A
HETATM   32  C11 UNL     1      38.921  -5.984  21.418  1.00  0.00     0.005 A
HETATM   33  C12 UNL     1      37.705  -5.404  21.697  1.00  0.00     0.038 A
HETATM   34  C13 UNL     1      37.651  -4.286  22.495  1.00  0.00     0.129 A
HETATM   35  C14 UNL     1      38.852  -3.780  22.996  1.00  0.00     0.105 A
HETATM   36  N9  UNL     1      38.833  -2.634  23.818  1.00  0.00    -0.097 NA
BRANCH  34  37
HETATM   37  N8  UNL     1      36.414  -3.667  22.800  1.00  0.00    -0.114 N
HETATM   38  O2  UNL     1      36.158  -2.471  22.580  1.00  0.00    -0.532 OA
HETATM   39  O3  UNL     1      35.436  -4.444  23.378  1.00  0.00    -0.532 OA
ENDBRANCH  34  37
ENDBRANCH  28  30
ENDBRANCH  25  28
ENDBRANCH  22  25
BRANCH  23  40
HETATM   40  N13 UNL     1      41.135  -0.958  23.313  1.00  0.00    -0.322 N
ATOM     41 2H13 UNL     1      41.430  -0.217  23.949  1.00  0.00     0.179 HD
ATOM     42 1H13 UNL     1      40.893  -1.853  23.739  1.00  0.00     0.179 HD
ENDBRANCH  23  40
BRANCH  21  43
HETATM   43  N11 UNL     1      42.080  -2.719  17.602  1.00  0.00    -0.324 N
ATOM     44  H11 UNL     1      42.729  -2.119  17.092  1.00  0.00     0.180 HD
BRANCH  43  45
HETATM   45  C16 UNL     1      41.274  -3.645  16.871  1.00  0.00     0.200 C
BRANCH  45  46
HETATM   46  C17 UNL     1      39.970  -3.006  16.458  1.00  0.00     0.273 C
BRANCH  46  47
HETATM   47  O4  UNL     1      40.151  -1.619  16.323  1.00  0.00    -0.370 OA
ATOM     48  H4  UNL     1      41.011  -1.446  15.958  1.00  0.00     0.212 HD
ENDBRANCH  46  47
BRANCH  46  49
HETATM   49  O5  UNL     1      38.954  -3.253  17.376  1.00  0.00    -0.370 OA
ATOM     50  H5  UNL     1      38.542  -2.452  17.676  1.00  0.00     0.212 HD
ENDBRANCH  46  49
ENDBRANCH  45  46
ENDBRANCH  43  45
ENDBRANCH  21  43
ENDBRANCH   9  15
TORSDOF 13
ENDMDL