MODEL 3
REMARK VINA RESULT: -7.440108494      4.173      7.297
REMARK  13 active torsions:
REMARK  status: ('A' for Active; 'I' for Inactive)
REMARK    1  A    between atoms: O1_2  and  C2_3
REMARK    2  A    between atoms: C2_3  and  C3_5
REMARK    3  A    between atoms: C5_10  and  C6_11
REMARK    4  A    between atoms: C6_11  and  O3_12
REMARK    5  A    between atoms: C6_11  and  N2_14
REMARK       I    between atoms: N2_14  and  C7_16
REMARK    6  A    between atoms: C7_16  and  C8_18
REMARK    7  A    between atoms: C8_18  and  N3_19
REMARK    8  A    between atoms: C8_18  and  C11_24
REMARK    9  A    between atoms: N3_19  and  O5_20
REMARK   10  A    between atoms: O5_20  and  C9_21
REMARK   11  A    between atoms: C12_27  and  C13_28
REMARK   12  A    between atoms: C14_31  and  C15_32
REMARK   13  A    between atoms: N7_33  and  O7_35
ROOT
HETATM    1  C8  UNL     1      38.836  -3.845  22.628  1.00  0.00     0.244 C
ENDROOT
BRANCH   1   2
HETATM    2  C7  UNL     1      38.315  -5.203  22.342  1.00  0.00     0.245 C
HETATM    3  N2  UNL     1      38.460  -5.858  21.096  1.00  0.00    -0.330 N
ATOM      4  H2  UNL     1      38.950  -5.384  20.336  1.00  0.00     0.165 HD
HETATM    5  O4  UNL     1      37.712  -5.798  23.264  1.00  0.00    -0.271 OA
BRANCH   3   6
HETATM    6  C6  UNL     1      37.932  -7.176  20.879  1.00  0.00     0.279 C
BRANCH   6   7
HETATM    7  C5  UNL     1      38.321  -7.768  19.548  1.00  0.00     0.431 C
HETATM    8  N1  UNL     1      37.409  -8.780  19.102  1.00  0.00    -0.039 N
HETATM    9  C4  UNL     1      36.968  -8.405  17.772  1.00  0.00     0.278 C
ATOM     10  H12 UNL     1      36.636  -8.935  19.751  1.00  0.00     0.279 HD
ATOM     11  H11 UNL     1      37.804  -9.720  19.143  1.00  0.00     0.279 HD
HETATM   12  C3  UNL     1      37.083  -6.908  17.802  1.00  0.00     0.312 C
HETATM   13  N9  UNL     1      38.276  -6.693  18.568  1.00  0.00    -0.027 N
ATOM     14  H92 UNL     1      39.120  -6.626  17.999  1.00  0.00     0.281 HD
ATOM     15  H91 UNL     1      38.332  -5.763  18.981  1.00  0.00     0.281 HD
BRANCH  12  16
HETATM   16  C2  UNL     1      37.170  -6.317  16.440  1.00  0.00     0.291 C
HETATM   17  O2  UNL     1      37.757  -6.877  15.499  1.00  0.00    -0.263 OA
BRANCH  16  18
HETATM   18  O1  UNL     1      36.569  -5.089  16.215  1.00  0.00    -0.325 OA
HETATM   19  C1  UNL     1      37.303  -3.930  15.822  1.00  0.00     0.213 C
ENDBRANCH  16  18
ENDBRANCH  12  16
ENDBRANCH   6   7
BRANCH   6  20
HETATM   20  O3  UNL     1      38.330  -8.074  21.882  1.00  0.00    -0.373 OA
ATOM     21  H3  UNL     1      38.580  -7.565  22.645  1.00  0.00     0.212 HD
ENDBRANCH   6  20
ENDBRANCH   3   6
ENDBRANCH   1   2
BRANCH   1  22
HETATM   22  N3  UNL     1      39.041  -3.066  21.451  1.00  0.00    -0.073 NA
BRANCH  22  23
HETATM   23  O5  UNL     1      40.203  -3.399  20.780  1.00  0.00    -0.206 OA
BRANCH  23  24
HETATM   24  C9  UNL     1      40.268  -3.458  19.396  1.00  0.00     0.273 C
HETATM   25  C10 UNL     1      41.411  -3.012  18.591  1.00  0.00     0.127 C
HETATM   26  O6  UNL     1      39.257  -3.937  18.809  1.00  0.00    -0.264 OA
ENDBRANCH  23  24
ENDBRANCH  22  23
ENDBRANCH   1  22
BRANCH   1  27
HETATM   27  C11 UNL     1      37.794  -3.145  23.476  1.00  0.00     0.263 C
HETATM   28  N4  UNL     1      36.571  -2.906  22.767  1.00  0.00    -0.111 NA
HETATM   29  N5  UNL     1      36.264  -1.546  22.929  1.00  0.00    -0.107 NA
HETATM   30  C12 UNL     1      37.192  -1.045  23.910  1.00  0.00     0.285 C
HETATM   31  O8  UNL     1      38.275  -1.917  23.921  1.00  0.00    -0.338 OA
BRANCH  30  32
HETATM   32  C13 UNL     1      37.621   0.365  23.550  1.00  0.00     0.088 A
HETATM   33  N6  UNL     1      37.941   0.713  22.348  1.00  0.00    -0.347 N
HETATM   34  C14 UNL     1      38.307   1.962  22.100  1.00  0.00     0.093 A
ATOM     35  H6  UNL     1      37.912   0.028  21.592  1.00  0.00     0.166 HD
HETATM   36  S1  UNL     1      38.197   2.690  23.637  1.00  0.00    -0.054 SA
HETATM   37  C16 UNL     1      37.675   1.321  24.530  1.00  0.00     0.115 A
HETATM   38  N8  UNL     1      37.370   1.187  25.936  1.00  0.00    -0.092 NA
BRANCH  34  39
HETATM   39  C15 UNL     1      38.710   2.560  20.807  1.00  0.00     0.151 C
HETATM   40  N7  UNL     1      37.886   2.524  19.838  1.00  0.00    -0.278 N
ATOM     41  H7  UNL     1      36.974   2.089  19.972  1.00  0.00     0.193 HD
BRANCH  40  42
HETATM   42  O7  UNL     1      38.201   3.055  18.630  1.00  0.00    -0.290 OA
ATOM     43  H7  UNL     1      38.167   3.993  18.482  1.00  0.00     0.244 HD
ENDBRANCH  40  42
ENDBRANCH  34  39
ENDBRANCH  30  32
ENDBRANCH   1  27
TORSDOF 13
ENDMDL