MODEL 1
REMARK VINA RESULT: -7.080795086      0.000      0.000
REMARK  12 active torsions:
REMARK  status: ('A' for Active; 'I' for Inactive)
REMARK    1  A    between atoms: N1_2  and  N2_3
REMARK    2  A    between atoms: N1_2  and  S1_45
REMARK    3  A    between atoms: C2_8  and  C3_9
REMARK    4  A    between atoms: C3_9  and  O1_10
REMARK    5  A    between atoms: C3_9  and  N5_12
REMARK    6  A    between atoms: N5_12  and  C4_14
REMARK    7  A    between atoms: C9_21  and  O4_22
REMARK    8  A    between atoms: O4_22  and  C10_23
REMARK    9  A    between atoms: C11_26  and  N7_27
REMARK   10  A    between atoms: N8_30  and  O5_31
REMARK   11  A    between atoms: C13_41  and  C14_42
REMARK   12  A    between atoms: C14_42  and  O6_43
ROOT
HETATM    1  C4  UNL     1      38.411  -9.103  17.897  1.00  0.00     0.070 A
HETATM    2  C5  UNL     1      37.896 -10.302  18.399  1.00  0.00     0.176 A
HETATM    3  O2  UNL     1      37.566 -11.292  17.615  1.00  0.00    -0.284 OA
HETATM    4  C6  UNL     1      37.696 -11.226  16.315  1.00  0.00     0.315 A
HETATM    5  O3  UNL     1      37.384 -12.164  15.540  1.00  0.00    -0.257 OA
HETATM    6  C7  UNL     1      38.204 -10.058  15.751  1.00  0.00     0.118 A
HETATM    7  C8  UNL     1      38.565  -8.987  16.551  1.00  0.00     0.059 A
HETATM    8  C9  UNL     1      39.091  -7.811  15.841  1.00  0.00     0.370 C
HETATM    9  N10 UNL     1      40.044  -8.277  14.840  1.00  0.00    -0.028 N
ATOM     10 1H10 UNL     1      40.835  -8.748  15.280  1.00  0.00     0.282 HD
ATOM     11 2H10 UNL     1      40.536  -7.494  14.410  1.00  0.00     0.282 HD
HETATM   12  C12 UNL     1      39.437  -9.111  13.846  1.00  0.00     0.358 C
HETATM   13  N11 UNL     1      38.358  -9.918  14.354  1.00  0.00    -0.361 N
ATOM     14  H11 UNL     1      37.714 -10.381  13.714  1.00  0.00     0.161 HD
ENDROOT
BRANCH   1  15
HETATM   15  N5  UNL     1      38.772  -8.035  18.749  1.00  0.00    -0.333 N
ATOM     16  H5  UNL     1      39.659  -8.123  19.244  1.00  0.00     0.168 HD
BRANCH  15  17
HETATM   17  C3  UNL     1      38.028  -6.862  18.983  1.00  0.00     0.171 C
BRANCH  17  18
HETATM   18  C2  UNL     1      37.993  -6.193  20.251  1.00  0.00     0.129 A
HETATM   19  N4  UNL     1      37.182  -6.688  21.256  1.00  0.00    -0.279 N
HETATM   20  N3  UNL     1      37.311  -5.946  22.298  1.00  0.00    -0.220 N
ATOM     21  H4  UNL     1      36.580  -7.508  21.183  1.00  0.00     0.189 HD
HETATM   22  N2  UNL     1      38.183  -4.950  22.055  1.00  0.00    -0.169 N
ATOM     23  H3  UNL     1      36.822  -6.090  23.182  1.00  0.00     0.210 HD
HETATM   24  C13 UNL     1      38.609  -5.097  20.786  1.00  0.00     0.110 A
BRANCH  22  25
HETATM   25  N1  UNL     1      38.537  -3.964  22.990  1.00  0.00    -0.181 N
HETATM   26  C1  UNL     1      39.809  -3.949  23.677  1.00  0.00     0.196 C
BRANCH  25  27
HETATM   27  S1  UNL     1      37.410  -2.698  23.284  1.00  0.00     0.227 S
HETATM   28  O7  UNL     1      36.024  -3.182  22.872  1.00  0.00    -0.577 OA
HETATM   29  O8  UNL     1      37.324  -2.514  24.786  1.00  0.00    -0.577 OA
HETATM   30  O9  UNL     1      37.781  -1.265  22.546  1.00  0.00    -0.577 OA
ENDBRANCH  25  27
ENDBRANCH  22  25
BRANCH  24  31
HETATM   31  C14 UNL     1      39.557  -4.237  20.075  1.00  0.00     0.227 C
BRANCH  31  32
HETATM   32  O6  UNL     1      39.120  -3.861  18.783  1.00  0.00    -0.395 OA
ATOM     33  H6  UNL     1      39.815  -3.851  18.135  1.00  0.00     0.209 HD
ENDBRANCH  31  32
ENDBRANCH  24  31
ENDBRANCH  17  18
BRANCH  17  34
HETATM   34  O1  UNL     1      36.720  -6.891  18.404  1.00  0.00    -0.344 OA
ATOM     35  H1  UNL     1      36.173  -6.222  18.797  1.00  0.00     0.219 HD
ENDBRANCH  17  34
ENDBRANCH  15  17
ENDBRANCH   1  15
BRANCH   8  36
HETATM   36  O4  UNL     1      37.994  -7.277  15.080  1.00  0.00    -0.281 OA
BRANCH  36  37
HETATM   37  C10 UNL     1      37.773  -5.905  15.017  1.00  0.00     0.257 A
HETATM   38  N6  UNL     1      37.200  -5.269  13.977  1.00  0.00    -0.150 N
HETATM   39  C11 UNL     1      37.156  -3.966  14.276  1.00  0.00     0.721 A
ATOM     40  H6  UNL     1      36.860  -5.702  13.119  1.00  0.00     0.188 HD
HETATM   41  N8  UNL     1      37.693  -3.772  15.490  1.00  0.00     0.019 N
HETATM   42  N9  UNL     1      38.061  -4.963  15.922  1.00  0.00    -0.223 N
ATOM     43  H9  UNL     1      38.504  -5.141  16.823  1.00  0.00     0.193 HD
BRANCH  39  44
HETATM   44  N7  UNL     1      36.680  -2.992  13.545  1.00  0.00    -0.231 N
ATOM     45  H72 UNL     1      35.701  -2.708  13.569  1.00  0.00     0.174 HD
ATOM     46  H71 UNL     1      37.185  -2.405  12.881  1.00  0.00     0.174 HD
ENDBRANCH  39  44
BRANCH  41  47
HETATM   47  O5  UNL     1      37.814  -2.551  16.124  1.00  0.00    -0.254 OA
ATOM     48  H5  UNL     1      38.589  -2.002  16.116  1.00  0.00     0.247 HD
ENDBRANCH  41  47
ENDBRANCH  36  37
ENDBRANCH   8  36
TORSDOF 12
ENDMDL