MODEL 4
REMARK VINA RESULT: -6.972492254      1.276      1.868
REMARK  18 active torsions:
REMARK  status: ('A' for Active; 'I' for Inactive)
REMARK    1  A    between atoms: C3_4  and  C4_5
REMARK    2  A    between atoms: C4_5  and  N1_6
REMARK    3  A    between atoms: C4_5  and  C5_10
REMARK    4  A    between atoms: C5_10  and  O3_12
REMARK    5  A    between atoms: O3_12  and  N2_13
REMARK    6  A    between atoms: N2_13  and  C6_14
REMARK    7  A    between atoms: C6_14  and  C7_15
REMARK    8  A    between atoms: C6_14  and  C13_39
REMARK    9  A    between atoms: C7_15  and  C8_17
REMARK   10  A    between atoms: C8_17  and  O5_18
REMARK   11  A    between atoms: C8_17  and  N3_20
REMARK   12  A    between atoms: C9_22  and  O6_23
REMARK   13  A    between atoms: C9_22  and  N4_25
REMARK   14  A    between atoms: C10_28  and  C11_29
REMARK   15  A    between atoms: C11_29  and  O7_30
REMARK   16  A    between atoms: C11_29  and  O8_32
REMARK   17  A    between atoms: C13_39  and  N7_41
REMARK   18  A    between atoms: C17_48  and  O10_49
ROOT
HETATM    1  C6  UNL     1      39.087  -4.589  21.981  1.00  0.00     0.211 C
ENDROOT
BRANCH   1   2
HETATM    2  N2  UNL     1      39.180  -3.536  20.909  1.00  0.00    -0.076 NA
BRANCH   2   3
HETATM    3  O3  UNL     1      39.048  -4.239  19.740  1.00  0.00    -0.204 OA
BRANCH   3   4
HETATM    4  C5  UNL     1      40.093  -4.342  18.816  1.00  0.00     0.314 C
HETATM    5  O2  UNL     1      40.858  -5.327  18.994  1.00  0.00    -0.261 OA
BRANCH   4   6
HETATM    6  C4  UNL     1      40.295  -3.392  17.729  1.00  0.00     0.340 C
BRANCH   6   7
HETATM    7  C3  UNL     1      39.292  -3.533  16.646  1.00  0.00     0.097 A
HETATM    8  O1  UNL     1      39.169  -4.710  16.033  1.00  0.00    -0.314 OA
HETATM    9  C2  UNL     1      38.319  -4.934  15.069  1.00  0.00     0.086 A
HETATM   10  C1  UNL     1      38.234  -6.275  14.430  1.00  0.00     0.079 C
HETATM   11  C17 UNL     1      37.460  -3.958  14.594  1.00  0.00     0.145 A
HETATM   12  C16 UNL     1      37.533  -2.718  15.180  1.00  0.00     0.209 A
HETATM   13  C15 UNL     1      38.459  -2.540  16.203  1.00  0.00     0.093 A
HETATM   14  O9  UNL     1      36.782  -1.796  14.793  1.00  0.00    -0.285 OA
BRANCH  11  15
HETATM   15  O10 UNL     1      36.547  -4.216  13.553  1.00  0.00    -0.355 OA
ATOM     16  H10 UNL     1      36.806  -4.179  12.640  1.00  0.00     0.218 HD
ENDBRANCH  11  15
ENDBRANCH   6   7
BRANCH   6  17
HETATM   17  N1  UNL     1      40.218  -2.007  18.176  1.00  0.00    -0.060 N
ATOM     18  H13 UNL     1      40.367  -1.330  17.427  1.00  0.00     0.275 HD
ATOM     19  H12 UNL     1      39.273  -1.712  18.423  1.00  0.00     0.275 HD
ATOM     20  H11 UNL     1      40.885  -1.918  18.942  1.00  0.00     0.275 HD
ENDBRANCH   6  17
ENDBRANCH   4   6
ENDBRANCH   3   4
ENDBRANCH   2   3
ENDBRANCH   1   2
BRANCH   1  21
HETATM   21  C7  UNL     1      38.679  -3.941  23.213  1.00  0.00     0.198 C
HETATM   22  O4  UNL     1      39.188  -4.392  24.262  1.00  0.00    -0.291 OA
BRANCH  21  23
HETATM   23  C8  UNL     1      37.749  -2.837  23.391  1.00  0.00     0.293 C
BRANCH  23  24
HETATM   24  O5  UNL     1      37.429  -2.778  24.792  1.00  0.00    -0.369 OA
ATOM     25  H5  UNL     1      37.382  -1.859  25.028  1.00  0.00     0.212 HD
ENDBRANCH  23  24
BRANCH  23  26
HETATM   26  N3  UNL     1      38.344  -1.515  23.071  1.00  0.00    -0.322 N
HETATM   27  C9  UNL     1      37.636  -0.448  23.192  1.00  0.00     0.243 C
ATOM     28  H3  UNL     1      39.313  -1.453  22.757  1.00  0.00     0.166 HD
BRANCH  27  29
HETATM   29  O6  UNL     1      36.335  -0.571  23.617  1.00  0.00    -0.331 OA
ATOM     30  H6  UNL     1      35.642  -0.530  22.969  1.00  0.00     0.221 HD
ENDBRANCH  27  29
BRANCH  27  31
HETATM   31  N4  UNL     1      38.221   0.851  22.878  1.00  0.00    -0.196 N
HETATM   32  N5  UNL     1      38.351   1.251  21.678  1.00  0.00    -0.281 N
HETATM   33  C10 UNL     1      38.885   2.434  21.422  1.00  0.00     0.125 A
ATOM     34  H5  UNL     1      38.042   0.657  20.909  1.00  0.00     0.188 HD
HETATM   35  S1  UNL     1      39.219   3.003  22.997  1.00  0.00    -0.033 SA
HETATM   36  C12 UNL     1      38.636   1.653  23.866  1.00  0.00     0.169 A
HETATM   37  N6  UNL     1      38.588   1.425  25.160  1.00  0.00    -0.378 N
ATOM     38  H62 UNL     1      38.240   0.618  25.679  1.00  0.00     0.158 HD
ATOM     39  H61 UNL     1      38.905   2.036  25.913  1.00  0.00     0.158 HD
BRANCH  33  40
HETATM   40  C11 UNL     1      39.128   3.092  20.088  1.00  0.00     0.314 C
BRANCH  40  41
HETATM   41  O7  UNL     1      39.258   4.454  20.215  1.00  0.00    -0.365 OA
ATOM     42  H7  UNL     1      38.505   4.910  19.858  1.00  0.00     0.213 HD
ENDBRANCH  40  41
BRANCH  40  43
HETATM   43  O8  UNL     1      37.995   2.767  19.314  1.00  0.00    -0.365 OA
ATOM     44  H8  UNL     1      38.163   1.888  18.995  1.00  0.00     0.213 HD
ENDBRANCH  40  43
ENDBRANCH  33  40
ENDBRANCH  27  31
ENDBRANCH  23  26
ENDBRANCH  21  23
ENDBRANCH   1  21
BRANCH   1  45
HETATM   45  C13 UNL     1      38.294  -5.672  21.387  1.00  0.00     0.208 C
HETATM   46  C14 UNL     1      38.799  -7.045  21.640  1.00  0.00     0.042 C
BRANCH  45  47
HETATM   47  N7  UNL     1      36.890  -5.640  21.790  1.00  0.00    -0.073 N
ATOM     48  H73 UNL     1      36.726  -6.255  22.586  1.00  0.00     0.274 HD
ATOM     49  H72 UNL     1      36.656  -4.745  22.219  1.00  0.00     0.274 HD
ATOM     50  H71 UNL     1      36.251  -5.856  21.026  1.00  0.00     0.274 HD
ENDBRANCH  45  47
ENDBRANCH   1  45
TORSDOF 18
ENDMDL