MODEL 1
REMARK VINA RESULT: -5.785132857      0.000      0.000
REMARK  13 active torsions:
REMARK  status: ('A' for Active; 'I' for Inactive)
REMARK    1  A    between atoms: N1_1  and  N2_4
REMARK    2  A    between atoms: N2_4  and  C1_6
REMARK    3  A    between atoms: C1_6  and  O1_7
REMARK    4  A    between atoms: C1_6  and  C2_9
REMARK    5  A    between atoms: N6_16  and  C3_17
REMARK    6  A    between atoms: C4_18  and  C5_19
REMARK    7  A    between atoms: C5_19  and  O2_20
REMARK    8  A    between atoms: C5_19  and  N7_22
REMARK    9  A    between atoms: N7_22  and  C6_24
REMARK   10  A    between atoms: C6_24  and  C7_25
REMARK   11  A    between atoms: C9_30  and  C10_31
REMARK   12  A    between atoms: N8_34  and  N9_35
REMARK       I    between atoms: N9_35  and  C11_37
REMARK   13  A    between atoms: N11_42  and  N12_43
ROOT
HETATM    1  C3  UNL     1      38.945   2.116  23.057  1.00  0.00     0.185 A
HETATM    2  C4  UNL     1      40.158   2.195  23.828  1.00  0.00     0.135 A
HETATM    3  N8  UNL     1      40.786   3.336  23.573  1.00  0.00    -0.196 N
HETATM    4  C12 UNL     1      39.980   3.997  22.650  1.00  0.00     0.368 A
HETATM    5  O6  UNL     1      40.174   5.108  22.130  1.00  0.00    -0.243 OA
HETATM    6  N11 UNL     1      38.906   3.239  22.375  1.00  0.00    -0.190 N
ENDROOT
BRANCH   1   7
HETATM    7  N6  UNL     1      38.042   1.040  23.143  1.00  0.00    -0.202 N
HETATM    8  C2  UNL     1      37.117   0.870  24.073  1.00  0.00     0.173 A
HETATM    9  N3  UNL     1      36.485  -0.324  23.808  1.00  0.00    -0.268 N
HETATM   10  N4  UNL     1      37.037  -0.841  22.731  1.00  0.00    -0.226 N
ATOM     11  H3  UNL     1      35.724  -0.736  24.350  1.00  0.00     0.190 HD
HETATM   12  N5  UNL     1      37.968  -0.028  22.330  1.00  0.00    -0.218 N
ATOM     13  H4  UNL     1      36.779  -1.723  22.288  1.00  0.00     0.210 HD
ATOM     14  H5  UNL     1      38.559  -0.179  21.513  1.00  0.00     0.210 HD
BRANCH   8  15
HETATM   15  C1  UNL     1      36.744   1.696  25.206  1.00  0.00     0.304 C
BRANCH  15  16
HETATM   16  N2  UNL     1      36.315   3.013  24.882  1.00  0.00    -0.307 N
ATOM     17  H2  UNL     1      36.378   3.367  23.927  1.00  0.00     0.183 HD
BRANCH  16  18
HETATM   18  N1  UNL     1      35.812   3.797  25.899  1.00  0.00    -0.347 N
ATOM     19  H12 UNL     1      35.480   3.365  26.762  1.00  0.00     0.176 HD
ATOM     20  H11 UNL     1      35.786   4.806  25.756  1.00  0.00     0.176 HD
ENDBRANCH  16  18
ENDBRANCH  15  16
BRANCH  15  21
HETATM   21  O1  UNL     1      37.642   1.645  26.278  1.00  0.00    -0.368 OA
ATOM     22  H1  UNL     1      37.457   0.949  26.899  1.00  0.00     0.212 HD
ENDBRANCH  15  21
ENDBRANCH   8  15
ENDBRANCH   1   7
BRANCH   2  23
HETATM   23  C5  UNL     1      40.476   1.087  24.731  1.00  0.00     0.271 C
BRANCH  23  24
HETATM   24  O2  UNL     1      40.768   1.608  26.038  1.00  0.00    -0.371 OA
ATOM     25  H2  UNL     1      40.000   1.520  26.590  1.00  0.00     0.212 HD
ENDBRANCH  23  24
BRANCH  23  26
HETATM   26  N7  UNL     1      41.532   0.208  24.463  1.00  0.00    -0.388 N
ATOM     27  H7  UNL     1      42.438   0.570  24.164  1.00  0.00     0.156 HD
BRANCH  26  28
HETATM   28  C6  UNL     1      41.332  -1.200  24.611  1.00  0.00     0.165 C
BRANCH  28  29
HETATM   29  C7  UNL     1      40.845  -1.760  23.242  1.00  0.00     0.026 A
HETATM   30  S1  UNL     1      41.573  -1.185  21.813  1.00  0.00    -0.053 SA
HETATM   31  S2  UNL     1      40.637  -2.549  20.566  1.00  0.00    -0.040 SA
HETATM   32  C8  UNL     1      39.789  -3.292  21.825  1.00  0.00     0.096 A
HETATM   33  S3  UNL     1      38.782  -4.601  21.493  1.00  0.00    -0.070 SA
HETATM   34  C9  UNL     1      39.990  -2.801  23.090  1.00  0.00     0.084 A
BRANCH  34  35
HETATM   35  C10 UNL     1      39.278  -3.384  24.277  1.00  0.00     0.212 C
HETATM   36  O3  UNL     1      39.750  -4.336  24.929  1.00  0.00    -0.644 OA
HETATM   37  O4  UNL     1      38.059  -2.832  24.656  1.00  0.00    -0.644 OA
ENDBRANCH  34  35
ENDBRANCH  28  29
ENDBRANCH  26  28
ENDBRANCH  23  26
ENDBRANCH   2  23
BRANCH   6  38
HETATM   38  N12 UNL     1      37.873   3.588  21.483  1.00  0.00    -0.333 N
ATOM     39 2H12 UNL     1      36.983   4.010  21.750  1.00  0.00     0.177 HD
ATOM     40 1H12 UNL     1      37.915   3.449  20.474  1.00  0.00     0.177 HD
ENDBRANCH   6  38
BRANCH   3  41
HETATM   41  N9  UNL     1      41.998   3.889  23.927  1.00  0.00    -0.243 N
HETATM   42  C11 UNL     1      43.135   3.621  24.590  1.00  0.00     0.347 C
HETATM   43  N10 UNL     1      44.235   4.600  24.708  1.00  0.00    -0.038 NA
HETATM   44  O5  UNL     1      43.509   2.583  25.220  1.00  0.00    -0.249 OA
ATOM     45  H9  UNL     1      42.050   4.836  23.554  1.00  0.00     0.192 HD
ENDBRANCH   3  41
TORSDOF 13
ENDMDL