MODEL 1
REMARK VINA RESULT: -6.714309032      0.000      0.000
REMARK  11 active torsions:
REMARK  status: ('A' for Active; 'I' for Inactive)
REMARK    1  A    between atoms: C2_2  and  O1_3
REMARK    2  A    between atoms: C2_2  and  C4_7
REMARK       I    between atoms: C4_7  and  N2_9
REMARK    3  A    between atoms: N2_9  and  N3_11
REMARK    4  A    between atoms: N3_11  and  N4_13
REMARK    5  A    between atoms: N4_13  and  C5_15
REMARK    6  A    between atoms: C6_16  and  C7_17
REMARK    7  A    between atoms: C7_17  and  O3_18
REMARK    8  A    between atoms: C7_17  and  N5_20
REMARK    9  A    between atoms: N5_20  and  N6_22
REMARK       I    between atoms: N6_22  and  C8_24
REMARK       I    between atoms: C8_24  and  N7_25
REMARK       I    between atoms: C8_24  and  N12_35
REMARK   10  A    between atoms: N7_25  and  N8_27
REMARK   11  A    between atoms: C11_41  and  N15_42
ROOT
HETATM    1  C1  UNL     1      36.924  -8.699  19.488  1.00  0.00     0.073 C
HETATM    2  C2  UNL     1      37.951  -7.802  18.794  1.00  0.00     0.225 C
HETATM    3  C3  UNL     1      37.616  -7.703  17.384  1.00  0.00     0.107 C
HETATM    4  N1  UNL     1      37.330  -7.618  16.267  1.00  0.00    -0.193 NA
ENDROOT
BRANCH   2   5
HETATM    5  O1  UNL     1      39.194  -8.415  18.964  1.00  0.00    -0.368 OA
ATOM      6  H1  UNL     1      39.832  -7.715  19.048  1.00  0.00     0.212 HD
ENDBRANCH   2   5
BRANCH   2   7
HETATM    7  C4  UNL     1      37.898  -6.478  19.464  1.00  0.00     0.286 C
HETATM    8  O2  UNL     1      38.249  -5.483  18.781  1.00  0.00    -0.267 OA
HETATM    9  N2  UNL     1      37.483  -6.292  20.793  1.00  0.00    -0.252 N
ATOM     10  H2  UNL     1      37.195  -7.094  21.354  1.00  0.00     0.191 HD
BRANCH   9  11
HETATM   11  N3  UNL     1      37.462  -5.013  21.347  1.00  0.00    -0.239 N
ATOM     12  H3  UNL     1      36.865  -4.283  20.957  1.00  0.00     0.208 HD
BRANCH  11  13
HETATM   13  N4  UNL     1      38.201  -4.784  22.344  1.00  0.00    -0.281 N
ATOM     14  H4  UNL     1      38.360  -5.527  23.024  1.00  0.00     0.188 HD
BRANCH  13  15
HETATM   15  C5  UNL     1      38.822  -3.517  22.549  1.00  0.00     0.120 A
HETATM   16  C6  UNL     1      39.895  -2.964  21.879  1.00  0.00     0.106 A
HETATM   17  N18 UNL     1      40.095  -1.768  22.438  1.00  0.00    -0.297 N
HETATM   18  N19 UNL     1      39.208  -1.559  23.409  1.00  0.00    -0.285 N
ATOM     19  H18 UNL     1      40.822  -1.109  22.162  1.00  0.00     0.187 HD
HETATM   20  C14 UNL     1      38.386  -2.621  23.522  1.00  0.00     0.161 A
ATOM     21  H19 UNL     1      39.159  -0.718  23.984  1.00  0.00     0.188 HD
HETATM   22  N20 UNL     1      37.301  -2.803  24.437  1.00  0.00    -0.079 NA
BRANCH  16  23
HETATM   23  C7  UNL     1      40.601  -3.653  20.778  1.00  0.00     0.288 C
BRANCH  23  24
HETATM   24  O3  UNL     1      40.548  -5.056  20.935  1.00  0.00    -0.370 OA
ATOM     25  H3  UNL     1      39.769  -5.418  20.529  1.00  0.00     0.212 HD
ENDBRANCH  23  24
BRANCH  23  26
HETATM   26  N5  UNL     1      39.963  -3.387  19.492  1.00  0.00    -0.288 N
ATOM     27  H5  UNL     1      39.210  -3.975  19.132  1.00  0.00     0.184 HD
BRANCH  26  28
HETATM   28  N6  UNL     1      40.439  -2.281  18.780  1.00  0.00    -0.131 N
HETATM   29  C8  UNL     1      40.444  -2.209  17.504  1.00  0.00     0.737 C
HETATM   30  N7  UNL     1      40.951  -1.038  16.890  1.00  0.00    -0.105 N
HETATM   31  N12 UNL     1      39.945  -3.296  16.738  1.00  0.00    -0.050 N
ATOM     32  H7  UNL     1      41.647  -1.141  16.153  1.00  0.00     0.208 HD
HETATM   33  N13 UNL     1      40.364  -4.519  16.590  1.00  0.00    -0.219 N
HETATM   34  C13 UNL     1      38.825  -3.178  15.965  1.00  0.00     0.180 A
HETATM   35  N14 UNL     1      39.572  -5.208  15.757  1.00  0.00    -0.278 N
ATOM     36  H13 UNL     1      41.189  -4.903  17.049  1.00  0.00     0.209 HD
HETATM   37  C10 UNL     1      38.591  -4.396  15.343  1.00  0.00     0.140 A
ATOM     38  H14 UNL     1      39.695  -6.183  15.486  1.00  0.00     0.189 HD
HETATM   39  C11 UNL     1      37.488  -4.474  14.510  1.00  0.00     0.132 A
HETATM   40  N16 UNL     1      36.684  -3.416  14.316  1.00  0.00    -0.337 N
HETATM   41  C12 UNL     1      36.923  -2.248  14.922  1.00  0.00     0.183 A
ATOM     42  H16 UNL     1      35.877  -3.504  13.696  1.00  0.00     0.168 HD
HETATM   43  N17 UNL     1      37.992  -2.153  15.737  1.00  0.00    -0.335 N
ATOM     44  H17 UNL     1      38.174  -1.263  16.200  1.00  0.00     0.168 HD
ATOM     45  H6  UNL     1      40.803  -1.488  19.308  1.00  0.00     0.205 HD
BRANCH  30  46
HETATM   46  N8  UNL     1      40.547   0.249  17.243  1.00  0.00    -0.161 N
HETATM   47  C9  UNL     1      41.219   1.127  18.036  1.00  0.00     0.246 A
HETATM   48  N9  UNL     1      40.515   2.272  18.148  1.00  0.00    -0.277 N
HETATM   49  N10 UNL     1      39.427   2.094  17.431  1.00  0.00    -0.226 N
ATOM     50  H9  UNL     1      40.772   3.104  18.680  1.00  0.00     0.189 HD
HETATM   51  N11 UNL     1      39.443   0.877  16.885  1.00  0.00    -0.205 N
ATOM     52  H10 UNL     1      38.684   2.782  17.310  1.00  0.00     0.210 HD
ATOM     53  H11 UNL     1      38.715   0.491  16.284  1.00  0.00     0.212 HD
ENDBRANCH  30  46
BRANCH  39  54
HETATM   54  N15 UNL     1      37.256  -5.601  13.923  1.00  0.00    -0.383 N
ATOM     55 2H15 UNL     1      36.382  -6.104  14.076  1.00  0.00     0.157 HD
ATOM     56 1H15 UNL     1      37.977  -5.970  13.303  1.00  0.00     0.157 HD
ENDBRANCH  39  54
ENDBRANCH  26  28
ENDBRANCH  23  26
ENDBRANCH  16  23
ENDBRANCH  13  15
ENDBRANCH  11  13
ENDBRANCH   9  11
ENDBRANCH   2   7
TORSDOF 11
ENDMDL