MODEL 5
REMARK VINA RESULT: -6.708392865      2.820      6.272
REMARK  15 active torsions:
REMARK  status: ('A' for Active; 'I' for Inactive)
REMARK    1  A    between atoms: N1_1  and  C1_4
REMARK    2  A    between atoms: C2_10  and  N4_11
REMARK    3  A    between atoms: N4_11  and  C3_13
REMARK    4  A    between atoms: C5_15  and  O2_16
REMARK    5  A    between atoms: N5_18  and  C6_19
REMARK    6  A    between atoms: C7_22  and  C8_23
REMARK    7  A    between atoms: N7_25  and  C10_26
REMARK    8  A    between atoms: C11_32  and  N10_33
REMARK    9  A    between atoms: N14_42  and  C12_43
REMARK   10  A    between atoms: C12_43  and  C13_44
REMARK   11  A    between atoms: C13_44  and  O4_45
REMARK   12  A    between atoms: C13_44  and  C14_47
REMARK   13  A    between atoms: C14_47  and  O5_48
REMARK   14  A    between atoms: C14_47  and  C15_50
REMARK   15  A    between atoms: C15_50  and  O6_51
ROOT
HETATM    1  C6  UNL     1      39.203  -2.353  22.940  1.00  0.00     0.724 A
HETATM    2  N6  UNL     1      38.662  -1.099  22.905  1.00  0.00    -0.170 N
ATOM      3  H6  UNL     1      37.807  -0.841  22.413  1.00  0.00     0.186 HD
HETATM    4  C7  UNL     1      39.429  -0.257  23.620  1.00  0.00     0.166 A
HETATM    5  N13 UNL     1      40.426  -0.995  24.085  1.00  0.00    -0.266 N
ATOM      6  H13 UNL     1      41.183  -0.644  24.670  1.00  0.00     0.189 HD
HETATM    7  N14 UNL     1      40.300  -2.267  23.679  1.00  0.00    -0.118 N
ENDROOT
BRANCH   1   8
HETATM    8  N5  UNL     1      38.697  -3.519  22.307  1.00  0.00    -0.060 N
HETATM    9  C5  UNL     1      37.497  -4.079  22.596  1.00  0.00     0.183 A
HETATM   10  C4  UNL     1      37.306  -5.194  21.807  1.00  0.00     0.108 A
HETATM   11  C3  UNL     1      38.435  -5.296  21.024  1.00  0.00     0.126 A
HETATM   12  N15 UNL     1      39.236  -4.268  21.364  1.00  0.00    -0.262 N
ATOM     13  H15 UNL     1      40.148  -4.090  20.943  1.00  0.00     0.190 HD
BRANCH   9  14
HETATM   14  O2  UNL     1      36.570  -3.639  23.531  1.00  0.00    -0.344 OA
ATOM     15  H2  UNL     1      36.750  -3.591  24.463  1.00  0.00     0.219 HD
ENDBRANCH   9  14
BRANCH  11  16
HETATM   16  N4  UNL     1      38.626  -6.221  20.153  1.00  0.00    -0.323 N
ATOM     17  H4  UNL     1      39.183  -7.039  20.398  1.00  0.00     0.169 HD
BRANCH  16  18
HETATM   18  C2  UNL     1      38.070  -6.113  18.859  1.00  0.00     0.175 A
HETATM   19  C1  UNL     1      37.112  -6.969  18.356  1.00  0.00     0.167 A
HETATM   20  N2  UNL     1      36.842  -6.546  17.111  1.00  0.00    -0.222 N
HETATM   21  O1  UNL     1      37.578  -5.510  16.868  1.00  0.00    -0.153 OA
ATOM     22  H2  UNL     1      36.172  -6.968  16.467  1.00  0.00     0.198 HD
HETATM   23  N3  UNL     1      38.330  -5.213  17.886  1.00  0.00    -0.222 N
ATOM     24  H3  UNL     1      38.995  -4.442  17.940  1.00  0.00     0.198 HD
BRANCH  19  25
HETATM   25  N1  UNL     1      36.592  -7.974  18.979  1.00  0.00    -0.381 N
ATOM     26  H12 UNL     1      36.444  -8.905  18.591  1.00  0.00     0.157 HD
ATOM     27  H11 UNL     1      36.249  -8.002  19.939  1.00  0.00     0.157 HD
ENDBRANCH  19  25
ENDBRANCH  16  18
ENDBRANCH  11  16
ENDBRANCH   1   8
BRANCH   7  28
HETATM   28  C12 UNL     1      41.232  -3.292  24.031  1.00  0.00     0.202 C
BRANCH  28  29
HETATM   29  C13 UNL     1      41.110  -3.699  25.485  1.00  0.00     0.169 C
BRANCH  29  30
HETATM   30  O4  UNL     1      39.811  -3.816  25.927  1.00  0.00    -0.391 OA
ATOM     31  H4  UNL     1      39.496  -4.711  25.970  1.00  0.00     0.210 HD
ENDBRANCH  29  30
BRANCH  29  32
HETATM   32  C14 UNL     1      41.821  -5.029  25.725  1.00  0.00     0.172 C
BRANCH  32  33
HETATM   33  O5  UNL     1      43.176  -4.942  25.390  1.00  0.00    -0.391 OA
ATOM     34  H5  UNL     1      43.315  -4.323  24.683  1.00  0.00     0.210 HD
ENDBRANCH  32  33
BRANCH  32  35
HETATM   35  C15 UNL     1      41.765  -5.409  27.190  1.00  0.00     0.198 C
BRANCH  35  36
HETATM   36  O6  UNL     1      40.591  -6.182  27.340  1.00  0.00    -0.398 OA
ATOM     37  H6  UNL     1      40.880  -7.086  27.380  1.00  0.00     0.209 HD
ENDBRANCH  35  36
ENDBRANCH  32  35
ENDBRANCH  29  32
ENDBRANCH  28  29
ENDBRANCH   7  28
BRANCH   4  38
HETATM   38  C8  UNL     1      39.154   1.160  23.802  1.00  0.00     0.113 A
HETATM   39  C9  UNL     1      37.973   1.633  24.333  1.00  0.00     0.154 A
HETATM   40  N7  UNL     1      38.063   2.977  24.355  1.00  0.00    -0.229 N
HETATM   41  N11 UNL     1      39.232   3.342  23.867  1.00  0.00    -0.234 N
HETATM   42  N12 UNL     1      39.898   2.226  23.529  1.00  0.00    -0.281 N
ATOM     43  H11 UNL     1      39.569   4.299  23.764  1.00  0.00     0.209 HD
ATOM     44  H12 UNL     1      40.834   2.201  23.124  1.00  0.00     0.188 HD
BRANCH  40  45
HETATM   45  C10 UNL     1      37.006   3.813  24.849  1.00  0.00     0.195 A
HETATM   46  N8  UNL     1      36.775   4.186  26.128  1.00  0.00    -0.220 N
HETATM   47  O3  UNL     1      35.723   4.942  26.159  1.00  0.00    -0.153 OA
ATOM     48  H8  UNL     1      37.337   3.917  26.936  1.00  0.00     0.198 HD
HETATM   49  N9  UNL     1      35.220   5.108  24.973  1.00  0.00    -0.222 N
HETATM   50  C11 UNL     1      35.998   4.414  24.124  1.00  0.00     0.169 A
ATOM     51  H9  UNL     1      34.394   5.657  24.733  1.00  0.00     0.198 HD
BRANCH  50  52
HETATM   52  N10 UNL     1      35.840   4.318  22.849  1.00  0.00    -0.381 N
ATOM     53 2H10 UNL     1      35.876   3.460  22.297  1.00  0.00     0.157 HD
ATOM     54 1H10 UNL     1      35.656   5.098  22.217  1.00  0.00     0.157 HD
ENDBRANCH  50  52
ENDBRANCH  40  45
ENDBRANCH   4  38
TORSDOF 15
ENDMDL