MODEL 2
REMARK VINA RESULT: -7.433973176      3.541      4.633
REMARK  11 active torsions:
REMARK  status: ('A' for Active; 'I' for Inactive)
REMARK    1  A    between atoms: O1_2  and  C2_3
REMARK    2  A    between atoms: C2_3  and  C3_5
REMARK    3  A    between atoms: C3_5  and  O3_6
REMARK    4  A    between atoms: O3_6  and  C4_7
REMARK    5  A    between atoms: C4_7  and  N1_8
REMARK    6  A    between atoms: N1_8  and  C5_9
REMARK    7  A    between atoms: N1_8  and  C15_41
REMARK    8  A    between atoms: C5_9  and  C6_10
REMARK    9  A    between atoms: C12_23  and  N5_24
REMARK   10  A    between atoms: C13_30  and  N10_31
REMARK   11  A    between atoms: C17_47  and  N16_48
ROOT
HETATM    1  C6  UNL     1      40.681  -3.271  21.082  1.00  0.00     0.044 A
HETATM    2  C7  UNL     1      41.778  -2.448  20.939  1.00  0.00     0.116 A
HETATM    3  N2  UNL     1      41.821  -1.199  21.435  1.00  0.00    -0.347 N
ATOM      4  H2  UNL     1      42.650  -0.617  21.313  1.00  0.00     0.167 HD
HETATM    5  C8  UNL     1      40.742  -0.733  22.100  1.00  0.00     0.149 A
HETATM    6  C9  UNL     1      39.620  -1.555  22.252  1.00  0.00     0.105 A
HETATM    7  N3  UNL     1      39.590  -2.784  21.761  1.00  0.00    -0.352 N
ATOM      8  H3  UNL     1      38.761  -3.367  21.885  1.00  0.00     0.166 HD
HETATM    9  C10 UNL     1      38.316  -1.318  22.891  1.00  0.00     0.059 C
HETATM   10  N4  UNL     1      37.603  -2.423  22.972  1.00  0.00    -0.397 N
ATOM     11  H41 UNL     1      36.699  -2.259  23.414  1.00  0.00     0.156 HD
ATOM     12  H42 UNL     1      38.098  -3.225  22.582  1.00  0.00     0.156 HD
HETATM   13  C11 UNL     1      37.608  -0.173  23.448  1.00  0.00     0.066 C
HETATM   14  C12 UNL     1      37.949   1.058  23.793  1.00  0.00     0.097 C
HETATM   15  C14 UNL     1      39.228   1.790  23.749  1.00  0.00     0.159 C
HETATM   16  N11 UNL     1      39.143   3.034  24.403  1.00  0.00    -0.079 NA
HETATM   17  N12 UNL     1      40.399   1.571  23.248  1.00  0.00    -0.284 N
ATOM     18  H12 UNL     1      41.030   2.348  23.442  1.00  0.00     0.188 HD
HETATM   19  N13 UNL     1      41.043   0.581  22.522  1.00  0.00    -0.282 N
ATOM     20  H13 UNL     1      41.969   0.877  22.213  1.00  0.00     0.188 HD
ENDROOT
BRANCH   1  21
HETATM   21  C5  UNL     1      40.652  -4.627  20.518  1.00  0.00     0.201 C
BRANCH  21  22
HETATM   22  N1  UNL     1      40.505  -5.717  21.442  1.00  0.00    -0.190 N
BRANCH  22  23
HETATM   23  C4  UNL     1      41.645  -6.118  22.296  1.00  0.00     0.312 C
BRANCH  23  24
HETATM   24  O3  UNL     1      41.332  -6.035  23.634  1.00  0.00    -0.362 OA
BRANCH  24  25
HETATM   25  C3  UNL     1      41.649  -4.837  24.246  1.00  0.00     0.281 C
BRANCH  25  26
HETATM   26  C2  UNL     1      40.469  -4.255  24.960  1.00  0.00     0.282 C
HETATM   27  O2  UNL     1      39.316  -4.367  24.486  1.00  0.00    -0.263 OA
BRANCH  26  28
HETATM   28  O1  UNL     1      40.616  -3.574  26.159  1.00  0.00    -0.325 OA
HETATM   29  C1  UNL     1      41.478  -3.925  27.216  1.00  0.00     0.213 C
ENDBRANCH  26  28
ENDBRANCH  25  26
ENDBRANCH  24  25
ENDBRANCH  23  24
ENDBRANCH  22  23
BRANCH  22  30
HETATM   30  C15 UNL     1      39.318  -6.467  21.594  1.00  0.00     0.697 A
HETATM   31  N14 UNL     1      39.211  -7.747  21.207  1.00  0.00    -0.187 N
HETATM   32  C16 UNL     1      38.048  -8.380  21.370  1.00  0.00     0.215 A
ATOM     33  H14 UNL     1      40.009  -8.230  20.794  1.00  0.00     0.185 HD
HETATM   34  N15 UNL     1      36.988  -7.755  21.916  1.00  0.00    -0.187 N
HETATM   35  C17 UNL     1      37.054  -6.473  22.319  1.00  0.00     0.691 A
ATOM     36  H15 UNL     1      36.113  -8.267  22.028  1.00  0.00     0.185 HD
HETATM   37  N17 UNL     1      38.250  -5.860  22.138  1.00  0.00    -0.022 N
ATOM     38  H17 UNL     1      38.343  -4.887  22.429  1.00  0.00     0.203 HD
BRANCH  35  39
HETATM   39  N16 UNL     1      36.061  -5.855  22.842  1.00  0.00    -0.234 N
ATOM     40 2H16 UNL     1      35.794  -4.922  22.529  1.00  0.00     0.174 HD
ATOM     41 1H16 UNL     1      35.488  -6.253  23.586  1.00  0.00     0.174 HD
ENDBRANCH  35  39
ENDBRANCH  22  30
ENDBRANCH  21  22
ENDBRANCH   1  21
BRANCH  14  42
HETATM   42  N5  UNL     1      36.899   1.875  24.317  1.00  0.00    -0.226 N
HETATM   43  N6  UNL     1      36.633   1.713  25.690  1.00  0.00    -0.005 NA
HETATM   44  N7  UNL     1      35.409   2.316  25.954  1.00  0.00     0.005 NA
HETATM   45  N8  UNL     1      35.460   3.685  25.665  1.00  0.00    -0.013 NA
HETATM   46  N9  UNL     1      35.834   3.959  24.374  1.00  0.00    -0.275 N
HETATM   47  C13 UNL     1      36.133   2.801  23.560  1.00  0.00     0.419 C
ATOM     48  H9  UNL     1      35.898   4.911  24.014  1.00  0.00     0.181 HD
BRANCH  47  49
HETATM   49  N10 UNL     1      36.797   3.281  22.353  1.00  0.00    -0.038 N
ATOM     50 3H10 UNL     1      37.779   3.479  22.542  1.00  0.00     0.279 HD
ATOM     51 2H10 UNL     1      36.898   2.524  21.678  1.00  0.00     0.279 HD
ATOM     52 1H10 UNL     1      36.346   4.087  21.921  1.00  0.00     0.279 HD
ENDBRANCH  47  49
ENDBRANCH  14  42
TORSDOF 11
ENDMDL