MODEL 3
REMARK VINA RESULT: -6.697760678      1.266      1.779
REMARK  14 active torsions:
REMARK  status: ('A' for Active; 'I' for Inactive)
REMARK    1  A    between atoms: C2_2  and  C3_3
REMARK    2  A    between atoms: C3_3  and  N1_4
REMARK    3  A    between atoms: N1_4  and  C4_5
REMARK    4  A    between atoms: N1_4  and  C9_25
REMARK    5  A    between atoms: C4_5  and  C5_6
REMARK    6  A    between atoms: C5_6  and  N2_7
REMARK    7  A    between atoms: N2_7  and  O1_8
REMARK    8  A    between atoms: N2_7  and  C6_10
REMARK    9  A    between atoms: N4_13  and  N5_14
REMARK   10  A    between atoms: C13_33  and  O4_34
REMARK       I    between atoms: N11_36  and  C14_37
REMARK       I    between atoms: C14_37  and  N14_43
REMARK   11  A    between atoms: N12_38  and  N13_40
REMARK   12  A    between atoms: N14_43  and  C15_45
REMARK   13  A    between atoms: C15_45  and  N15_46
REMARK   14  A    between atoms: C15_45  and  O5_50
ROOT
HETATM    1  C9  UNL     1      39.128  -2.223  23.360  1.00  0.00     0.166 A
HETATM    2  N10 UNL     1      38.095  -2.515  24.156  1.00  0.00    -0.240 N
ATOM      3  H10 UNL     1      37.911  -3.428  24.572  1.00  0.00     0.196 HD
HETATM    4  O2  UNL     1      37.352  -1.443  24.320  1.00  0.00    -0.213 OA
HETATM    5  C10 UNL     1      37.845  -0.430  23.663  1.00  0.00     0.223 A
HETATM    6  C11 UNL     1      39.005  -0.914  23.028  1.00  0.00     0.170 A
HETATM    7  O3  UNL     1      39.842  -0.160  22.223  1.00  0.00    -0.339 OA
HETATM    8  C12 UNL     1      39.504   0.966  21.457  1.00  0.00     0.232 C
HETATM    9  C13 UNL     1      39.146   2.182  22.278  1.00  0.00     0.283 C
HETATM   10  N11 UNL     1      37.997   1.997  23.084  1.00  0.00    -0.089 N
HETATM   11  C14 UNL     1      37.353   3.251  23.471  1.00  0.00     0.715 C
HETATM   12  N12 UNL     1      36.765   3.942  22.622  1.00  0.00    -0.137 N
ATOM     13  H12 UNL     1      36.798   3.537  21.686  1.00  0.00     0.205 HD
HETATM   14  N14 UNL     1      37.413   3.664  24.828  1.00  0.00    -0.172 N
ATOM     15  H14 UNL     1      38.279   4.082  25.167  1.00  0.00     0.182 HD
HETATM   16  N16 UNL     1      37.321   0.887  23.599  1.00  0.00    -0.257 N
ATOM     17  H16 UNL     1      36.378   1.035  23.958  1.00  0.00     0.190 HD
ENDROOT
BRANCH   1  18
HETATM   18  N1  UNL     1      40.163  -3.176  22.916  1.00  0.00    -0.342 N
BRANCH  18  19
HETATM   19  C3  UNL     1      39.794  -3.926  21.773  1.00  0.00     0.129 C
BRANCH  19  20
HETATM   20  C2  UNL     1      40.183  -3.451  20.427  1.00  0.00     0.016 C
HETATM   21  C1  UNL     1      39.748  -4.475  19.346  1.00  0.00     0.006 C
ENDBRANCH  19  20
ENDBRANCH  18  19
BRANCH  18  22
HETATM   22  C4  UNL     1      41.372  -3.138  23.649  1.00  0.00     0.088 C
BRANCH  22  23
HETATM   23  C5  UNL     1      41.427  -3.211  25.115  1.00  0.00     0.202 C
BRANCH  23  24
HETATM   24  N2  UNL     1      40.853  -4.310  25.798  1.00  0.00    -0.235 N
BRANCH  24  25
HETATM   25  O1  UNL     1      39.602  -4.730  25.485  1.00  0.00    -0.285 OA
ATOM     26  H1  UNL     1      39.466  -5.325  24.757  1.00  0.00     0.245 HD
ENDBRANCH  24  25
BRANCH  24  27
HETATM   27  C6  UNL     1      41.485  -4.995  26.871  1.00  0.00     0.187 A
HETATM   28  N3  UNL     1      41.381  -4.487  28.051  1.00  0.00    -0.245 N
HETATM   29  N4  UNL     1      41.904  -4.946  29.281  1.00  0.00    -0.134 N
ATOM     30  H3  UNL     1      40.841  -3.623  28.105  1.00  0.00     0.192 HD
HETATM   31  N6  UNL     1      42.546  -6.163  29.503  1.00  0.00    -0.237 N
HETATM   32  C7  UNL     1      42.939  -7.094  28.693  1.00  0.00     0.211 A
ATOM     33  H6  UNL     1      42.742  -6.356  30.485  1.00  0.00     0.193 HD
HETATM   34  N7  UNL     1      43.574  -8.235  29.284  1.00  0.00    -0.062 NA
HETATM   35  N8  UNL     1      42.794  -7.080  27.283  1.00  0.00    -0.315 N
HETATM   36  C8  UNL     1      42.187  -6.208  26.507  1.00  0.00     0.166 A
ATOM     37  H8  UNL     1      43.225  -7.865  26.796  1.00  0.00     0.170 HD
HETATM   38  N9  UNL     1      42.209  -6.471  25.111  1.00  0.00    -0.078 NA
BRANCH  29  39
HETATM   39  N5  UNL     1      41.741  -4.062  30.360  1.00  0.00    -0.309 N
ATOM     40  H52 UNL     1      42.156  -4.305  31.261  1.00  0.00     0.180 HD
ATOM     41  H51 UNL     1      41.204  -3.220  30.150  1.00  0.00     0.180 HD
ENDBRANCH  29  39
ENDBRANCH  24  27
ENDBRANCH  23  24
ENDBRANCH  22  23
ENDBRANCH  18  22
ENDBRANCH   1  18
BRANCH   9  42
HETATM   42  O4  UNL     1      40.238   2.653  23.019  1.00  0.00    -0.372 OA
ATOM     43  H4  UNL     1      40.000   3.386  23.574  1.00  0.00     0.212 HD
ENDBRANCH   9  42
BRANCH  12  44
HETATM   44  N13 UNL     1      36.097   5.108  22.667  1.00  0.00    -0.331 N
ATOM     45 2H13 UNL     1      35.109   4.968  22.880  1.00  0.00     0.177 HD
ATOM     46 1H13 UNL     1      36.365   6.084  22.536  1.00  0.00     0.177 HD
ENDBRANCH  12  44
BRANCH  14  47
HETATM   47  C15 UNL     1      36.321   3.526  25.745  1.00  0.00     0.438 C
BRANCH  47  48
HETATM   48  N15 UNL     1      36.166   4.754  26.538  1.00  0.00    -0.034 N
ATOM     49 3H15 UNL     1      35.474   4.644  27.279  1.00  0.00     0.279 HD
ATOM     50 2H15 UNL     1      36.983   4.937  27.121  1.00  0.00     0.279 HD
ATOM     51 1H15 UNL     1      35.949   5.542  25.928  1.00  0.00     0.279 HD
ENDBRANCH  47  48
BRANCH  47  52
HETATM   52  O5  UNL     1      35.098   3.352  25.089  1.00  0.00    -0.354 OA
ATOM     53  H5  UNL     1      34.719   4.177  24.812  1.00  0.00     0.213 HD
ENDBRANCH  47  52
ENDBRANCH  14  47
TORSDOF 14
ENDMDL