MODEL 1
REMARK VINA RESULT: -6.509797899      0.000      0.000
REMARK  13 active torsions:
REMARK  status: ('A' for Active; 'I' for Inactive)
REMARK    1  A    between atoms: C2_2  and  C3_3
REMARK    2  A    between atoms: C4_5  and  C5_6
REMARK    3  A    between atoms: C6_7  and  O2_8
REMARK    4  A    between atoms: C7_10  and  O3_11
REMARK    5  A    between atoms: C8_13  and  O4_14
REMARK    6  A    between atoms: O4_14  and  C9_15
REMARK    7  A    between atoms: C11_17  and  C12_18
REMARK    8  A    between atoms: C12_18  and  O5_19
REMARK    9  A    between atoms: C12_18  and  O6_21
REMARK   10  A    between atoms: C15_23  and  O7_24
REMARK   11  A    between atoms: C16_26  and  O8_27
REMARK   12  A    between atoms: C17_29  and  O9_30
REMARK   13  A    between atoms: C18_32  and  O10_34
ROOT
HETATM    1  C5  UNL     1      -6.252  59.527  18.725  1.00  0.00     0.083 C
HETATM    2  C6  UNL     1      -5.800  58.590  17.641  1.00  0.00     0.159 C
HETATM    3  C7  UNL     1      -4.387  58.943  17.386  1.00  0.00     0.179 C
HETATM    4  C8  UNL     1      -3.845  59.668  18.609  1.00  0.00     0.187 C
HETATM    5  C18 UNL     1      -5.107  60.421  19.066  1.00  0.00     0.091 C
HETATM    6  C19 UNL     1      -5.028  60.647  20.563  1.00  0.00     0.049 C
ENDROOT
BRANCH   4   7
HETATM    7  O4  UNL     1      -2.861  60.493  18.151  1.00  0.00    -0.372 OA
BRANCH   7   8
HETATM    8  C9  UNL     1      -1.644  60.433  18.825  1.00  0.00     0.154 C
HETATM    9  C10 UNL     1      -1.679  59.439  19.934  1.00  0.00     0.047 C
HETATM   10  C11 UNL     1      -0.465  58.657  20.207  1.00  0.00     0.075 C
HETATM   11  C15 UNL     1       0.523  58.531  19.105  1.00  0.00     0.158 C
HETATM   12  C16 UNL     1       0.732  59.782  18.296  1.00  0.00     0.178 C
HETATM   13  C17 UNL     1      -0.618  60.177  17.768  1.00  0.00     0.178 C
BRANCH  10  14
HETATM   14  C12 UNL     1       0.197  59.029  21.534  1.00  0.00     0.265 C
BRANCH  14  15
HETATM   15  O5  UNL     1       0.029  60.331  21.903  1.00  0.00    -0.366 OA
HETATM   16  C13 UNL     1      -0.173  60.563  23.241  1.00  0.00     0.204 C
ENDBRANCH  14  15
BRANCH  14  17
HETATM   17  O6  UNL     1      -0.272  58.157  22.519  1.00  0.00    -0.366 OA
HETATM   18  C14 UNL     1       0.624  57.116  22.775  1.00  0.00     0.204 C
ENDBRANCH  14  17
ENDBRANCH  10  14
BRANCH  11  19
HETATM   19  O7  UNL     1       1.695  57.947  19.548  1.00  0.00    -0.392 OA
ATOM     20  H7  UNL     1       2.261  57.716  18.820  1.00  0.00     0.210 HD
ENDBRANCH  11  19
BRANCH  12  21
HETATM   21  O8  UNL     1       1.501  59.400  17.175  1.00  0.00    -0.390 OA
ATOM     22  H8  UNL     1       1.219  59.958  16.459  1.00  0.00     0.210 HD
ENDBRANCH  12  21
BRANCH  13  23
HETATM   23  O9  UNL     1      -1.087  59.127  16.957  1.00  0.00    -0.390 OA
ATOM     24  H9  UNL     1      -0.426  58.446  16.953  1.00  0.00     0.210 HD
ENDBRANCH  13  23
ENDBRANCH   7   8
ENDBRANCH   4   7
BRANCH   3  25
HETATM   25  O3  UNL     1      -3.667  57.787  17.111  1.00  0.00    -0.390 OA
ATOM     26  H3  UNL     1      -2.972  57.988  16.495  1.00  0.00     0.210 HD
ENDBRANCH   3  25
BRANCH   5  27
HETATM   27  O10 UNL     1      -5.117  61.651  18.480  1.00  0.00    -0.387 OA
ATOM     28  H10 UNL     1      -4.330  62.171  18.593  1.00  0.00     0.210 HD
ENDBRANCH   5  27
BRANCH   2  29
HETATM   29  O2  UNL     1      -5.872  57.247  18.006  1.00  0.00    -0.392 OA
ATOM     30  H2  UNL     1      -5.140  56.961  18.540  1.00  0.00     0.210 HD
ENDBRANCH   2  29
BRANCH   1  31
HETATM   31  C4  UNL     1      -7.553  60.177  18.451  1.00  0.00     0.132 C
HETATM   32  O1  UNL     1      -8.511  59.619  19.296  1.00  0.00    -0.376 OA
HETATM   33  C3  UNL     1      -9.719  59.595  18.652  1.00  0.00     0.147 C
HETATM   34  C21 UNL     1      -9.584  60.332  17.342  1.00  0.00     0.017 C
HETATM   35  C20 UNL     1      -8.080  60.142  17.081  1.00  0.00     0.039 C
HETATM   36  C22 UNL     1      -9.959  61.776  17.463  1.00  0.00     0.013 C
BRANCH  33  37
HETATM   37  C2  UNL     1     -10.217  58.228  18.338  1.00  0.00    -0.005 C
HETATM   38  C1  UNL     1     -10.360  57.287  19.262  1.00  0.00     0.009 C
ENDBRANCH  33  37
ENDBRANCH   1  31
TORSDOF 13
ENDMDL