MODEL 3
REMARK VINA RESULT: -7.569091649      1.078      1.723
REMARK  12 active torsions:
REMARK  status: ('A' for Active; 'I' for Inactive)
REMARK    1  A    between atoms: O1_2  and  C2_3
REMARK    2  A    between atoms: C4_5  and  C5_6
REMARK    3  A    between atoms: C5_6  and  O2_7
REMARK    4  A    between atoms: O2_7  and  C6_8
REMARK    5  A    between atoms: C8_11  and  N1_12
REMARK       I    between atoms: N1_12  and  C9_14
REMARK    6  A    between atoms: C9_14  and  C10_16
REMARK    7  A    between atoms: C11_17  and  C12_18
REMARK    8  A    between atoms: C13_20  and  O6_21
REMARK    9  A    between atoms: C14_23  and  O7_24
REMARK   10  A    between atoms: C15_26  and  O8_27
REMARK   11  A    between atoms: C16_29  and  O9_30
REMARK   12  A    between atoms: C21_36  and  O10_37
ROOT
HETATM    1  N1  UNL     1      -4.501  60.474  20.782  1.00  0.00    -0.346 N
ATOM      2  H1  UNL     1      -4.054  59.777  20.186  1.00  0.00     0.163 HD
HETATM    3  C9  UNL     1      -3.813  60.945  21.924  1.00  0.00     0.241 C
HETATM    4  O4  UNL     1      -4.393  61.811  22.649  1.00  0.00    -0.269 OA
ENDROOT
BRANCH   1   5
HETATM    5  C8  UNL     1      -5.804  60.944  20.440  1.00  0.00     0.163 C
HETATM    6  C6  UNL     1      -6.559  60.150  19.388  1.00  0.00     0.284 C
HETATM    7  O3  UNL     1      -7.077  61.426  18.975  1.00  0.00    -0.357 OA
HETATM    8  C7  UNL     1      -5.820  61.938  19.290  1.00  0.00     0.201 C
BRANCH   6   9
HETATM    9  O2  UNL     1      -7.496  59.300  19.820  1.00  0.00    -0.358 OA
BRANCH   9  10
HETATM   10  C5  UNL     1      -7.313  58.047  20.199  1.00  0.00     0.183 C
BRANCH  10  11
HETATM   11  C4  UNL     1      -7.386  56.891  19.290  1.00  0.00     0.010 C
HETATM   12  C3  UNL     1      -6.584  56.883  18.043  1.00  0.00     0.046 C
HETATM   13  C2  UNL     1      -6.517  55.400  17.618  1.00  0.00     0.125 C
HETATM   14  C18 UNL     1      -7.022  54.626  18.782  1.00  0.00     0.015 C
HETATM   15  C17 UNL     1      -6.927  55.590  19.940  1.00  0.00     0.021 C
HETATM   16  C19 UNL     1      -8.480  54.256  18.516  1.00  0.00     0.010 C
HETATM   17  C20 UNL     1      -9.357  55.302  19.194  1.00  0.00     0.033 C
HETATM   18  C21 UNL     1      -8.883  56.694  18.971  1.00  0.00     0.129 C
BRANCH  13  19
HETATM   19  O1  UNL     1      -7.280  55.292  16.465  1.00  0.00    -0.390 OA
HETATM   20  C1  UNL     1      -6.636  56.020  15.467  1.00  0.00     0.202 C
ENDBRANCH  13  19
BRANCH  18  21
HETATM   21  O10 UNL     1      -9.166  57.107  17.669  1.00  0.00    -0.395 OA
ATOM     22  H10 UNL     1      -8.701  56.569  17.039  1.00  0.00     0.210 HD
ENDBRANCH  18  21
ENDBRANCH  10  11
ENDBRANCH   9  10
ENDBRANCH   6   9
ENDBRANCH   1   5
BRANCH   3  23
HETATM   23  C10 UNL     1      -2.489  60.482  22.291  1.00  0.00     0.072 C
HETATM   24  C11 UNL     1      -1.890  59.473  21.730  1.00  0.00     0.013 C
BRANCH  24  25
HETATM   25  C12 UNL     1      -0.528  59.064  22.170  1.00  0.00     0.179 C
HETATM   26  O5  UNL     1      -0.656  58.013  23.046  1.00  0.00    -0.347 OA
HETATM   27  C13 UNL     1       0.508  57.662  23.684  1.00  0.00     0.289 C
HETATM   28  C14 UNL     1       1.675  58.077  22.845  1.00  0.00     0.204 C
HETATM   29  C15 UNL     1       1.379  57.758  21.393  1.00  0.00     0.183 C
HETATM   30  C16 UNL     1       0.286  58.707  20.943  1.00  0.00     0.182 C
BRANCH  27  31
HETATM   31  O6  UNL     1       0.565  58.164  24.979  1.00  0.00    -0.368 OA
ATOM     32  H6  UNL     1       1.076  57.608  25.555  1.00  0.00     0.212 HD
ENDBRANCH  27  31
BRANCH  28  33
HETATM   33  O7  UNL     1       2.846  57.402  23.188  1.00  0.00    -0.388 OA
ATOM     34  H7  UNL     1       3.519  57.985  23.520  1.00  0.00     0.210 HD
ENDBRANCH  28  33
BRANCH  29  35
HETATM   35  O8  UNL     1       0.949  56.426  21.315  1.00  0.00    -0.390 OA
ATOM     36  H8  UNL     1       0.988  56.050  22.186  1.00  0.00     0.210 HD
ENDBRANCH  29  35
BRANCH  30  37
HETATM   37  O9  UNL     1       0.887  59.849  20.391  1.00  0.00    -0.390 OA
ATOM     38  H9  UNL     1       1.021  60.515  21.054  1.00  0.00     0.210 HD
ENDBRANCH  30  37
ENDBRANCH  24  25
ENDBRANCH   3  23
TORSDOF 12
ENDMDL