MODEL 3
REMARK VINA RESULT: -8.004598614      1.022      1.194
REMARK  13 active torsions:
REMARK  status: ('A' for Active; 'I' for Inactive)
REMARK    1  A    between atoms: C2_2  and  C3_3
REMARK    2  A    between atoms: C4_4  and  C5_5
REMARK    3  A    between atoms: C5_5  and  O2_7
REMARK    4  A    between atoms: O2_7  and  C6_8
REMARK    5  A    between atoms: C7_10  and  O4_11
REMARK    6  A    between atoms: O4_11  and  C8_12
REMARK    7  A    between atoms: C8_12  and  C9_13
REMARK    8  A    between atoms: C18_22  and  O5_23
REMARK    9  A    between atoms: C19_25  and  O6_26
REMARK   10  A    between atoms: C20_28  and  O7_29
REMARK   11  A    between atoms: C21_31  and  O8_32
REMARK   12  A    between atoms: C22_34  and  C23_35
REMARK   13  A    between atoms: C23_35  and  N1_36
ROOT
HETATM    1  C6  UNL     1      -1.246  59.354  19.477  1.00  0.00     0.281 C
HETATM    2  O3  UNL     1      -2.045  60.437  19.160  1.00  0.00    -0.328 OA
HETATM    3  C7  UNL     1      -2.957  60.130  18.141  1.00  0.00     0.294 C
HETATM    4  C19 UNL     1      -2.375  60.392  16.779  1.00  0.00     0.204 C
HETATM    5  C20 UNL     1      -1.028  61.060  16.839  1.00  0.00     0.180 C
HETATM    6  C21 UNL     1       0.024  60.332  17.577  1.00  0.00     0.160 C
HETATM    7  C22 UNL     1      -0.377  59.063  18.250  1.00  0.00     0.098 C
ENDROOT
BRANCH   3   8
HETATM    8  O4  UNL     1      -4.101  60.847  18.416  1.00  0.00    -0.358 OA
BRANCH   8   9
HETATM    9  C8  UNL     1      -4.794  60.470  19.547  1.00  0.00     0.177 C
BRANCH   9  10
HETATM   10  C9  UNL     1      -5.875  59.457  19.336  1.00  0.00     0.026 A
HETATM   11  C10 UNL     1      -7.182  59.651  19.989  1.00  0.00     0.004 A
HETATM   12  C11 UNL     1      -8.124  58.602  20.408  1.00  0.00     0.007 C
HETATM   13  C17 UNL     1      -6.979  59.650  18.474  1.00  0.00    -0.000 A
HETATM   14  C12 UNL     1      -9.394  58.699  19.596  1.00  0.00     0.012 C
HETATM   15  C13 UNL     1      -9.176  59.062  18.152  1.00  0.00     0.043 C
HETATM   16  C14 UNL     1      -9.013  60.524  17.936  1.00  0.00    -0.082 C
HETATM   17  C18 UNL     1      -7.781  58.592  17.783  1.00  0.00     0.136 C
HETATM   18  C15 UNL     1      -9.979  61.405  17.808  1.00  0.00     0.015 C
HETATM   19  C16 UNL     1      -7.564  60.888  17.877  1.00  0.00     0.046 C
BRANCH  17  20
HETATM   20  O5  UNL     1      -7.492  57.308  18.039  1.00  0.00    -0.394 OA
ATOM     21  H5  UNL     1      -7.998  56.887  18.723  1.00  0.00     0.210 HD
ENDBRANCH  17  20
ENDBRANCH   9  10
ENDBRANCH   8   9
ENDBRANCH   3   8
BRANCH   4  22
HETATM   22  O6  UNL     1      -2.376  59.279  15.944  1.00  0.00    -0.388 OA
ATOM     23  H6  UNL     1      -2.028  58.494  16.350  1.00  0.00     0.210 HD
ENDBRANCH   4  22
BRANCH   1  24
HETATM   24  O2  UNL     1      -0.419  59.749  20.566  1.00  0.00    -0.286 OA
BRANCH  24  25
HETATM   25  C5  UNL     1      -0.813  59.511  21.852  1.00  0.00     0.285 C
HETATM   26  O1  UNL     1      -0.637  58.350  22.315  1.00  0.00    -0.260 OA
BRANCH  25  27
HETATM   27  C4  UNL     1      -1.415  60.559  22.658  1.00  0.00     0.082 C
HETATM   28  C3  UNL     1      -2.724  60.710  22.634  1.00  0.00     0.005 C
BRANCH  28  29
HETATM   29  C2  UNL     1      -3.391  61.744  23.421  1.00  0.00    -0.010 C
HETATM   30  C1  UNL     1      -2.879  62.115  24.574  1.00  0.00     0.011 C
ENDBRANCH  28  29
ENDBRANCH  25  27
ENDBRANCH  24  25
ENDBRANCH   1  24
BRANCH   5  31
HETATM   31  O7  UNL     1      -1.226  62.330  17.402  1.00  0.00    -0.390 OA
ATOM     32  H7  UNL     1      -1.670  62.199  18.232  1.00  0.00     0.210 HD
ENDBRANCH   5  31
BRANCH   7  33
HETATM   33  C23 UNL     1       0.912  58.413  18.776  1.00  0.00     0.241 C
BRANCH  33  34
HETATM   34  N1  UNL     1       0.554  57.188  19.465  1.00  0.00    -0.079 N
ATOM     35  H13 UNL     1       0.215  56.465  18.831  1.00  0.00     0.274 HD
ATOM     36  H12 UNL     1       1.366  56.687  19.824  1.00  0.00     0.274 HD
ATOM     37  H11 UNL     1      -0.121  57.419  20.194  1.00  0.00     0.274 HD
ENDBRANCH  33  34
ENDBRANCH   7  33
BRANCH   6  38
HETATM   38  O8  UNL     1       0.631  61.194  18.493  1.00  0.00    -0.392 OA
ATOM     39  H8  UNL     1       0.629  62.079  18.146  1.00  0.00     0.210 HD
ENDBRANCH   6  38
TORSDOF 13
ENDMDL