MODEL 5
REMARK VINA RESULT: -6.258034084      2.076      2.799
REMARK  12 active torsions:
REMARK  status: ('A' for Active; 'I' for Inactive)
REMARK    1  A    between atoms: O1_2  and  C2_3
REMARK    2  A    between atoms: C3_4  and  O2_5
REMARK    3  A    between atoms: C4_7  and  O3_8
REMARK    4  A    between atoms: O3_8  and  C5_9
REMARK    5  A    between atoms: C11_16  and  N1_17
REMARK       I    between atoms: N1_17  and  C12_19
REMARK    6  A    between atoms: C14_22  and  O6_23
REMARK    7  A    between atoms: C15_25  and  O7_26
REMARK    8  A    between atoms: O7_26  and  C16_27
REMARK    9  A    between atoms: C17_28  and  N2_29
REMARK   10  A    between atoms: C19_34  and  O8_35
REMARK   11  A    between atoms: C20_37  and  C21_38
REMARK   12  A    between atoms: C21_38  and  O9_39
ROOT
HETATM    1  C2  UNL     1      -1.725  60.343  21.347  1.00  0.00     0.183 C
HETATM    2  C3  UNL     1      -3.198  60.077  21.044  1.00  0.00     0.180 C
HETATM    3  C4  UNL     1      -3.428  60.728  19.702  1.00  0.00     0.178 C
HETATM    4  C11 UNL     1      -2.480  60.102  18.738  1.00  0.00     0.147 C
HETATM    5  C14 UNL     1      -1.704  58.923  19.289  1.00  0.00     0.175 C
HETATM    6  C15 UNL     1      -0.966  59.295  20.555  1.00  0.00     0.184 C
ENDROOT
BRANCH   6   7
HETATM    7  O7  UNL     1      -0.633  58.262  21.351  1.00  0.00    -0.373 OA
BRANCH   7   8
HETATM    8  C16 UNL     1       0.657  57.851  21.393  1.00  0.00     0.161 C
HETATM    9  C17 UNL     1       0.845  56.353  21.096  1.00  0.00     0.215 C
HETATM   10  C18 UNL     1       1.766  55.802  22.133  1.00  0.00     0.067 C
HETATM   11  C19 UNL     1       2.339  57.018  22.803  1.00  0.00     0.129 C
HETATM   12  C20 UNL     1       1.138  57.947  22.838  1.00  0.00     0.069 C
BRANCH   9  13
HETATM   13  N2  UNL     1       1.458  56.148  19.798  1.00  0.00    -0.072 N
ATOM     14  H23 UNL     1       1.691  55.168  19.644  1.00  0.00     0.274 HD
ATOM     15  H22 UNL     1       0.784  56.270  19.042  1.00  0.00     0.274 HD
ATOM     16  H21 UNL     1       2.272  56.750  19.675  1.00  0.00     0.274 HD
ENDBRANCH   9  13
BRANCH  11  17
HETATM   17  O8  UNL     1       2.786  56.713  24.084  1.00  0.00    -0.395 OA
ATOM     18  H8  UNL     1       3.120  57.489  24.519  1.00  0.00     0.210 HD
ENDBRANCH  11  17
BRANCH  12  19
HETATM   19  C21 UNL     1       0.081  57.365  23.717  1.00  0.00     0.173 C
BRANCH  19  20
HETATM   20  O9  UNL     1       0.181  57.784  25.040  1.00  0.00    -0.400 OA
ATOM     21  H9  UNL     1      -0.353  57.271  25.634  1.00  0.00     0.209 HD
ENDBRANCH  19  20
ENDBRANCH  12  19
ENDBRANCH   7   8
ENDBRANCH   6   7
BRANCH   1  22
HETATM   22  O1  UNL     1      -1.472  60.351  22.689  1.00  0.00    -0.385 OA
HETATM   23  C1  UNL     1      -0.368  61.144  23.033  1.00  0.00     0.202 C
ENDBRANCH   1  22
BRANCH   5  24
HETATM   24  O6  UNL     1      -0.752  58.605  18.323  1.00  0.00    -0.391 OA
ATOM     25  H6  UNL     1      -0.502  59.428  17.921  1.00  0.00     0.210 HD
ENDBRANCH   5  24
BRANCH   2  26
HETATM   26  O2  UNL     1      -4.018  60.597  22.035  1.00  0.00    -0.390 OA
ATOM     27  H2  UNL     1      -4.360  61.449  21.789  1.00  0.00     0.210 HD
ENDBRANCH   2  26
BRANCH   4  28
HETATM   28  N1  UNL     1      -1.589  61.067  18.120  1.00  0.00    -0.352 N
HETATM   29  C12 UNL     1      -1.739  61.465  16.751  1.00  0.00     0.214 C
HETATM   30  C13 UNL     1      -0.849  62.439  16.102  1.00  0.00     0.117 C
HETATM   31  O5  UNL     1      -2.669  60.955  16.099  1.00  0.00    -0.274 OA
ATOM     32  H1  UNL     1      -0.836  61.473  18.675  1.00  0.00     0.163 HD
ENDBRANCH   4  28
BRANCH   3  33
HETATM   33  O3  UNL     1      -4.755  60.678  19.310  1.00  0.00    -0.374 OA
BRANCH  33  34
HETATM   34  C5  UNL     1      -5.382  59.478  19.579  1.00  0.00     0.146 C
HETATM   35  C6  UNL     1      -5.779  58.732  18.323  1.00  0.00     0.036 C
HETATM   36  C7  UNL     1      -6.542  57.494  18.712  1.00  0.00     0.034 C
HETATM   37  C8  UNL     1      -7.624  57.769  19.724  1.00  0.00     0.117 C
HETATM   38  C9  UNL     1      -8.908  58.239  19.048  1.00  0.00     0.039 C
HETATM   39  O4  UNL     1      -7.234  58.626  20.723  1.00  0.00    -0.384 OA
HETATM   40  C10 UNL     1      -6.693  59.817  20.296  1.00  0.00     0.200 C
ENDBRANCH  33  34
ENDBRANCH   3  33
TORSDOF 12
ENDMDL