MODEL 3
REMARK VINA RESULT: -7.018554440      5.640      8.504
REMARK  16 active torsions:
REMARK  status: ('A' for Active; 'I' for Inactive)
REMARK    1  A    between atoms: C3_3  and  C4_4
REMARK    2  A    between atoms: C4_4  and  C5_5
REMARK    3  A    between atoms: C5_5  and  C6_6
REMARK    4  A    between atoms: C7_7  and  C8_8
REMARK    5  A    between atoms: C9_9  and  C10_10
REMARK    6  A    between atoms: C10_10  and  O1_11
REMARK    7  A    between atoms: C12_15  and  O3_16
REMARK    8  A    between atoms: O3_16  and  C13_17
REMARK    9  A    between atoms: C14_20  and  C15_21
REMARK   10  A    between atoms: C15_21  and  C16_22
REMARK   11  A    between atoms: C16_22  and  C17_23
REMARK   12  A    between atoms: C17_23  and  N1_24
REMARK   13  A    between atoms: N2_28  and  O6_30
REMARK   14  A    between atoms: C19_33  and  O7_34
REMARK   15  A    between atoms: C20_36  and  O8_37
REMARK   16  A    between atoms: C22_40  and  O9_41
ROOT
HETATM    1  C1  UNL     1      -3.237  62.800  25.326  1.00  0.00     0.012 C
HETATM    2  C2  UNL     1      -2.099  62.462  25.485  1.00  0.00    -0.117 C
HETATM    3  C3  UNL     1      -0.713  62.050  25.699  1.00  0.00     0.094 C
ENDROOT
BRANCH   3   4
HETATM    4  C4  UNL     1       0.029  61.970  24.376  1.00  0.00     0.024 C
BRANCH   4   5
HETATM    5  C5  UNL     1      -0.192  60.603  23.762  1.00  0.00     0.096 C
BRANCH   5   6
HETATM    6  C6  UNL     1      -1.433  60.569  22.983  1.00  0.00    -0.092 C
HETATM    7  C7  UNL     1      -2.457  60.550  22.319  1.00  0.00    -0.015 C
BRANCH   7   8
HETATM    8  C8  UNL     1      -3.631  60.539  21.531  1.00  0.00    -0.012 C
HETATM    9  C9  UNL     1      -4.639  60.549  20.862  1.00  0.00    -0.049 C
BRANCH   9  10
HETATM   10  C10 UNL     1      -5.845  60.586  20.072  1.00  0.00     0.169 C
HETATM   11  C11 UNL     1      -6.394  61.995  20.021  1.00  0.00     0.225 C
HETATM   12  O2  UNL     1      -7.571  62.054  19.309  1.00  0.00    -0.357 OA
HETATM   13  C12 UNL     1      -7.454  61.628  17.997  1.00  0.00     0.265 C
HETATM   14  C21 UNL     1      -6.974  60.199  17.951  1.00  0.00     0.096 C
HETATM   15  C22 UNL     1      -5.618  60.150  18.628  1.00  0.00     0.171 C
BRANCH  10  16
HETATM   16  O1  UNL     1      -6.851  59.765  20.577  1.00  0.00    -0.373 OA
ATOM     17  H1  UNL     1      -7.421  59.418  19.901  1.00  0.00     0.212 HD
ENDBRANCH  10  16
BRANCH  13  18
HETATM   18  O3  UNL     1      -6.713  62.474  17.209  1.00  0.00    -0.326 OA
BRANCH  18  19
HETATM   19  C13 UNL     1      -7.493  63.271  16.364  1.00  0.00     0.330 C
HETATM   20  O4  UNL     1      -7.038  64.566  16.490  1.00  0.00    -0.205 OA
HETATM   21  O5  UNL     1      -8.073  65.409  16.568  1.00  0.00    -0.233 OA
HETATM   22  C14 UNL     1      -8.698  65.336  15.318  1.00  0.00     0.168 C
HETATM   23  C18 UNL     1      -7.626  65.175  14.288  1.00  0.00     0.070 C
HETATM   24  C19 UNL     1      -7.371  63.754  13.899  1.00  0.00     0.154 C
HETATM   25  C20 UNL     1      -7.570  62.758  14.977  1.00  0.00     0.205 C
BRANCH  22  26
HETATM   26  C15 UNL     1      -9.613  66.500  15.078  1.00  0.00     0.091 C
BRANCH  26  27
HETATM   27  C16 UNL     1      -9.677  67.437  16.207  1.00  0.00     0.037 C
HETATM   28  N2  UNL     1     -10.560  67.300  17.108  1.00  0.00    -0.276 N
ATOM     29  H2  UNL     1     -11.206  66.518  16.999  1.00  0.00     0.193 HD
BRANCH  27  30
HETATM   30  C17 UNL     1      -8.692  68.538  16.269  1.00  0.00     0.283 C
BRANCH  30  31
HETATM   31  N1  UNL     1      -7.757  68.396  17.364  1.00  0.00    -0.074 N
ATOM     32  H13 UNL     1      -8.146  67.808  18.102  1.00  0.00     0.274 HD
ATOM     33  H12 UNL     1      -6.962  67.817  17.093  1.00  0.00     0.274 HD
ATOM     34  H11 UNL     1      -7.445  69.292  17.738  1.00  0.00     0.274 HD
ENDBRANCH  30  31
ENDBRANCH  27  30
BRANCH  28  35
HETATM   35  O6  UNL     1     -10.737  68.084  18.200  1.00  0.00    -0.290 OA
ATOM     36  H6  UNL     1     -10.779  67.800  19.105  1.00  0.00     0.244 HD
ENDBRANCH  28  35
ENDBRANCH  26  27
ENDBRANCH  22  26
BRANCH  24  37
HETATM   37  O7  UNL     1      -8.204  63.477  12.793  1.00  0.00    -0.393 OA
ATOM     38  H7  UNL     1      -9.099  63.514  13.107  1.00  0.00     0.210 HD
ENDBRANCH  24  37
BRANCH  25  39
HETATM   39  O8  UNL     1      -8.782  62.078  14.718  1.00  0.00    -0.388 OA
ATOM     40  H8  UNL     1      -9.470  62.316  15.329  1.00  0.00     0.210 HD
ENDBRANCH  25  39
ENDBRANCH  18  19
ENDBRANCH  13  18
BRANCH  15  41
HETATM   41  O9  UNL     1      -4.686  60.933  17.990  1.00  0.00    -0.391 OA
ATOM     42  H9  UNL     1      -3.899  60.448  17.773  1.00  0.00     0.210 HD
ENDBRANCH  15  41
ENDBRANCH   9  10
ENDBRANCH   7   8
ENDBRANCH   5   6
ENDBRANCH   4   5
ENDBRANCH   3   4
TORSDOF 16
ENDMDL