MODEL 4
REMARK VINA RESULT: -6.379343028      1.380      1.924
REMARK  13 active torsions:
REMARK  status: ('A' for Active; 'I' for Inactive)
REMARK    1  A    between atoms: C2_2  and  C3_3
REMARK    2  A    between atoms: C3_3  and  O1_4
REMARK    3  A    between atoms: C6_7  and  N1_8
REMARK    4  A    between atoms: C7_12  and  O2_13
REMARK    5  A    between atoms: O2_13  and  C8_14
REMARK    6  A    between atoms: C12_18  and  O3_19
REMARK    7  A    between atoms: C13_21  and  O4_22
REMARK    8  A    between atoms: O4_22  and  C14_23
REMARK    9  A    between atoms: C15_25  and  C16_26
REMARK   10  A    between atoms: C16_26  and  N2_27
REMARK   11  A    between atoms: C17_31  and  O6_32
REMARK   12  A    between atoms: C18_34  and  O7_35
REMARK   13  A    between atoms: C19_37  and  O8_38
ROOT
HETATM    1  C8  UNL     1      -1.765  60.095  16.946  1.00  0.00     0.157 C
HETATM    2  C9  UNL     1      -1.191  61.413  17.398  1.00  0.00     0.015 C
HETATM    3  C10 UNL     1      -1.272  62.429  16.277  1.00  0.00     0.012 C
HETATM    4  C11 UNL     1       0.293  61.242  17.682  1.00  0.00     0.041 C
HETATM    5  C12 UNL     1       0.570  60.251  18.756  1.00  0.00     0.150 C
HETATM    6  C13 UNL     1      -0.706  59.544  19.169  1.00  0.00     0.184 C
HETATM    7  C19 UNL     1      -1.446  59.019  17.945  1.00  0.00     0.179 C
ENDROOT
BRANCH   1   8
HETATM    8  O2  UNL     1      -3.070  60.127  16.588  1.00  0.00    -0.376 OA
BRANCH   8   9
HETATM    9  C7  UNL     1      -4.038  60.318  17.519  1.00  0.00     0.153 C
HETATM   10  C6  UNL     1      -5.170  61.111  16.919  1.00  0.00     0.215 C
HETATM   11  C5  UNL     1      -6.143  61.448  18.033  1.00  0.00     0.078 C
HETATM   12  C3  UNL     1      -6.560  60.225  18.838  1.00  0.00     0.083 C
HETATM   13  C21 UNL     1      -6.134  59.008  18.022  1.00  0.00     0.023 C
HETATM   14  C20 UNL     1      -4.639  58.947  17.874  1.00  0.00     0.041 C
HETATM   15  C22 UNL     1      -6.616  57.739  18.683  1.00  0.00     0.013 C
BRANCH  10  16
HETATM   16  N1  UNL     1      -4.627  62.375  16.443  1.00  0.00    -0.072 N
ATOM     17  H13 UNL     1      -5.200  63.180  16.697  1.00  0.00     0.274 HD
ATOM     18  H12 UNL     1      -3.781  62.660  16.935  1.00  0.00     0.274 HD
ATOM     19  H11 UNL     1      -4.494  62.275  15.437  1.00  0.00     0.274 HD
ENDBRANCH  10  16
BRANCH  12  20
HETATM   20  C2  UNL     1      -5.934  60.223  20.177  1.00  0.00     0.001 C
HETATM   21  C1  UNL     1      -5.457  61.325  20.738  1.00  0.00     0.010 C
ENDBRANCH  12  20
BRANCH  12  22
HETATM   22  O1  UNL     1      -7.943  60.169  18.905  1.00  0.00    -0.381 OA
HETATM   23  C4  UNL     1      -8.608  61.116  18.174  1.00  0.00     0.203 C
ENDBRANCH  12  22
ENDBRANCH   8   9
ENDBRANCH   1   8
BRANCH   7  24
HETATM   24  O8  UNL     1      -0.602  58.042  17.391  1.00  0.00    -0.390 OA
ATOM     25  H8  UNL     1       0.099  58.438  16.886  1.00  0.00     0.210 HD
ENDBRANCH   7  24
BRANCH   6  26
HETATM   26  O4  UNL     1      -0.429  58.536  20.070  1.00  0.00    -0.348 OA
BRANCH  26  27
HETATM   27  C14 UNL     1      -0.062  59.051  21.304  1.00  0.00     0.292 C
HETATM   28  O5  UNL     1       1.284  58.882  21.577  1.00  0.00    -0.349 OA
HETATM   29  C15 UNL     1       1.420  58.126  22.709  1.00  0.00     0.181 C
HETATM   30  C17 UNL     1       0.146  58.267  23.508  1.00  0.00     0.182 C
HETATM   31  C18 UNL     1      -0.869  58.499  22.434  1.00  0.00     0.204 C
BRANCH  29  32
HETATM   32  C16 UNL     1       1.513  56.667  22.280  1.00  0.00     0.264 C
BRANCH  32  33
HETATM   33  N2  UNL     1       2.547  56.471  21.295  1.00  0.00    -0.077 N
ATOM     34  H23 UNL     1       2.309  55.720  20.648  1.00  0.00     0.274 HD
ATOM     35  H22 UNL     1       2.583  57.245  20.631  1.00  0.00     0.274 HD
ATOM     36  H21 UNL     1       3.455  56.313  21.732  1.00  0.00     0.274 HD
ENDBRANCH  32  33
ENDBRANCH  29  32
BRANCH  30  37
HETATM   37  O6  UNL     1       0.247  59.321  24.413  1.00  0.00    -0.390 OA
ATOM     38  H6  UNL     1      -0.587  59.768  24.504  1.00  0.00     0.210 HD
ENDBRANCH  30  37
BRANCH  31  39
HETATM   39  O7  UNL     1      -1.834  59.428  22.869  1.00  0.00    -0.388 OA
ATOM     40  H7  UNL     1      -2.392  59.053  23.541  1.00  0.00     0.210 HD
ENDBRANCH  31  39
ENDBRANCH  26  27
ENDBRANCH   6  26
BRANCH   5  41
HETATM   41  O3  UNL     1       1.577  59.347  18.431  1.00  0.00    -0.393 OA
ATOM     42  H3  UNL     1       2.451  59.707  18.520  1.00  0.00     0.210 HD
ENDBRANCH   5  41
TORSDOF 13
ENDMDL