MODEL 5
REMARK VINA RESULT: -6.962455048      1.377      1.982
REMARK  13 active torsions:
REMARK  status: ('A' for Active; 'I' for Inactive)
REMARK    1  A    between atoms: C2_2  and  C3_3
REMARK    2  A    between atoms: C3_3  and  C4_4
REMARK    3  A    between atoms: C4_4  and  C5_5
REMARK    4  A    between atoms: C5_5  and  C6_6
REMARK    5  A    between atoms: C7_7  and  C8_8
REMARK    6  A    between atoms: C8_8  and  C9_9
REMARK    7  A    between atoms: C16_19  and  O4_20
REMARK    8  A    between atoms: C17_22  and  O5_23
REMARK    9  A    between atoms: C18_25  and  O6_26
REMARK   10  A    between atoms: C19_28  and  O7_29
REMARK   11  A    between atoms: C20_31  and  C21_32
REMARK   12  A    between atoms: C21_32  and  O8_33
REMARK   13  A    between atoms: C22_36  and  O10_37
ROOT
HETATM    1  C9  UNL     1      -6.107  59.922  18.542  1.00  0.00     0.135 C
HETATM    2  O1  UNL     1      -6.389  60.114  17.165  1.00  0.00    -0.341 OA
HETATM    3  C10 UNL     1      -6.133  61.467  16.967  1.00  0.00     0.294 C
HETATM    4  O2  UNL     1      -6.961  62.019  15.993  1.00  0.00    -0.324 OA
HETATM    5  C11 UNL     1      -7.260  63.292  16.481  1.00  0.00     0.160 C
HETATM    6  C12 UNL     1      -8.378  63.949  15.731  1.00  0.00     0.078 C
HETATM    7  C13 UNL     1      -6.019  64.173  16.475  1.00  0.00     0.078 C
HETATM    8  O3  UNL     1      -7.630  63.014  17.816  1.00  0.00    -0.345 OA
HETATM    9  C14 UNL     1      -6.622  62.178  18.211  1.00  0.00     0.190 C
HETATM   10  C15 UNL     1      -6.995  61.070  19.104  1.00  0.00     0.092 C
HETATM   11  C16 UNL     1      -8.362  60.511  18.943  1.00  0.00     0.170 C
HETATM   12  C17 UNL     1      -8.246  59.073  18.605  1.00  0.00     0.171 C
HETATM   13  C18 UNL     1      -9.131  58.157  19.406  1.00  0.00     0.192 C
HETATM   14  C19 UNL     1      -8.678  56.768  19.004  1.00  0.00     0.181 C
HETATM   15  C20 UNL     1      -7.201  56.587  19.349  1.00  0.00     0.180 C
HETATM   16  O9  UNL     1      -6.432  57.516  18.669  1.00  0.00    -0.340 OA
HETATM   17  C22 UNL     1      -6.813  58.768  19.110  1.00  0.00     0.232 C
ENDROOT
BRANCH   1  18
HETATM   18  C8  UNL     1      -4.693  60.165  18.866  1.00  0.00     0.071 C
BRANCH  18  19
HETATM   19  C7  UNL     1      -4.510  60.480  20.300  1.00  0.00    -0.027 C
HETATM   20  C6  UNL     1      -3.291  60.458  20.906  1.00  0.00    -0.031 C
BRANCH  20  21
HETATM   21  C5  UNL     1      -3.188  60.779  22.322  1.00  0.00     0.027 C
BRANCH  21  22
HETATM   22  C4  UNL     1      -1.889  60.616  23.003  1.00  0.00     0.007 C
BRANCH  22  23
HETATM   23  C3  UNL     1      -0.797  59.998  22.213  1.00  0.00     0.026 C
BRANCH  23  24
HETATM   24  C2  UNL     1      -0.477  58.611  22.516  1.00  0.00    -0.037 C
HETATM   25  C1  UNL     1       0.192  57.887  21.582  1.00  0.00     0.007 C
ENDBRANCH  23  24
ENDBRANCH  22  23
ENDBRANCH  21  22
ENDBRANCH  20  21
ENDBRANCH  18  19
ENDBRANCH   1  18
BRANCH  17  26
HETATM   26  O10 UNL     1      -6.862  58.875  20.499  1.00  0.00    -0.360 OA
ATOM     27  H10 UNL     1      -7.663  58.485  20.827  1.00  0.00     0.213 HD
ENDBRANCH  17  26
BRANCH  11  28
HETATM   28  O4  UNL     1      -9.105  61.138  17.943  1.00  0.00    -0.392 OA
ATOM     29  H4  UNL     1      -8.874  60.855  17.067  1.00  0.00     0.210 HD
ENDBRANCH  11  28
BRANCH  12  30
HETATM   30  O5  UNL     1      -8.375  58.771  17.274  1.00  0.00    -0.379 OA
ATOM     31  H5  UNL     1      -9.189  59.049  16.870  1.00  0.00     0.211 HD
ENDBRANCH  12  30
BRANCH  13  32
HETATM   32  O6  UNL     1     -10.477  58.263  19.053  1.00  0.00    -0.390 OA
ATOM     33  H6  UNL     1     -10.717  57.680  18.342  1.00  0.00     0.210 HD
ENDBRANCH  13  32
BRANCH  15  34
HETATM   34  C21 UNL     1      -6.797  55.154  19.084  1.00  0.00     0.198 C
BRANCH  34  35
HETATM   35  O8  UNL     1      -6.685  54.393  20.231  1.00  0.00    -0.398 OA
ATOM     36  H8  UNL     1      -6.217  53.578  20.100  1.00  0.00     0.209 HD
ENDBRANCH  34  35
ENDBRANCH  15  34
BRANCH  14  37
HETATM   37  O7  UNL     1      -9.444  55.768  19.542  1.00  0.00    -0.390 OA
ATOM     38  H7  UNL     1      -8.998  55.273  20.219  1.00  0.00     0.210 HD
ENDBRANCH  14  37
TORSDOF 13
ENDMDL