MODEL 3
REMARK VINA RESULT: -7.057942652      1.394      3.014
REMARK  12 active torsions:
REMARK  status: ('A' for Active; 'I' for Inactive)
REMARK    1  A    between atoms: C2_2  and  C3_3
REMARK    2  A    between atoms: C3_3  and  C4_4
REMARK    3  A    between atoms: C4_4  and  C5_5
REMARK    4  A    between atoms: C5_5  and  C6_6
REMARK    5  A    between atoms: C11_13  and  N2_14
REMARK    6  A    between atoms: N2_14  and  C12_16
REMARK    7  A    between atoms: C13_18  and  C14_19
REMARK    8  A    between atoms: C14_19  and  O3_20
REMARK    9  A    between atoms: C15_22  and  O4_23
REMARK   10  A    between atoms: C16_25  and  O5_26
REMARK   11  A    between atoms: C17_28  and  O6_29
REMARK   12  A    between atoms: C21_36  and  O9_37
ROOT
HETATM    1  C6  UNL     1      -0.890  59.224  21.615  1.00  0.00     0.177 C
HETATM    2  O1  UNL     1       0.350  58.737  21.914  1.00  0.00    -0.295 OA
HETATM    3  N1  UNL     1       0.386  57.417  22.026  1.00  0.00    -0.186 NA
HETATM    4  C7  UNL     1       0.801  57.166  23.425  1.00  0.00     0.121 C
HETATM    5  C8  UNL     1       1.031  55.695  23.482  1.00  0.00     0.019 C
HETATM    6  C9  UNL     1       1.427  55.415  22.012  1.00  0.00     0.029 C
HETATM    7  C10 UNL     1       1.501  56.748  21.354  1.00  0.00     0.134 C
HETATM    8  C11 UNL     1       1.480  56.782  19.913  1.00  0.00     0.036 C
HETATM    9  C18 UNL     1       0.979  58.169  19.378  1.00  0.00     0.202 C
HETATM   10  O7  UNL     1       1.334  58.157  18.033  1.00  0.00    -0.353 OA
HETATM   11  C19 UNL     1       0.175  58.184  17.294  1.00  0.00     0.339 C
HETATM   12  O8  UNL     1      -0.865  58.602  18.075  1.00  0.00    -0.356 OA
HETATM   13  C20 UNL     1      -0.478  58.330  19.408  1.00  0.00     0.190 C
HETATM   14  C21 UNL     1      -0.918  59.604  20.153  1.00  0.00     0.180 C
ENDROOT
BRANCH   8  15
HETATM   15  N2  UNL     1       1.242  55.826  18.960  1.00  0.00    -0.365 N
ATOM     16  H2  UNL     1       0.249  55.644  18.818  1.00  0.00     0.162 HD
BRANCH  15  17
HETATM   17  C12 UNL     1       2.047  55.061  18.158  1.00  0.00     0.253 C
HETATM   18  O2  UNL     1       1.366  54.769  16.917  1.00  0.00    -0.354 OA
HETATM   19  C13 UNL     1       1.669  53.493  16.509  1.00  0.00     0.179 C
HETATM   20  C15 UNL     1       3.128  53.436  16.083  1.00  0.00     0.180 C
HETATM   21  C16 UNL     1       4.021  54.140  17.015  1.00  0.00     0.182 C
HETATM   22  C17 UNL     1       3.427  55.353  17.748  1.00  0.00     0.198 C
BRANCH  19  23
HETATM   23  C14 UNL     1       0.768  53.124  15.360  1.00  0.00     0.198 C
BRANCH  23  24
HETATM   24  O3  UNL     1       0.563  51.762  15.244  1.00  0.00    -0.398 OA
ATOM     25  H3  UNL     1      -0.342  51.532  15.069  1.00  0.00     0.209 HD
ENDBRANCH  23  24
ENDBRANCH  19  23
BRANCH  20  26
HETATM   26  O4  UNL     1       3.469  52.063  16.105  1.00  0.00    -0.390 OA
ATOM     27  H4  UNL     1       3.321  51.755  15.219  1.00  0.00     0.210 HD
ENDBRANCH  20  26
BRANCH  21  28
HETATM   28  O5  UNL     1       5.141  54.580  16.262  1.00  0.00    -0.390 OA
ATOM     29  H5  UNL     1       5.654  53.809  16.052  1.00  0.00     0.210 HD
ENDBRANCH  21  28
BRANCH  22  30
HETATM   30  O6  UNL     1       4.300  55.509  18.857  1.00  0.00    -0.389 OA
ATOM     31  H6  UNL     1       4.846  54.745  18.998  1.00  0.00     0.210 HD
ENDBRANCH  22  30
ENDBRANCH  15  17
ENDBRANCH   8  15
BRANCH  14  32
HETATM   32  O9  UNL     1      -0.085  60.647  19.836  1.00  0.00    -0.390 OA
ATOM     33  H9  UNL     1      -0.057  60.848  18.908  1.00  0.00     0.210 HD
ENDBRANCH  14  32
BRANCH   1  34
HETATM   34  C5  UNL     1      -1.473  60.248  22.508  1.00  0.00     0.036 C
BRANCH  34  35
HETATM   35  C4  UNL     1      -2.898  60.596  22.343  1.00  0.00     0.003 C
BRANCH  35  36
HETATM   36  C3  UNL     1      -3.283  61.656  23.348  1.00  0.00    -0.000 C
BRANCH  36  37
HETATM   37  C2  UNL     1      -2.268  61.953  24.390  1.00  0.00    -0.005 C
HETATM   38  C1  UNL     1      -2.965  62.799  25.467  1.00  0.00     0.005 C
ENDBRANCH  36  37
ENDBRANCH  35  36
ENDBRANCH  34  35
ENDBRANCH   1  34
TORSDOF 12
ENDMDL