MODEL 2
REMARK VINA RESULT: -6.362881614      2.586      4.303
REMARK  11 active torsions:
REMARK  status: ('A' for Active; 'I' for Inactive)
REMARK    1  A    between atoms: C2_2  and  C3_3
REMARK    2  A    between atoms: C3_3  and  N1_4
REMARK       I    between atoms: N1_4  and  C4_6
REMARK    3  A    between atoms: C4_6  and  C5_8
REMARK    4  A    between atoms: C6_10  and  S1_11
REMARK    5  A    between atoms: S1_11  and  C7_12
REMARK    6  A    between atoms: C8_14  and  C9_15
REMARK    7  A    between atoms: C9_15  and  N2_16
REMARK    8  A    between atoms: C10_20  and  O4_21
REMARK    9  A    between atoms: C11_23  and  O5_24
REMARK   10  A    between atoms: C12_26  and  N3_27
REMARK   11  A    between atoms: C17_35  and  N4_36
REMARK       I    between atoms: N4_36  and  C18_38
ROOT
HETATM    1  C5  UNL     1      -4.898  60.552  18.837  1.00  0.00     0.237 C
HETATM    2  O2  UNL     1      -3.626  60.652  19.394  1.00  0.00    -0.358 OA
HETATM    3  C6  UNL     1      -2.749  59.719  18.804  1.00  0.00     0.194 C
HETATM    4  C13 UNL     1      -2.413  60.165  17.387  1.00  0.00    -0.010 C
HETATM    5  C14 UNL     1      -1.342  61.211  17.360  1.00  0.00     0.018 C
HETATM    6  C15 UNL     1      -2.087  58.997  16.482  1.00  0.00     0.018 C
HETATM    7  C16 UNL     1      -3.683  60.790  16.758  1.00  0.00     0.040 C
HETATM    8  C17 UNL     1      -4.853  60.085  17.408  1.00  0.00     0.123 C
ENDROOT
BRANCH   3   9
HETATM    9  S1  UNL     1      -1.262  59.736  19.809  1.00  0.00    -0.103 SA
BRANCH   9  10
HETATM   10  C7  UNL     1      -1.525  59.386  21.556  1.00  0.00     0.218 C
HETATM   11  O3  UNL     1      -0.892  58.248  21.904  1.00  0.00    -0.364 OA
HETATM   12  C8  UNL     1      -0.240  58.201  23.103  1.00  0.00     0.179 C
HETATM   13  C10 UNL     1       0.786  59.316  23.110  1.00  0.00     0.179 C
HETATM   14  C11 UNL     1       0.019  60.608  23.140  1.00  0.00     0.183 C
HETATM   15  C12 UNL     1      -1.263  60.588  22.403  1.00  0.00     0.253 C
BRANCH  12  16
HETATM   16  C9  UNL     1       0.523  56.870  23.137  1.00  0.00     0.264 C
BRANCH  16  17
HETATM   17  N2  UNL     1       1.719  56.974  23.920  1.00  0.00    -0.077 N
ATOM     18  H23 UNL     1       2.451  56.357  23.569  1.00  0.00     0.274 HD
ATOM     19  H22 UNL     1       2.185  57.870  23.774  1.00  0.00     0.274 HD
ATOM     20  H21 UNL     1       1.530  56.807  24.908  1.00  0.00     0.274 HD
ENDBRANCH  16  17
ENDBRANCH  12  16
BRANCH  13  21
HETATM   21  O4  UNL     1       1.543  59.264  21.965  1.00  0.00    -0.390 OA
ATOM     22  H4  UNL     1       0.977  59.274  21.202  1.00  0.00     0.210 HD
ENDBRANCH  13  21
BRANCH  14  23
HETATM   23  O5  UNL     1      -0.206  60.899  24.507  1.00  0.00    -0.391 OA
ATOM     24  H5  UNL     1       0.326  61.661  24.704  1.00  0.00     0.210 HD
ENDBRANCH  14  23
BRANCH  15  25
HETATM   25  N3  UNL     1      -2.363  60.858  23.324  1.00  0.00    -0.069 N
ATOM     26  H33 UNL     1      -2.324  61.814  23.678  1.00  0.00     0.275 HD
ATOM     27  H32 UNL     1      -3.255  60.904  22.833  1.00  0.00     0.275 HD
ATOM     28  H31 UNL     1      -2.395  60.182  24.088  1.00  0.00     0.275 HD
ENDBRANCH  15  25
ENDBRANCH   9  10
ENDBRANCH   3   9
BRANCH   1  29
HETATM   29  C4  UNL     1      -5.791  59.683  19.689  1.00  0.00     0.248 C
HETATM   30  N1  UNL     1      -6.363  58.551  19.108  1.00  0.00    -0.359 N
ATOM     31  H1  UNL     1      -6.124  58.419  18.125  1.00  0.00     0.162 HD
HETATM   32  O1  UNL     1      -5.946  60.052  20.859  1.00  0.00    -0.271 OA
BRANCH  30  33
HETATM   33  C3  UNL     1      -7.215  57.551  19.637  1.00  0.00     0.122 C
BRANCH  33  34
HETATM   34  C2  UNL     1      -8.615  57.447  19.173  1.00  0.00     0.015 C
HETATM   35  C1  UNL     1      -9.635  58.358  19.775  1.00  0.00     0.006 C
ENDBRANCH  33  34
ENDBRANCH  30  33
ENDBRANCH   1  29
BRANCH   8  36
HETATM   36  N4  UNL     1      -6.060  60.491  16.702  1.00  0.00    -0.354 N
HETATM   37  C18 UNL     1      -6.828  59.518  16.016  1.00  0.00     0.214 C
HETATM   38  C19 UNL     1      -8.065  59.876  15.280  1.00  0.00     0.117 C
HETATM   39  O6  UNL     1      -6.467  58.317  16.022  1.00  0.00    -0.274 OA
ATOM     40  H4  UNL     1      -6.350  61.469  16.700  1.00  0.00     0.162 HD
ENDBRANCH   8  36
TORSDOF 11
ENDMDL