MODEL 5
REMARK VINA RESULT: -6.661417422      3.631      6.633
REMARK  11 active torsions:
REMARK  status: ('A' for Active; 'I' for Inactive)
REMARK       I    between atoms: C1_2  and  N1_3
REMARK    1  A    between atoms: C1_2  and  C18_33
REMARK    2  A    between atoms: N1_3  and  C2_5
REMARK    3  A    between atoms: C4_8  and  O3_9
REMARK    4  A    between atoms: O3_9  and  C5_10
REMARK    5  A    between atoms: C6_12  and  C7_13
REMARK    6  A    between atoms: C7_13  and  O5_14
REMARK    7  A    between atoms: C8_16  and  O6_17
REMARK    8  A    between atoms: C9_19  and  O7_20
REMARK    9  A    between atoms: C10_22  and  O8_23
REMARK   10  A    between atoms: C11_25  and  O9_26
REMARK   11  A    between atoms: O9_26  and  C12_27
ROOT
HETATM    1  C2  UNL     1       1.293  57.682  17.084  1.00  0.00     0.142 C
HETATM    2  C3  UNL     1      -0.152  57.157  16.997  1.00  0.00     0.199 C
HETATM    3  O2  UNL     1      -0.936  58.076  17.643  1.00  0.00    -0.356 OA
HETATM    4  C4  UNL     1      -0.138  58.441  18.759  1.00  0.00     0.293 C
HETATM    5  C11 UNL     1       1.139  58.804  18.051  1.00  0.00     0.202 C
ENDROOT
BRANCH   4   6
HETATM    6  O3  UNL     1      -0.039  57.321  19.535  1.00  0.00    -0.326 OA
BRANCH   6   7
HETATM    7  C5  UNL     1       0.790  57.642  20.629  1.00  0.00     0.294 C
HETATM    8  O4  UNL     1       0.053  58.177  21.675  1.00  0.00    -0.348 OA
HETATM    9  C6  UNL     1       0.957  58.679  22.602  1.00  0.00     0.179 C
HETATM   10  C8  UNL     1       1.782  57.609  23.279  1.00  0.00     0.180 C
HETATM   11  C9  UNL     1       1.476  56.287  22.608  1.00  0.00     0.183 C
HETATM   12  C10 UNL     1       1.537  56.413  21.104  1.00  0.00     0.204 C
BRANCH   9  13
HETATM   13  C7  UNL     1       0.266  59.561  23.630  1.00  0.00     0.198 C
BRANCH  13  14
HETATM   14  O5  UNL     1       0.138  60.867  23.161  1.00  0.00    -0.398 OA
ATOM     15  H5  UNL     1      -0.377  60.894  22.364  1.00  0.00     0.209 HD
ENDBRANCH  13  14
ENDBRANCH   9  13
BRANCH  10  16
HETATM   16  O6  UNL     1       3.148  57.869  23.169  1.00  0.00    -0.390 OA
ATOM     17  H6  UNL     1       3.329  58.802  23.195  1.00  0.00     0.210 HD
ENDBRANCH  10  16
BRANCH  11  18
HETATM   18  O7  UNL     1       2.444  55.363  23.013  1.00  0.00    -0.390 OA
ATOM     19  H7  UNL     1       2.200  54.512  22.668  1.00  0.00     0.210 HD
ENDBRANCH  11  18
BRANCH  12  20
HETATM   20  O8  UNL     1       2.916  56.496  20.788  1.00  0.00    -0.388 OA
ATOM     21  H8  UNL     1       3.301  55.632  20.696  1.00  0.00     0.210 HD
ENDBRANCH  12  20
ENDBRANCH   6   7
ENDBRANCH   4   6
BRANCH   5  22
HETATM   22  O9  UNL     1       1.204  60.067  17.542  1.00  0.00    -0.373 OA
BRANCH  22  23
HETATM   23  C12 UNL     1       1.773  60.146  16.285  1.00  0.00     0.122 C
HETATM   24  C13 UNL     1       3.268  60.449  16.326  1.00  0.00     0.032 C
HETATM   25  C14 UNL     1       3.827  60.120  14.960  1.00  0.00     0.002 C
HETATM   26  C15 UNL     1       2.934  60.688  13.911  1.00  0.00     0.000 C
HETATM   27  C16 UNL     1       2.034  61.788  14.418  1.00  0.00     0.002 C
HETATM   28  C17 UNL     1       1.152  61.317  15.535  1.00  0.00     0.032 C
ENDBRANCH  22  23
ENDBRANCH   5  22
BRANCH   1  29
HETATM   29  N1  UNL     1       2.109  56.584  17.556  1.00  0.00    -0.350 N
HETATM   30  C1  UNL     1       3.173  56.020  16.851  1.00  0.00     0.249 C
HETATM   31  O1  UNL     1       3.473  56.467  15.722  1.00  0.00    -0.271 OA
ATOM     32  H1  UNL     1       1.890  56.194  18.473  1.00  0.00     0.163 HD
BRANCH  30  33
HETATM   33  C18 UNL     1       3.947  54.898  17.423  1.00  0.00     0.277 C
HETATM   34  C19 UNL     1       4.560  54.015  16.390  1.00  0.00     0.044 C
HETATM   35  C20 UNL     1       3.945  52.671  16.614  1.00  0.00     0.030 C
HETATM   36  C21 UNL     1       3.537  52.712  18.069  1.00  0.00     0.233 C
HETATM   37  N2  UNL     1       3.151  54.089  18.317  1.00  0.00    -0.062 N
ATOM     38  H22 UNL     1       3.235  54.363  19.296  1.00  0.00     0.278 HD
ATOM     39  H21 UNL     1       2.149  54.252  18.227  1.00  0.00     0.278 HD
ENDBRANCH  30  33
ENDBRANCH   1  29
TORSDOF 11
ENDMDL