MODEL 4
REMARK VINA RESULT: -5.128331790      1.062      2.190
REMARK  3 active torsions:
REMARK  status: ('A' for Active; 'I' for Inactive)
REMARK    1  A    between atoms: C2_2  and  N1_4
REMARK    2  A    between atoms: N1_4  and  N2_5
REMARK    3  A    between atoms: N1_4  and  N3_8
ROOT
HETATM    1  N3  UNL     1      12.582  35.684  35.537  1.00  0.00    -0.273 N
ATOM      2  H3  UNL     1      12.423  35.010  36.286  1.00  0.00     0.190 HD
HETATM    3  C4  UNL     1      11.739  35.704  34.565  1.00  0.00     0.093 C
HETATM    4  C5  UNL     1      10.611  34.755  34.608  1.00  0.00     0.077 C
HETATM    5  C6  UNL     1       9.552  35.075  33.573  1.00  0.00     0.009 C
HETATM    6  C7  UNL     1      10.228  35.534  32.285  1.00  0.00     0.020 C
HETATM    7  C8  UNL     1      10.838  36.898  32.599  1.00  0.00     0.121 C
HETATM    8  N4  UNL     1      11.946  36.633  33.517  1.00  0.00    -0.379 N
ATOM      9  H4  UNL     1      12.843  37.105  33.405  1.00  0.00     0.160 HD
ENDROOT
BRANCH   1  10
HETATM   10  N1  UNL     1      13.698  36.515  35.644  1.00  0.00    -0.235 N
BRANCH  10  11
HETATM   11  C2  UNL     1      14.286  36.710  36.939  1.00  0.00     0.118 C
HETATM   12  C1  UNL     1      14.248  38.219  37.214  1.00  0.00     0.035 C
HETATM   13  C3  UNL     1      13.536  35.977  38.028  1.00  0.00     0.035 C
ENDBRANCH  10  11
BRANCH  10  14
HETATM   14  N2  UNL     1      14.178  37.113  34.476  1.00  0.00    -0.328 N
ATOM     15  H22 UNL     1      13.787  36.800  33.588  1.00  0.00     0.178 HD
ATOM     16  H21 UNL     1      14.893  37.841  34.464  1.00  0.00     0.178 HD
ENDBRANCH  10  14
ENDBRANCH   1  10
TORSDOF 3
ENDMDL