MODEL 2
REMARK VINA RESULT: -5.177047969      1.150      1.396
REMARK  3 active torsions:
REMARK  status: ('A' for Active; 'I' for Inactive)
REMARK    1  A    between atoms: C2_2  and  O1_3
REMARK    2  A    between atoms: O1_3  and  C3_4
REMARK    3  A    between atoms: C4_7  and  N2_8
ROOT
HETATM    1  C3  UNL     1      14.919  38.675  37.176  1.00  0.00     0.254 A
HETATM    2  N1  UNL     1      15.997  39.052  37.940  1.00  0.00    -0.153 N
ATOM      3  H1  UNL     1      16.220  38.727  38.881  1.00  0.00     0.188 HD
HETATM    4  C4  UNL     1      16.698  39.929  37.211  1.00  0.00     0.693 A
HETATM    5  N3  UNL     1      16.062  40.071  36.051  1.00  0.00    -0.129 N
ATOM      6  H3  UNL     1      16.372  40.684  35.297  1.00  0.00     0.205 HD
HETATM    7  N4  UNL     1      14.978  39.321  36.002  1.00  0.00    -0.250 N
ATOM      8  H4  UNL     1      14.319  39.247  35.227  1.00  0.00     0.191 HD
ENDROOT
BRANCH   1   9
HETATM    9  O1  UNL     1      13.934  37.778  37.550  1.00  0.00    -0.310 OA
BRANCH   9  10
HETATM   10  C2  UNL     1      14.221  36.404  37.613  1.00  0.00     0.067 C
HETATM   11  C1  UNL     1      14.725  35.995  38.949  1.00  0.00     0.047 C
HETATM   12  C5  UNL     1      13.075  35.504  37.193  1.00  0.00     0.038 C
HETATM   13  C6  UNL     1      13.637  35.539  35.790  1.00  0.00     0.006 C
HETATM   14  C7  UNL     1      14.983  35.902  36.416  1.00  0.00     0.038 C
ENDBRANCH   9  10
ENDBRANCH   1   9
BRANCH   4  15
HETATM   15  N2  UNL     1      17.801  40.548  37.543  1.00  0.00    -0.233 N
ATOM     16  H22 UNL     1      18.631  40.099  37.930  1.00  0.00     0.174 HD
ATOM     17  H21 UNL     1      18.006  41.545  37.469  1.00  0.00     0.174 HD
ENDBRANCH   4  15
TORSDOF 3
ENDMDL