MODEL 3
REMARK VINA RESULT: -4.488227072      1.304      1.684
REMARK  2 active torsions:
REMARK  status: ('A' for Active; 'I' for Inactive)
REMARK    1  A    between atoms: C2_2  and  C3_3
REMARK    2  A    between atoms: C2_2  and  C4_5
ROOT
HETATM    1  C4  UNL     1      12.633  36.359  35.241  1.00  0.00     0.194 C
HETATM    2  C5  UNL     1      12.568  34.843  35.378  1.00  0.00     0.061 C
HETATM    3  C6  UNL     1      11.085  34.548  35.640  1.00  0.00     0.236 C
HETATM    4  N1  UNL     1      10.288  35.309  34.722  1.00  0.00    -0.051 N
ATOM      5  H11 UNL     1       9.818  36.075  35.205  1.00  0.00     0.279 HD
ATOM      6  H12 UNL     1       9.475  34.771  34.422  1.00  0.00     0.279 HD
HETATM    7  C7  UNL     1      11.018  35.801  33.582  1.00  0.00     0.463 C
HETATM    8  N2  UNL     1      12.096  36.692  33.953  1.00  0.00    -0.047 N
ATOM      9  H21 UNL     1      12.825  36.714  33.240  1.00  0.00     0.279 HD
ATOM     10  H22 UNL     1      11.804  37.668  33.912  1.00  0.00     0.279 HD
ENDROOT
BRANCH   1  11
HETATM   11  C2  UNL     1      14.037  36.863  35.451  1.00  0.00     0.022 C
HETATM   12  C1  UNL     1      14.055  38.115  36.258  1.00  0.00     0.012 C
BRANCH  11  13
HETATM   13  C3  UNL     1      14.869  35.803  36.085  1.00  0.00     0.092 C
HETATM   14  S1  UNL     1      15.303  36.283  37.781  1.00  0.00    -0.097 SA
ENDBRANCH  11  13
ENDBRANCH   1  11
TORSDOF 2
ENDMDL