MODEL 2
REMARK VINA RESULT: -4.381529696      4.228      6.276
REMARK  4 active torsions:
REMARK  status: ('A' for Active; 'I' for Inactive)
REMARK    1  A    between atoms: C2_2  and  C4_4
REMARK    2  A    between atoms: C5_7  and  C6_8
REMARK    3  A    between atoms: C6_8  and  N2_9
REMARK    4  A    between atoms: C9_15  and  N3_16
ROOT
HETATM    1  C4  UNL     1      14.288  37.339  37.073  1.00  0.00     0.110 C
HETATM    2  N1  UNL     1      15.461  38.090  36.768  1.00  0.00    -0.409 N
ATOM      3  H1  UNL     1      15.942  38.000  35.872  1.00  0.00     0.154 HD
HETATM    4  C5  UNL     1      15.921  38.967  37.782  1.00  0.00     0.102 C
HETATM    5  C7  UNL     1      16.056  38.353  39.137  1.00  0.00     0.028 C
HETATM    6  C8  UNL     1      15.450  36.990  39.257  1.00  0.00     0.037 C
HETATM    7  C9  UNL     1      14.132  36.979  38.520  1.00  0.00     0.206 C
ENDROOT
BRANCH   4   8
HETATM    8  C6  UNL     1      17.316  39.445  37.359  1.00  0.00     0.254 C
BRANCH   8   9
HETATM    9  N2  UNL     1      17.121  40.440  36.328  1.00  0.00    -0.077 N
ATOM     10  H23 UNL     1      17.647  40.245  35.476  1.00  0.00     0.274 HD
ATOM     11  H22 UNL     1      16.190  40.411  35.912  1.00  0.00     0.274 HD
ATOM     12  H21 UNL     1      17.350  41.343  36.744  1.00  0.00     0.274 HD
ENDBRANCH   8   9
ENDBRANCH   4   8
BRANCH   1  13
HETATM   13  C2  UNL     1      14.267  36.136  36.150  1.00  0.00     0.002 C
HETATM   14  C1  UNL     1      15.666  35.659  35.820  1.00  0.00     0.011 C
HETATM   15  C3  UNL     1      13.670  36.633  34.829  1.00  0.00     0.011 C
ENDBRANCH   1  13
BRANCH   7  16
HETATM   16  N3  UNL     1      13.511  35.708  38.746  1.00  0.00    -0.073 N
ATOM     17  H33 UNL     1      13.215  35.294  37.862  1.00  0.00     0.274 HD
ATOM     18  H32 UNL     1      14.204  35.019  39.037  1.00  0.00     0.274 HD
ATOM     19  H31 UNL     1      12.734  35.734  39.407  1.00  0.00     0.274 HD
ENDBRANCH   7  16
TORSDOF 4
ENDMDL