MODEL 1
REMARK VINA RESULT: -5.037116240      0.000      0.000
REMARK  4 active torsions:
REMARK  status: ('A' for Active; 'I' for Inactive)
REMARK    1  A    between atoms: C2_2  and  N1_4
REMARK    2  A    between atoms: C2_2  and  C4_8
REMARK    3  A    between atoms: C4_8  and  O1_9
REMARK    4  A    between atoms: C4_8  and  C5_11
ROOT
HETATM    1  C4  UNL     1      14.967  38.978  36.880  1.00  0.00     0.157 C
ENDROOT
BRANCH   1   2
HETATM    2  C2  UNL     1      16.262  39.560  37.336  1.00  0.00     0.142 C
HETATM    3  C1  UNL     1      16.139  40.345  38.626  1.00  0.00     0.048 C
HETATM    4  C3  UNL     1      17.354  38.540  37.544  1.00  0.00     0.048 C
BRANCH   2   5
HETATM    5  N1  UNL     1      16.756  40.518  36.335  1.00  0.00    -0.069 N
ATOM      6  H13 UNL     1      17.395  41.215  36.716  1.00  0.00     0.275 HD
ATOM      7  H12 UNL     1      17.407  40.110  35.664  1.00  0.00     0.275 HD
ATOM      8  H11 UNL     1      15.922  40.918  35.904  1.00  0.00     0.275 HD
ENDBRANCH   2   5
ENDBRANCH   1   2
BRANCH   1   9
HETATM    9  O1  UNL     1      14.591  39.591  35.692  1.00  0.00    -0.393 OA
ATOM     10  H1  UNL     1      13.762  40.036  35.823  1.00  0.00     0.210 HD
ENDBRANCH   1   9
BRANCH   1  11
HETATM   11  C5  UNL     1      14.900  37.500  36.773  1.00  0.00     0.017 C
HETATM   12  C6  UNL     1      14.109  36.984  37.986  1.00  0.00     0.007 C
HETATM   13  C7  UNL     1      13.369  35.770  37.526  1.00  0.00     0.000 C
HETATM   14  C8  UNL     1      13.835  35.525  36.108  1.00  0.00     0.000 C
HETATM   15  C9  UNL     1      14.077  36.968  35.639  1.00  0.00     0.007 C
ENDBRANCH   1  11
TORSDOF 4
ENDMDL