MODEL 4
REMARK VINA RESULT: -4.646023357      1.850      3.422
REMARK  3 active torsions:
REMARK  status: ('A' for Active; 'I' for Inactive)
REMARK    1  A    between atoms: C2_2  and  C3_3
REMARK    2  A    between atoms: C3_3  and  N1_4
REMARK    3  A    between atoms: N1_4  and  C4_6
ROOT
HETATM    1  N1  UNL     1      16.456  36.617  36.501  1.00  0.00    -0.365 N
ATOM      2  H1  UNL     1      16.854  37.033  35.659  1.00  0.00     0.157 HD
ENDROOT
BRANCH   1   3
HETATM    3  C3  UNL     1      15.100  36.805  36.744  1.00  0.00     0.028 C
HETATM    4  C6  UNL     1      14.773  36.027  38.034  1.00  0.00     0.031 C
HETATM    5  C7  UNL     1      13.310  35.706  37.965  1.00  0.00     0.002 C
HETATM    6  C8  UNL     1      13.103  35.421  36.509  1.00  0.00     0.002 C
HETATM    7  C9  UNL     1      14.201  36.098  35.752  1.00  0.00     0.031 C
BRANCH   3   8
HETATM    8  C2  UNL     1      14.573  38.179  36.942  1.00  0.00     0.026 C
HETATM    9  C1  UNL     1      15.066  38.942  38.110  1.00  0.00     0.007 C
ENDBRANCH   3   8
ENDBRANCH   1   3
BRANCH   1  10
HETATM   10  C4  UNL     1      17.300  35.894  37.337  1.00  0.00     0.485 C
HETATM   11  N2  UNL     1      18.412  35.351  36.520  1.00  0.00    -0.005 N
HETATM   12  C5  UNL     1      19.155  36.561  36.813  1.00  0.00     0.472 C
ATOM     13  H22 UNL     1      18.808  34.433  36.722  1.00  0.00     0.283 HD
ATOM     14  H21 UNL     1      18.256  35.054  35.558  1.00  0.00     0.283 HD
HETATM   15  N3  UNL     1      18.353  36.693  38.015  1.00  0.00    -0.005 N
ATOM     16  H32 UNL     1      18.142  37.611  38.407  1.00  0.00     0.283 HD
ATOM     17  H31 UNL     1      18.721  36.410  38.924  1.00  0.00     0.283 HD
ENDBRANCH   1  10
TORSDOF 3
ENDMDL