MODEL 3
REMARK VINA RESULT: -4.289073999      4.924      6.950
REMARK  4 active torsions:
REMARK  status: ('A' for Active; 'I' for Inactive)
REMARK    1  A    between atoms: N1_2  and  C2_4
REMARK    2  A    between atoms: C7_9  and  N2_10
REMARK    3  A    between atoms: C8_14  and  C9_15
REMARK    4  A    between atoms: C9_15  and  N3_16
ROOT
HETATM    1  C2  UNL     1      17.055  37.693  37.310  1.00  0.00    -0.011 C
HETATM    2  C3  UNL     1      16.728  36.250  37.244  1.00  0.00     0.052 C
HETATM    3  C4  UNL     1      16.091  35.682  36.061  1.00  0.00     0.006 C
HETATM    4  C5  UNL     1      14.567  35.824  36.216  1.00  0.00     0.002 C
HETATM    5  C6  UNL     1      14.286  37.271  35.884  1.00  0.00     0.033 C
HETATM    6  C7  UNL     1      14.561  38.174  37.036  1.00  0.00     0.194 C
HETATM    7  C8  UNL     1      15.939  38.657  37.191  1.00  0.00     0.086 C
ENDROOT
BRANCH   7   8
HETATM    8  C9  UNL     1      15.902  39.650  38.369  1.00  0.00     0.242 C
BRANCH   8   9
HETATM    9  N3  UNL     1      16.364  40.948  37.995  1.00  0.00    -0.079 N
ATOM     10  H33 UNL     1      16.728  40.949  37.041  1.00  0.00     0.274 HD
ATOM     11  H32 UNL     1      15.586  41.596  37.872  1.00  0.00     0.274 HD
ATOM     12  H31 UNL     1      17.052  41.316  38.653  1.00  0.00     0.274 HD
ENDBRANCH   8   9
ENDBRANCH   7   8
BRANCH   1  13
HETATM   13  N1  UNL     1      18.238  38.057  36.580  1.00  0.00    -0.400 N
HETATM   14  C1  UNL     1      19.390  37.280  36.689  1.00  0.00     0.145 C
ATOM     15  H1  UNL     1      18.235  38.883  35.983  1.00  0.00     0.158 HD
ENDBRANCH   1  13
BRANCH   6  16
HETATM   16  N2  UNL     1      14.004  37.574  38.249  1.00  0.00    -0.074 N
ATOM     17  H23 UNL     1      14.581  36.813  38.608  1.00  0.00     0.274 HD
ATOM     18  H22 UNL     1      14.070  38.193  39.057  1.00  0.00     0.274 HD
ATOM     19  H21 UNL     1      13.046  37.281  38.060  1.00  0.00     0.274 HD
ENDBRANCH   6  16
TORSDOF 4
ENDMDL