MODEL 5
REMARK VINA RESULT: -4.603729577      1.715      5.547
REMARK  4 active torsions:
REMARK  status: ('A' for Active; 'I' for Inactive)
REMARK    1  A    between atoms: O1_2  and  N1_3
REMARK    2  A    between atoms: N1_3  and  C2_5
REMARK    3  A    between atoms: C2_5  and  N2_7
REMARK    4  A    between atoms: N2_7  and  N3_9
ROOT
HETATM    1  N2  UNL     1      13.653  38.343  35.929  1.00  0.00    -0.275 N
ATOM      2  H2  UNL     1      12.830  38.688  36.423  1.00  0.00     0.189 HD
ENDROOT
BRANCH   1   3
HETATM    3  C2  UNL     1      13.600  37.090  35.302  1.00  0.00     0.210 C
HETATM    4  S1  UNL     1      14.330  35.822  36.009  1.00  0.00    -0.037 SA
BRANCH   3   5
HETATM    5  N1  UNL     1      12.921  36.932  34.075  1.00  0.00    -0.240 N
ATOM      6  H1  UNL     1      13.436  36.660  33.238  1.00  0.00     0.197 HD
BRANCH   5   7
HETATM    7  O1  UNL     1      11.575  37.146  34.011  1.00  0.00    -0.283 OA
HETATM    8  C1  UNL     1      11.089  36.693  32.803  1.00  0.00     0.237 C
ENDBRANCH   5   7
ENDBRANCH   3   5
ENDBRANCH   1   3
BRANCH   1   9
HETATM    9  N3  UNL     1      14.798  39.124  35.891  1.00  0.00    -0.307 N
HETATM   10  C3  UNL     1      15.455  39.421  36.948  1.00  0.00    -0.004 C
HETATM   11  C4  UNL     1      16.680  40.258  36.900  1.00  0.00     0.064 C
HETATM   12  C5  UNL     1      14.993  38.922  38.275  1.00  0.00     0.064 C
ATOM     13  H3  UNL     1      15.128  39.474  34.991  1.00  0.00     0.186 HD
ENDBRANCH   1   9
TORSDOF 4
ENDMDL