MODEL 3
REMARK VINA RESULT: -3.799246734      1.602      3.145
REMARK  4 active torsions:
REMARK  status: ('A' for Active; 'I' for Inactive)
REMARK    1  A    between atoms: N1_2  and  C2_4
REMARK    2  A    between atoms: C2_4  and  C3_5
REMARK    3  A    between atoms: C3_5  and  N2_6
REMARK    4  A    between atoms: C6_12  and  N3_13
ROOT
HETATM    1  C2  UNL     1      16.171  37.700  37.648  1.00  0.00     0.052 C
HETATM    2  C4  UNL     1      15.576  38.220  38.940  1.00  0.00     0.035 C
HETATM    3  C5  UNL     1      15.954  37.441  40.147  1.00  0.00     0.035 C
HETATM    4  C6  UNL     1      15.900  35.964  40.012  1.00  0.00     0.184 C
HETATM    5  C7  UNL     1      16.734  35.569  38.813  1.00  0.00     0.039 C
HETATM    6  C8  UNL     1      16.109  36.170  37.606  1.00  0.00     0.013 C
HETATM    7  C9  UNL     1      16.677  35.678  36.310  1.00  0.00     0.012 C
ENDROOT
BRANCH   1   8
HETATM    8  N1  UNL     1      15.496  38.155  36.504  1.00  0.00    -0.415 N
HETATM    9  C1  UNL     1      14.113  38.366  36.512  1.00  0.00     0.140 C
ATOM     10  H1  UNL     1      16.025  38.337  35.650  1.00  0.00     0.153 HD
ENDBRANCH   1   8
BRANCH   1  11
HETATM   11  C3  UNL     1      17.624  38.113  37.602  1.00  0.00     0.260 C
BRANCH  11  12
HETATM   12  N2  UNL     1      17.822  39.246  36.715  1.00  0.00    -0.077 N
ATOM     13  H23 UNL     1      18.081  40.086  37.232  1.00  0.00     0.274 HD
ATOM     14  H22 UNL     1      18.667  39.139  36.153  1.00  0.00     0.274 HD
ATOM     15  H21 UNL     1      17.002  39.405  36.130  1.00  0.00     0.274 HD
ENDBRANCH  11  12
ENDBRANCH   1  11
BRANCH   4  16
HETATM   16  N3  UNL     1      14.562  35.419  39.940  1.00  0.00    -0.075 N
ATOM     17  H33 UNL     1      14.562  34.439  40.221  1.00  0.00     0.274 HD
ATOM     18  H32 UNL     1      13.977  35.814  40.677  1.00  0.00     0.274 HD
ATOM     19  H31 UNL     1      14.111  35.528  39.032  1.00  0.00     0.274 HD
ENDBRANCH   4  16
TORSDOF 4
ENDMDL