MODEL 4
REMARK VINA RESULT: -4.469373038      3.036      4.007
REMARK  3 active torsions:
REMARK  status: ('A' for Active; 'I' for Inactive)
REMARK    1  A    between atoms: C2_2  and  N1_4
REMARK    2  A    between atoms: C6_10  and  C7_11
REMARK    3  A    between atoms: C7_11  and  S1_12
ROOT
HETATM    1  S1  UNL     1      17.450  39.238  37.592  1.00  0.00    -0.047 SA
HETATM    2  C8  UNL     1      16.370  40.524  37.125  1.00  0.00     0.133 C
HETATM    3  N3  UNL     1      15.646  41.389  36.787  1.00  0.00    -0.184 NA
ENDROOT
BRANCH   1   4
HETATM    4  C7  UNL     1      16.761  38.122  38.804  1.00  0.00     0.144 C
BRANCH   4   5
HETATM    5  C6  UNL     1      16.312  36.788  38.261  1.00  0.00     0.292 C
HETATM    6  N1  UNL     1      15.100  36.433  38.835  1.00  0.00    -0.380 N
HETATM    7  C4  UNL     1      14.022  36.467  37.955  1.00  0.00     0.147 C
HETATM    8  C5  UNL     1      14.739  36.406  36.596  1.00  0.00     0.254 C
HETATM    9  N2  UNL     1      16.087  36.770  36.842  1.00  0.00    -0.052 N
ATOM     10  H22 UNL     1      16.749  36.169  36.351  1.00  0.00     0.279 HD
ATOM     11  H21 UNL     1      16.340  37.651  36.396  1.00  0.00     0.279 HD
BRANCH   6  12
HETATM   12  C2  UNL     1      14.985  35.781  40.047  1.00  0.00     0.073 C
HETATM   13  C1  UNL     1      16.180  34.820  40.173  1.00  0.00     0.031 C
HETATM   14  C3  UNL     1      13.763  35.027  40.343  1.00  0.00     0.031 C
ENDBRANCH   6  12
ENDBRANCH   4   5
ENDBRANCH   1   4
TORSDOF 3
ENDMDL