MODEL 4
REMARK VINA RESULT: -5.108754032      1.143      1.327
REMARK  5 active torsions:
REMARK  status: ('A' for Active; 'I' for Inactive)
REMARK    1  A    between atoms: C2_2  and  O1_5
REMARK    2  A    between atoms: O1_5  and  C5_6
REMARK    3  A    between atoms: C5_6  and  C6_7
REMARK    4  A    between atoms: C6_7  and  C7_8
REMARK    5  A    between atoms: C10_11  and  N1_12
ROOT
HETATM    1  C7  UNL     1      14.004  36.499  35.402  1.00  0.00     0.018 A
HETATM    2  C8  UNL     1      15.246  35.897  36.021  1.00  0.00     0.009 A
HETATM    3  C9  UNL     1      15.317  37.002  37.056  1.00  0.00     0.033 A
HETATM    4  C10 UNL     1      14.065  37.587  36.430  1.00  0.00     0.187 A
ENDROOT
BRANCH   1   5
HETATM    5  C6  UNL     1      12.837  35.536  35.564  1.00  0.00     0.033 C
BRANCH   5   6
HETATM    6  C5  UNL     1      11.674  35.920  34.720  1.00  0.00     0.169 C
BRANCH   6   7
HETATM    7  O1  UNL     1      11.278  35.060  33.753  1.00  0.00    -0.381 OA
BRANCH   7   8
HETATM    8  C2  UNL     1      10.474  35.455  32.746  1.00  0.00     0.050 C
HETATM    9  C1  UNL     1      10.724  36.879  32.279  1.00  0.00     0.045 C
HETATM   10  C3  UNL     1       9.030  35.523  33.323  1.00  0.00     0.045 C
HETATM   11  C4  UNL     1      10.352  34.566  31.548  1.00  0.00     0.045 C
ENDBRANCH   7   8
ENDBRANCH   6   7
ENDBRANCH   5   6
ENDBRANCH   1   5
BRANCH   4  12
HETATM   12  N1  UNL     1      14.342  38.897  35.907  1.00  0.00    -0.075 N
ATOM     13  H13 UNL     1      14.982  38.834  35.114  1.00  0.00     0.274 HD
ATOM     14  H12 UNL     1      13.517  39.272  35.439  1.00  0.00     0.274 HD
ATOM     15  H11 UNL     1      14.695  39.566  36.592  1.00  0.00     0.274 HD
ENDBRANCH   4  12
TORSDOF 5
ENDMDL