MODEL 1
REMARK VINA RESULT: -3.414675187      0.000      0.000
REMARK  3 active torsions:
REMARK  status: ('A' for Active; 'I' for Inactive)
REMARK    1  A    between atoms: N1_2  and  C3_4
REMARK    2  A    between atoms: C3_4  and  C4_5
REMARK    3  A    between atoms: C4_5  and  C5_6
ROOT
HETATM    1  C3  UNL     1      15.906  37.018  38.099  1.00  0.00     0.132 C
HETATM    2  C6  UNL     1      15.092  36.109  39.020  1.00  0.00     0.063 C
HETATM    3  C7  UNL     1      13.722  36.353  38.443  1.00  0.00     0.031 C
HETATM    4  C8  UNL     1      14.039  36.478  36.975  1.00  0.00     0.171 C
HETATM    5  O1  UNL     1      15.393  36.679  36.821  1.00  0.00    -0.361 OA
ENDROOT
BRANCH   1   6
HETATM    6  N1  UNL     1      15.719  38.356  38.274  1.00  0.00    -0.391 N
HETATM    7  C1  UNL     1      15.817  39.345  37.284  1.00  0.00     0.145 C
HETATM    8  C2  UNL     1      15.940  38.931  39.569  1.00  0.00     0.145 C
ENDBRANCH   1   6
BRANCH   1   9
HETATM    9  C4  UNL     1      17.288  36.476  38.131  1.00  0.00     0.072 C
BRANCH   9  10
HETATM   10  C5  UNL     1      18.049  36.308  36.878  1.00  0.00     0.091 C
HETATM   11  S1  UNL     1      19.353  37.552  36.672  1.00  0.00    -0.098 SA
ENDBRANCH   9  10
ENDBRANCH   1   9
TORSDOF 3
ENDMDL