MODEL 1
REMARK VINA RESULT: -4.866104281      0.000      0.000
REMARK  3 active torsions:
REMARK  status: ('A' for Active; 'I' for Inactive)
REMARK    1  A    between atoms: C2_2  and  C3_3
REMARK    2  A    between atoms: C5_5  and  C6_6
REMARK    3  A    between atoms: C6_6  and  C7_7
ROOT
HETATM    1  C3  UNL     1      13.895  37.822  36.498  1.00  0.00     0.188 C
HETATM    2  C4  UNL     1      14.469  37.918  37.917  1.00  0.00     0.069 C
HETATM    3  C5  UNL     1      15.649  38.490  37.229  1.00  0.00     0.224 C
HETATM    4  N1  UNL     1      14.816  38.862  36.126  1.00  0.00    -0.064 N
ATOM      5  H11 UNL     1      14.493  39.824  36.025  1.00  0.00     0.278 HD
ATOM      6  H12 UNL     1      15.198  38.899  35.181  1.00  0.00     0.278 HD
ENDROOT
BRANCH   3   7
HETATM    7  C6  UNL     1      16.378  39.607  37.920  1.00  0.00     0.113 C
HETATM    8  C9  UNL     1      16.823  39.272  39.304  1.00  0.00     0.210 C
HETATM    9  O1  UNL     1      16.535  40.424  40.044  1.00  0.00    -0.364 OA
HETATM   10  C10 UNL     1      15.529  41.079  39.379  1.00  0.00     0.339 C
HETATM   11  O2  UNL     1      15.600  40.752  38.036  1.00  0.00    -0.352 OA
BRANCH   7  12
HETATM   12  C7  UNL     1      17.603  39.979  37.110  1.00  0.00     0.038 C
HETATM   13  C8  UNL     1      18.685  38.929  37.197  1.00  0.00     0.008 C
ENDBRANCH   7  12
ENDBRANCH   3   7
BRANCH   1  14
HETATM   14  C2  UNL     1      14.169  36.456  35.948  1.00  0.00     0.028 C
HETATM   15  C1  UNL     1      12.961  35.608  35.771  1.00  0.00     0.007 C
ENDBRANCH   1  14
TORSDOF 3
ENDMDL