MODEL 2
REMARK VINA RESULT: -4.203184207      2.993      6.173
REMARK  3 active torsions:
REMARK  status: ('A' for Active; 'I' for Inactive)
REMARK    1  A    between atoms: S1_3  and  C3_4
REMARK    2  A    between atoms: C3_4  and  C4_5
REMARK    3  A    between atoms: C7_11  and  N2_12
ROOT
HETATM    1  C1  UNL     1      11.053  36.592  33.149  1.00  0.00     0.025 C
HETATM    2  C2  UNL     1      11.674  36.257  34.115  1.00  0.00    -0.045 C
HETATM    3  S1  UNL     1      12.635  35.725  35.530  1.00  0.00    -0.077 SA
ENDROOT
BRANCH   3   4
HETATM    4  C3  UNL     1      14.052  36.866  35.744  1.00  0.00     0.123 C
BRANCH   4   5
HETATM    5  C4  UNL     1      14.885  36.508  36.935  1.00  0.00     0.218 C
HETATM    6  N1  UNL     1      16.181  37.194  36.832  1.00  0.00    -0.068 N
HETATM    7  C5  UNL     1      15.928  38.479  37.515  1.00  0.00     0.235 C
ATOM      8  H12 UNL     1      16.973  36.665  37.197  1.00  0.00     0.277 HD
ATOM      9  H11 UNL     1      16.543  37.280  35.883  1.00  0.00     0.277 HD
HETATM   10  C6  UNL     1      15.198  37.998  38.748  1.00  0.00     0.054 C
HETATM   11  C7  UNL     1      14.234  36.999  38.217  1.00  0.00     0.111 C
BRANCH  11  12
HETATM   12  N2  UNL     1      14.086  35.865  39.068  1.00  0.00    -0.414 N
HETATM   13  C8  UNL     1      15.053  35.690  40.083  1.00  0.00     0.143 C
HETATM   14  C9  UNL     1      12.753  35.467  39.351  1.00  0.00     0.143 C
ENDBRANCH  11  12
ENDBRANCH   4   5
ENDBRANCH   3   4
TORSDOF 3
ENDMDL