MODEL 1
REMARK VINA RESULT: -4.322158440      0.000      0.000
REMARK  3 active torsions:
REMARK  status: ('A' for Active; 'I' for Inactive)
REMARK    1  A    between atoms: C2_2  and  C4_4
REMARK    2  A    between atoms: C4_4  and  C5_5
REMARK    3  A    between atoms: C4_4  and  N2_9
ROOT
HETATM    1  C4  UNL     1      15.808  37.616  38.313  1.00  0.00     0.124 C
ENDROOT
BRANCH   1   2
HETATM    2  C2  UNL     1      14.366  37.459  37.984  1.00  0.00     0.005 C
HETATM    3  C1  UNL     1      13.654  36.254  38.510  1.00  0.00     0.012 C
HETATM    4  C3  UNL     1      14.162  37.381  36.451  1.00  0.00     0.012 C
ENDBRANCH   1   2
BRANCH   1   5
HETATM    5  C5  UNL     1      16.636  36.731  37.402  1.00  0.00     0.078 C
HETATM    6  N1  UNL     1      17.458  35.940  37.943  1.00  0.00    -0.409 N
ATOM      7  H12 UNL     1      17.550  35.910  38.958  1.00  0.00     0.155 HD
ATOM      8  H11 UNL     1      18.015  35.345  37.331  1.00  0.00     0.155 HD
ENDBRANCH   1   5
BRANCH   1   9
HETATM    9  N2  UNL     1      16.357  38.865  38.498  1.00  0.00    -0.380 N
HETATM   10  C6  UNL     1      15.869  39.780  39.424  1.00  0.00     0.085 C
HETATM   11  C7  UNL     1      15.749  41.213  39.020  1.00  0.00     0.212 C
HETATM   12  O1  UNL     1      15.742  41.492  37.697  1.00  0.00    -0.385 OA
HETATM   13  C8  UNL     1      16.187  40.536  36.839  1.00  0.00     0.187 C
HETATM   14  C9  UNL     1      17.087  39.500  37.465  1.00  0.00     0.149 C
ENDBRANCH   1   9
TORSDOF 3
ENDMDL