MODEL 2
REMARK VINA RESULT: -4.988240238      3.957      7.039
REMARK  4 active torsions:
REMARK  status: ('A' for Active; 'I' for Inactive)
REMARK    1  A    between atoms: C2_2  and  C5_6
REMARK    2  A    between atoms: C5_6  and  N2_7
REMARK    3  A    between atoms: N2_7  and  C6_10
REMARK    4  A    between atoms: C6_10  and  C7_11
ROOT
HETATM    1  C1  UNL     1      13.876  35.839  35.876  1.00  0.00     0.033 C
HETATM    2  C2  UNL     1      14.420  36.734  36.989  1.00  0.00     0.065 C
HETATM    3  C3  UNL     1      13.640  36.477  38.229  1.00  0.00     0.033 C
HETATM    4  C4  UNL     1      14.195  38.137  36.529  1.00  0.00     0.070 C
HETATM    5  N1  UNL     1      14.036  39.232  36.153  1.00  0.00    -0.196 NA
ENDROOT
BRANCH   2   6
HETATM    6  C5  UNL     1      15.909  36.537  37.090  1.00  0.00     0.255 C
BRANCH   6   7
HETATM    7  N2  UNL     1      16.662  37.731  37.146  1.00  0.00    -0.073 N
ATOM      8  H22 UNL     1      17.085  37.926  36.238  1.00  0.00     0.277 HD
ATOM      9  H21 UNL     1      16.042  38.537  37.229  1.00  0.00     0.277 HD
BRANCH   7  10
HETATM   10  C6  UNL     1      17.651  37.761  38.168  1.00  0.00     0.239 C
BRANCH  10  11
HETATM   11  C7  UNL     1      19.058  38.025  37.775  1.00  0.00     0.037 C
HETATM   12  C8  UNL     1      19.846  38.879  38.738  1.00  0.00     0.034 C
HETATM   13  C9  UNL     1      19.157  40.213  38.538  1.00  0.00     0.168 C
HETATM   14  O1  UNL     1      18.502  40.150  37.329  1.00  0.00    -0.391 OA
HETATM   15  C10 UNL     1      18.971  39.055  36.618  1.00  0.00     0.173 C
ENDBRANCH  10  11
ENDBRANCH   7  10
ENDBRANCH   6   7
ENDBRANCH   2   6
TORSDOF 4
ENDMDL