MODEL 1
REMARK VINA RESULT: -4.943407432      0.000      0.000
REMARK  4 active torsions:
REMARK  status: ('A' for Active; 'I' for Inactive)
REMARK    1  A    between atoms: O1_2  and  C2_3
REMARK    2  A    between atoms: C2_3  and  C3_4
REMARK    3  A    between atoms: C3_4  and  O2_5
REMARK    4  A    between atoms: C3_4  and  C4_7
ROOT
HETATM    1  C2  UNL     1      16.303  40.174  37.731  1.00  0.00     0.190 C
HETATM    2  C7  UNL     1      16.911  39.603  38.965  1.00  0.00     0.073 C
HETATM    3  C8  UNL     1      16.706  40.698  40.008  1.00  0.00     0.032 C
HETATM    4  C9  UNL     1      15.537  41.457  39.395  1.00  0.00     0.171 C
HETATM    5  O3  UNL     1      15.828  41.445  38.058  1.00  0.00    -0.353 OA
ENDROOT
BRANCH   1   6
HETATM    6  O1  UNL     1      17.198  40.357  36.690  1.00  0.00    -0.358 OA
HETATM    7  C1  UNL     1      18.399  39.692  36.882  1.00  0.00     0.205 C
ENDBRANCH   1   6
BRANCH   1   8
HETATM    8  C3  UNL     1      15.142  39.372  37.220  1.00  0.00     0.184 C
BRANCH   8   9
HETATM    9  O2  UNL     1      14.956  39.723  35.884  1.00  0.00    -0.390 OA
ATOM     10  H2  UNL     1      14.741  40.648  35.864  1.00  0.00     0.210 HD
ENDBRANCH   8   9
BRANCH   8  11
HETATM   11  C4  UNL     1      15.268  37.909  37.329  1.00  0.00     0.020 A
HETATM   12  C5  UNL     1      14.478  36.913  36.628  1.00  0.00     0.008 A
HETATM   13  C6  UNL     1      14.155  37.189  38.099  1.00  0.00     0.008 A
ENDBRANCH   8  11
ENDBRANCH   1   8
TORSDOF 4
ENDMDL