MODEL 3
REMARK VINA RESULT: -5.553563087      2.679      5.281
REMARK  4 active torsions:
REMARK  status: ('A' for Active; 'I' for Inactive)
REMARK    1  A    between atoms: O1_2  and  C2_3
REMARK    2  A    between atoms: C5_6  and  C6_7
REMARK    3  A    between atoms: C6_7  and  N1_8
REMARK    4  A    between atoms: C6_7  and  C7_12
ROOT
HETATM    1  C6  UNL     1      13.360  36.697  35.812  1.00  0.00     0.191 C
ENDROOT
BRANCH   1   2
HETATM    2  C5  UNL     1      14.201  36.522  37.031  1.00  0.00     0.019 C
HETATM    3  C4  UNL     1      15.660  36.300  36.708  1.00  0.00     0.009 C
HETATM    4  C3  UNL     1      16.469  37.219  37.591  1.00  0.00     0.032 C
HETATM    5  C2  UNL     1      15.516  37.883  38.525  1.00  0.00     0.121 C
HETATM    6  C11 UNL     1      14.159  37.797  37.856  1.00  0.00     0.038 C
BRANCH   5   7
HETATM    7  O1  UNL     1      15.875  39.217  38.697  1.00  0.00    -0.391 OA
HETATM    8  C1  UNL     1      15.967  39.787  37.427  1.00  0.00     0.202 C
ENDBRANCH   5   7
ENDBRANCH   1   2
BRANCH   1   9
HETATM    9  N1  UNL     1      14.190  37.021  34.642  1.00  0.00    -0.074 N
ATOM     10  H13 UNL     1      13.754  37.732  34.055  1.00  0.00     0.274 HD
ATOM     11  H12 UNL     1      15.031  37.536  34.907  1.00  0.00     0.274 HD
ATOM     12  H11 UNL     1      14.415  36.180  34.111  1.00  0.00     0.274 HD
ENDBRANCH   1   9
BRANCH   1  13
HETATM   13  C7  UNL     1      12.667  35.398  35.456  1.00  0.00     0.016 C
HETATM   14  C8  UNL     1      11.447  35.609  34.544  1.00  0.00     0.007 C
HETATM   15  C9  UNL     1      10.839  34.404  35.277  1.00  0.00     0.001 C
HETATM   16  C10 UNL     1      11.666  34.895  36.476  1.00  0.00     0.007 C
ENDBRANCH   1  13
TORSDOF 4
ENDMDL