MODEL 5
REMARK VINA RESULT: -4.387157303      1.382      2.263
REMARK  0 active torsions:
REMARK  status: ('A' for Active; 'I' for Inactive)
ROOT
HETATM    1  C1  UNL     1      10.201  34.801  34.712  1.00  0.00     0.114 C
HETATM    2  C2  UNL     1      11.440  35.593  34.269  1.00  0.00     0.024 C
HETATM    3  C3  UNL     1      11.442  35.629  32.783  1.00  0.00    -0.009 C
HETATM    4  C4  UNL     1      10.406  36.681  32.356  1.00  0.00     0.029 C
HETATM    5  C5  UNL     1       9.380  35.592  32.597  1.00  0.00     0.077 C
HETATM    6  C6  UNL     1      10.494  34.632  32.148  1.00  0.00     0.029 C
HETATM    7  N1  UNL     1       9.133  35.298  33.945  1.00  0.00    -0.417 N
ATOM      8  H1  UNL     1       8.210  35.439  34.356  1.00  0.00     0.153 HD
ENDROOT
TORSDOF 0
ENDMDL