MODEL 2
REMARK VINA RESULT: -4.915508068      1.862      2.545
REMARK  1 active torsions:
REMARK  status: ('A' for Active; 'I' for Inactive)
REMARK    1  A    between atoms: N1_1  and  C1_5
ROOT
HETATM    1  C1  UNL     1      11.404  36.702  32.054  1.00  0.00     0.192 A
HETATM    2  C2  UNL     1      11.264  36.481  33.433  1.00  0.00     0.022 A
HETATM    3  C3  UNL     1      11.392  35.318  34.329  1.00  0.00     0.007 C
HETATM    4  C4  UNL     1       9.936  34.815  34.353  1.00  0.00     0.001 C
HETATM    5  C5  UNL     1       9.273  35.550  33.167  1.00  0.00     0.007 C
HETATM    6  C6  UNL     1      10.477  35.685  32.311  1.00  0.00     0.022 A
ENDROOT
BRANCH   1   7
HETATM    7  N1  UNL     1      10.900  37.946  31.449  1.00  0.00    -0.074 N
ATOM      8  H13 UNL     1      10.592  38.566  32.198  1.00  0.00     0.274 HD
ATOM      9  H12 UNL     1      11.692  38.463  31.068  1.00  0.00     0.274 HD
ATOM     10  H11 UNL     1      10.168  37.910  30.739  1.00  0.00     0.274 HD
ENDBRANCH   1   7
TORSDOF 1
ENDMDL