MODEL 4
REMARK VINA RESULT: -4.036208029      2.223      3.149
REMARK  0 active torsions:
REMARK  status: ('A' for Active; 'I' for Inactive)
ROOT
HETATM    1  S1  UNL     1       8.837  34.315  32.246  1.00  0.00    -0.092 SA
HETATM    2  C1  UNL     1       9.708  35.487  33.282  1.00  0.00     0.063 C
HETATM    3  C2  UNL     1      10.288  34.892  34.554  1.00  0.00     0.021 C
HETATM    4  C3  UNL     1      11.613  35.504  34.278  1.00  0.00    -0.008 A
HETATM    5  C4  UNL     1      11.781  36.847  33.689  1.00  0.00     0.011 A
HETATM    6  C5  UNL     1      11.126  35.811  32.867  1.00  0.00     0.005 A
ENDROOT
TORSDOF 0
ENDMDL