MODEL 4
REMARK VINA RESULT: -4.935895293      1.177      2.407
REMARK  1 active torsions:
REMARK  status: ('A' for Active; 'I' for Inactive)
REMARK    1  A    between atoms: C2_2  and  C4_4
ROOT
HETATM    1  C4  UNL     1      10.681  34.795  33.469  1.00  0.00     0.013 A
HETATM    2  C5  UNL     1       9.528  34.889  34.463  1.00  0.00     0.010 A
HETATM    3  C6  UNL     1       9.325  34.532  33.017  1.00  0.00     0.010 A
ENDROOT
BRANCH   1   4
HETATM    4  C2  UNL     1      11.376  36.087  33.261  1.00  0.00    -0.089 C
HETATM    5  C1  UNL     1      12.311  36.420  34.136  1.00  0.00     0.014 C
HETATM    6  C3  UNL     1      11.090  37.013  32.149  1.00  0.00     0.043 C
ENDBRANCH   1   4
TORSDOF 1
ENDMDL