MODEL 1
REMARK VINA RESULT: -4.690960837      0.000      0.000
REMARK  0 active torsions:
REMARK  status: ('A' for Active; 'I' for Inactive)
ROOT
HETATM    1  C1  UNL     1       9.083  34.513  32.660  1.00  0.00     0.011 C
HETATM    2  C2  UNL     1      10.460  35.040  32.865  1.00  0.00     0.009 C
HETATM    3  C3  UNL     1      10.865  35.214  34.287  1.00  0.00     0.033 C
HETATM    4  C4  UNL     1      12.041  36.187  34.131  1.00  0.00     0.232 C
HETATM    5  N1  UNL     1      11.772  36.970  32.967  1.00  0.00    -0.075 N
ATOM      6  H11 UNL     1      12.577  37.025  32.342  1.00  0.00     0.277 HD
ATOM      7  H12 UNL     1      11.687  37.964  33.179  1.00  0.00     0.277 HD
HETATM    8  C5  UNL     1      10.613  36.455  32.312  1.00  0.00     0.236 C
ENDROOT
TORSDOF 0
ENDMDL