MODEL 2
REMARK VINA RESULT: -3.738481146      1.287      2.244
REMARK  0 active torsions:
REMARK  status: ('A' for Active; 'I' for Inactive)
ROOT
HETATM    1  C1  UNL     1      10.262  35.958  31.401  1.00  0.00     0.038 C
HETATM    2  C2  UNL     1      11.045  37.126  31.900  1.00  0.00     0.234 C
HETATM    3  N1  UNL     1      12.135  36.823  32.749  1.00  0.00    -0.067 N
ATOM      4  H11 UNL     1      12.767  37.620  32.827  1.00  0.00     0.278 HD
ATOM      5  H12 UNL     1      12.764  36.153  32.308  1.00  0.00     0.278 HD
HETATM    6  C3  UNL     1      11.724  36.363  34.052  1.00  0.00     0.305 C
HETATM    7  S1  UNL     1      11.003  34.702  33.749  1.00  0.00    -0.142 SA
HETATM    8  C4  UNL     1       9.786  35.011  32.439  1.00  0.00     0.077 C
ENDROOT
TORSDOF 0
ENDMDL