MODEL 3
REMARK VINA RESULT: -4.302330231      1.555      2.994
REMARK  1 active torsions:
REMARK  status: ('A' for Active; 'I' for Inactive)
REMARK    1  A    between atoms: C5_5  and  N1_7
ROOT
HETATM    1  C1  UNL     1       8.923  34.522  32.737  1.00  0.00     0.017 C
HETATM    2  C2  UNL     1      10.096  34.878  33.599  1.00  0.00    -0.013 A
HETATM    3  C3  UNL     1       9.867  34.849  35.074  1.00  0.00     0.017 C
HETATM    4  C4  UNL     1      11.429  34.402  33.039  1.00  0.00     0.050 A
HETATM    5  C5  UNL     1      11.070  35.879  33.104  1.00  0.00     0.128 A
HETATM    6  C6  UNL     1      10.719  36.614  31.855  1.00  0.00     0.047 C
ENDROOT
BRANCH   5   7
HETATM    7  N1  UNL     1      11.917  36.615  34.032  1.00  0.00    -0.070 N
ATOM      8  H13 UNL     1      12.039  37.560  33.668  1.00  0.00     0.275 HD
ATOM      9  H12 UNL     1      11.382  36.788  34.882  1.00  0.00     0.275 HD
ATOM     10  H11 UNL     1      12.833  36.256  34.300  1.00  0.00     0.275 HD
ENDBRANCH   5   7
TORSDOF 1
ENDMDL