MODEL 1
REMARK VINA RESULT: -3.793879476      0.000      0.000
REMARK  0 active torsions:
REMARK  status: ('A' for Active; 'I' for Inactive)
ROOT
HETATM    1  C1  UNL     1      10.848  34.980  34.080  1.00  0.00     0.028 C
HETATM    2  C2  UNL     1      11.878  35.994  34.188  1.00  0.00     0.123 C
HETATM    3  N1  UNL     1      11.888  36.919  33.128  1.00  0.00    -0.179 NA
HETATM    4  S1  UNL     1      10.591  36.438  32.007  1.00  0.00    -0.066 SA
HETATM    5  C3  UNL     1      10.442  34.734  32.674  1.00  0.00     0.094 C
ENDROOT
TORSDOF 0
ENDMDL