MODEL 2
REMARK VINA RESULT: -4.503915431      0.549      2.047
REMARK  0 active torsions:
REMARK  status: ('A' for Active; 'I' for Inactive)
ROOT
HETATM    1  C1  UNL     1      10.525  34.594  32.908  1.00  0.00     0.003 C
HETATM    2  C2  UNL     1      10.184  35.719  31.987  1.00  0.00     0.027 C
HETATM    3  C3  UNL     1      11.078  36.896  32.059  1.00  0.00     0.232 C
HETATM    4  N1  UNL     1      11.607  37.209  33.338  1.00  0.00    -0.075 N
ATOM      5  H11 UNL     1      10.940  37.757  33.880  1.00  0.00     0.277 HD
ATOM      6  H12 UNL     1      12.363  37.890  33.258  1.00  0.00     0.277 HD
HETATM    7  C4  UNL     1      12.043  36.044  34.087  1.00  0.00     0.232 C
HETATM    8  C5  UNL     1      10.772  35.208  34.290  1.00  0.00     0.027 C
ENDROOT
TORSDOF 0
ENDMDL