MODEL 1
REMARK VINA RESULT: -4.773687119      0.000      0.000
REMARK  0 active torsions:
REMARK  status: ('A' for Active; 'I' for Inactive)
ROOT
HETATM    1  C1  UNL     1      11.991  36.251  34.119  1.00  0.00     0.015 C
HETATM    2  C2  UNL     1      11.295  34.993  33.683  1.00  0.00     0.034 C
HETATM    3  C3  UNL     1      10.028  34.794  34.523  1.00  0.00     0.174 C
HETATM    4  O1  UNL     1       9.453  35.795  33.702  1.00  0.00    -0.385 OA
HETATM    5  C4  UNL     1      10.207  35.220  32.658  1.00  0.00     0.123 C
HETATM    6  C5  UNL     1      10.539  36.126  31.528  1.00  0.00     0.040 C
ENDROOT
TORSDOF 0
ENDMDL