MODEL 2
REMARK VINA RESULT: -7.410202582      1.489      2.161
REMARK  6 active torsions:
REMARK  status: ('A' for Active; 'I' for Inactive)
REMARK    1  A    between atoms: C5_5  and  C6_6
REMARK    2  A    between atoms: C7_7  and  C8_8
REMARK       I    between atoms: C8_8  and  N1_10
REMARK    3  A    between atoms: N1_10  and  C9_12
REMARK    4  A    between atoms: C18_23  and  S1_24
REMARK    5  A    between atoms: S1_24  and  N2_27
REMARK    6  A    between atoms: N2_27  and  C19_29
ROOT
HETATM    1  C1  UNL     1      60.566  38.097   5.050  1.00  0.00     0.103 C
HETATM    2  C2  UNL     1      61.592  38.099   4.381  1.00  0.00    -0.147 C
HETATM    3  C3  UNL     1      62.802  38.086   3.618  1.00  0.00     0.030 A
HETATM    4  C4  UNL     1      62.685  37.697   2.268  1.00  0.00     0.032 A
HETATM    5  C5  UNL     1      63.790  37.684   1.464  1.00  0.00    -0.033 A
HETATM    6  C16 UNL     1      65.013  38.057   1.995  1.00  0.00     0.037 A
HETATM    7  C17 UNL     1      65.114  38.434   3.314  1.00  0.00     0.059 A
HETATM    8 CL2  UNL     1      66.649  38.910   4.012  1.00  0.00    -0.083 Cl
HETATM    9  C18 UNL     1      64.003  38.454   4.149  1.00  0.00     0.118 A
ENDROOT
BRANCH   9  10
HETATM   10  S1  UNL     1      64.168  38.904   5.819  1.00  0.00     0.262 S
HETATM   11  O2  UNL     1      65.616  38.904   6.262  1.00  0.00    -0.200 OA
HETATM   12  O3  UNL     1      63.546  37.741   6.609  1.00  0.00    -0.200 OA
BRANCH  10  13
HETATM   13  N2  UNL     1      63.344  40.298   6.286  1.00  0.00    -0.311 N
ATOM     14  H2  UNL     1      62.900  40.343   7.203  1.00  0.00     0.172 HD
BRANCH  13  15
HETATM   15  C19 UNL     1      63.266  41.395   5.417  1.00  0.00     0.085 C
HETATM   16  C20 UNL     1      62.097  42.280   5.899  1.00  0.00     0.032 C
HETATM   17  C21 UNL     1      64.480  42.314   5.484  1.00  0.00     0.032 C
ENDBRANCH  13  15
ENDBRANCH  10  13
ENDBRANCH   9  10
BRANCH   5  18
HETATM   18  C6  UNL     1      63.701  37.287   0.068  1.00  0.00     0.017 C
HETATM   19  C7  UNL     1      64.008  38.041  -0.958  1.00  0.00     0.075 C
BRANCH  19  20
HETATM   20  C8  UNL     1      63.915  37.633  -2.348  1.00  0.00     0.245 C
HETATM   21  O1  UNL     1      64.390  36.473  -2.625  1.00  0.00    -0.268 OA
HETATM   22  N1  UNL     1      63.350  38.438  -3.327  1.00  0.00    -0.324 N
ATOM     23  H1  UNL     1      63.003  39.346  -3.020  1.00  0.00     0.169 HD
BRANCH  22  24
HETATM   24  C9  UNL     1      63.199  38.144  -4.699  1.00  0.00     0.036 A
HETATM   25  C10 UNL     1      64.223  37.946  -5.568  1.00  0.00     0.030 A
HETATM   26  C11 UNL     1      63.984  37.680  -6.925  1.00  0.00     0.011 A
HETATM   27  C12 UNL     1      62.715  37.610  -7.414  1.00  0.00    -0.040 A
HETATM   28  C13 UNL     1      62.525  37.323  -8.864  1.00  0.00     0.050 C
HETATM   29  C14 UNL     1      61.654  37.806  -6.556  1.00  0.00     0.042 A
HETATM   30 CL1  UNL     1      60.037  37.711  -7.212  1.00  0.00    -0.084 Cl
HETATM   31  C15 UNL     1      61.903  38.063  -5.252  1.00  0.00     0.053 A
ENDBRANCH  22  24
ENDBRANCH  19  20
ENDBRANCH   5  18
TORSDOF 6
ENDMDL