MODEL 2
REMARK VINA RESULT: -7.615405513      5.500      8.213
REMARK  9 active torsions:
REMARK  status: ('A' for Active; 'I' for Inactive)
REMARK    1  A    between atoms: C3_3  and  C4_4
REMARK    2  A    between atoms: C4_4  and  O1_5
REMARK    3  A    between atoms: C4_4  and  N1_7
REMARK    4  A    between atoms: N1_7  and  C5_9
REMARK    5  A    between atoms: C5_9  and  C6_10
REMARK       I    between atoms: N2_11  and  C7_13
REMARK    6  A    between atoms: C7_13  and  C8_15
REMARK    7  A    between atoms: C8_15  and  C9_16
REMARK    8  A    between atoms: C9_16  and  C10_17
REMARK    9  A    between atoms: C16_26  and  C17_27
ROOT
HETATM    1  C1  UNL     1      69.039  35.185  -4.124  1.00  0.00     0.055 C
HETATM    2  C2  UNL     1      67.771  35.711  -3.622  1.00  0.00     0.020 A
HETATM    3  C3  UNL     1      67.407  35.646  -2.322  1.00  0.00     0.093 A
HETATM    4  N3  UNL     1      66.216  36.202  -1.945  1.00  0.00    -0.351 N
ATOM      5  H3  UNL     1      65.950  36.150  -0.961  1.00  0.00     0.166 HD
HETATM    6  C13 UNL     1      65.385  36.807  -2.792  1.00  0.00     0.048 A
HETATM    7  C14 UNL     1      64.186  37.367  -2.411  1.00  0.00     0.054 A
HETATM    8  C15 UNL     1      63.327  37.993  -3.289  1.00  0.00     0.044 A
HETATM    9 CL1  UNL     1      61.827  38.667  -2.684  1.00  0.00    -0.084 Cl
HETATM   10  C16 UNL     1      63.658  38.082  -4.626  1.00  0.00    -0.013 A
HETATM   11  C20 UNL     1      64.861  37.526  -5.030  1.00  0.00     0.028 A
HETATM   12  C21 UNL     1      65.704  36.903  -4.134  1.00  0.00     0.042 A
HETATM   13  C22 UNL     1      66.891  36.352  -4.515  1.00  0.00     0.192 A
HETATM   14  O3  UNL     1      67.234  36.409  -5.723  1.00  0.00    -0.287 OA
ENDROOT
BRANCH   3  15
HETATM   15  C4  UNL     1      68.152  34.986  -1.280  1.00  0.00     0.164 C
BRANCH  15  16
HETATM   16  O1  UNL     1      67.799  33.756  -0.998  1.00  0.00    -0.345 OA
ATOM     17  H1  UNL     1      67.133  33.650  -0.329  1.00  0.00     0.219 HD
ENDBRANCH  15  16
BRANCH  15  18
HETATM   18  N1  UNL     1      69.208  35.426  -0.502  1.00  0.00    -0.364 N
ATOM     19  H1  UNL     1      69.546  34.853   0.273  1.00  0.00     0.162 HD
BRANCH  18  20
HETATM   20  C5  UNL     1      69.844  36.719  -0.790  1.00  0.00     0.166 C
BRANCH  20  21
HETATM   21  C6  UNL     1      70.000  37.529   0.435  1.00  0.00     0.083 C
HETATM   22  N2  UNL     1      69.193  38.467   0.696  1.00  0.00    -0.339 N
HETATM   23  C7  UNL     1      68.094  38.849  -0.103  1.00  0.00     0.221 C
ATOM     24  H2  UNL     1      69.350  38.992   1.557  1.00  0.00     0.167 HD
HETATM   25  O2  UNL     1      66.999  38.285   0.079  1.00  0.00    -0.273 OA
BRANCH  23  26
HETATM   26  C8  UNL     1      68.252  39.881  -1.116  1.00  0.00     0.103 C
BRANCH  26  27
HETATM   27  C9  UNL     1      68.047  39.468  -2.527  1.00  0.00     0.013 C
BRANCH  27  28
HETATM   28  C10 UNL     1      67.474  40.493  -3.440  1.00  0.00    -0.022 C
HETATM   29  C11 UNL     1      65.978  40.587  -3.107  1.00  0.00     0.009 C
HETATM   30  C12 UNL     1      67.523  40.053  -4.901  1.00  0.00     0.009 C
ENDBRANCH  27  28
ENDBRANCH  26  27
ENDBRANCH  23  26
ENDBRANCH  20  21
ENDBRANCH  18  20
ENDBRANCH  15  18
ENDBRANCH   3  15
BRANCH  10  31
HETATM   31  C17 UNL     1      62.738  38.756  -5.585  1.00  0.00     0.058 C
HETATM   32  C18 UNL     1      61.403  38.060  -5.614  1.00  0.00     0.037 C
HETATM   33  C19 UNL     1      62.629  40.230  -5.294  1.00  0.00     0.037 C
HETATM   34 CL2  UNL     1      63.439  38.600  -7.229  1.00  0.00    -0.115 Cl
ENDBRANCH  10  31
TORSDOF 9
ENDMDL