MODEL 2
REMARK VINA RESULT: -7.622686935      2.326      4.875
REMARK  6 active torsions:
REMARK  status: ('A' for Active; 'I' for Inactive)
REMARK    1  A    between atoms: C2_2  and  N1_4
REMARK    2  A    between atoms: C7_8  and  C8_9
REMARK    3  A    between atoms: C8_9  and  N2_10
REMARK    4  A    between atoms: N2_10  and  C20_25
REMARK    5  A    between atoms: C9_11  and  C10_12
REMARK       I    between atoms: N3_18  and  C16_19
REMARK    6  A    between atoms: C20_25  and  C23_28
ROOT
HETATM    1  N2  UNL     1      64.240  38.287   5.148  1.00  0.00    -0.355 N
HETATM    2  C9  UNL     1      65.028  37.213   4.861  1.00  0.00     0.069 C
ENDROOT
BRANCH   1   3
HETATM    3  C8  UNL     1      64.637  39.610   5.198  1.00  0.00     0.070 C
BRANCH   3   4
HETATM    4  C7  UNL     1      64.476  40.655   4.196  1.00  0.00     0.052 C
HETATM    5  C6  UNL     1      65.583  41.471   3.679  1.00  0.00     0.013 C
HETATM    6  C5  UNL     1      65.036  42.511   2.712  1.00  0.00     0.031 C
HETATM    7  C4  UNL     1      63.905  43.313   3.217  1.00  0.00     0.273 C
HETATM    8  N1  UNL     1      62.907  42.559   3.955  1.00  0.00     0.093 N
HETATM    9  C24 UNL     1      63.556  41.724   4.896  1.00  0.00     0.282 C
BRANCH   8  10
HETATM   10  C2  UNL     1      62.132  43.535   4.733  1.00  0.00     0.215 C
HETATM   11  C1  UNL     1      62.884  44.813   4.958  1.00  0.00     0.042 C
HETATM   12  C3  UNL     1      61.741  42.977   6.080  1.00  0.00     0.042 C
ENDBRANCH   8  10
ENDBRANCH   3   4
ENDBRANCH   1   3
BRANCH   1  13
HETATM   13  C20 UNL     1      63.144  38.005   6.075  1.00  0.00     0.126 C
HETATM   14  C21 UNL     1      63.318  36.623   6.685  1.00  0.00     0.048 C
HETATM   15  C22 UNL     1      63.274  38.918   7.326  1.00  0.00     0.048 C
BRANCH  13  16
HETATM   16  C23 UNL     1      61.781  38.241   5.578  1.00  0.00     0.412 C
HETATM   17  F1  UNL     1      61.286  39.495   5.536  1.00  0.00    -0.168 F
HETATM   18  F2  UNL     1      61.718  37.758   4.252  1.00  0.00    -0.168 F
HETATM   19  F3  UNL     1      60.817  37.449   6.229  1.00  0.00    -0.168 F
ENDBRANCH  13  16
ENDBRANCH   1  13
BRANCH   2  20
HETATM   20  C10 UNL     1      65.650  36.783   3.625  1.00  0.00     0.025 C
HETATM   21  C11 UNL     1      64.534  36.667   2.543  1.00  0.00     0.010 C
HETATM   22  C12 UNL     1      64.672  37.920   1.734  1.00  0.00     0.010 C
HETATM   23  C13 UNL     1      66.199  37.967   1.570  1.00  0.00    -0.037 C
HETATM   24  C14 UNL     1      66.568  39.342   1.153  1.00  0.00     0.029 C
HETATM   25  C18 UNL     1      66.540  36.897   0.584  1.00  0.00     0.029 C
HETATM   26  C19 UNL     1      66.666  37.611   2.969  1.00  0.00     0.019 C
HETATM   27  C15 UNL     1      67.902  39.418   0.449  1.00  0.00     0.128 C
HETATM   28  N3  UNL     1      68.066  38.361  -0.519  1.00  0.00    -0.336 N
HETATM   29  C16 UNL     1      68.409  38.618  -1.892  1.00  0.00     0.330 C
HETATM   30  C17 UNL     1      67.877  37.009  -0.053  1.00  0.00     0.128 C
HETATM   31  N4  UNL     1      68.549  37.539  -2.778  1.00  0.00    -0.040 NA
HETATM   32  O1  UNL     1      68.568  39.807  -2.250  1.00  0.00    -0.251 OA
ENDBRANCH   2  20
TORSDOF 6
ENDMDL