MODEL 5
REMARK VINA RESULT: -6.652674610      1.402      1.784
REMARK  9 active torsions:
REMARK  status: ('A' for Active; 'I' for Inactive)
REMARK    1  A    between atoms: C2_2  and  C4_4
REMARK    2  A    between atoms: C4_4  and  C5_5
REMARK    3  A    between atoms: C4_4  and  N1_14
REMARK    4  A    between atoms: C5_5  and  C6_6
REMARK       I    between atoms: N1_14  and  C12_16
REMARK       I    between atoms: C12_16  and  N2_18
REMARK    5  A    between atoms: N2_18  and  C14_20
REMARK    6  A    between atoms: C16_22  and  N3_23
REMARK    7  A    between atoms: C19_29  and  N4_30
REMARK    8  A    between atoms: N4_30  and  N5_32
REMARK    9  A    between atoms: N5_32  and  N6_33
ROOT
HETATM    1  N1  UNL     1      62.583  43.030   3.282  1.00  0.00    -0.338 N
ATOM      2  H1  UNL     1      61.766  42.422   3.241  1.00  0.00     0.164 HD
HETATM    3  C12 UNL     1      63.399  43.121   2.136  1.00  0.00     0.318 C
HETATM    4  O1  UNL     1      64.437  43.857   2.110  1.00  0.00    -0.247 OA
HETATM    5  N2  UNL     1      63.065  42.384   0.984  1.00  0.00    -0.332 N
HETATM    6  C13 UNL     1      61.888  41.551   1.026  1.00  0.00     0.155 C
ENDROOT
BRANCH   5   7
HETATM    7  C14 UNL     1      63.893  42.465  -0.211  1.00  0.00     0.115 C
HETATM    8  C15 UNL     1      63.408  41.484  -1.227  1.00  0.00     0.060 C
HETATM    9  C16 UNL     1      63.758  41.863  -2.646  1.00  0.00     0.185 C
HETATM   10  C17 UNL     1      63.270  43.222  -3.033  1.00  0.00     0.035 C
HETATM   11  C18 UNL     1      63.214  44.203  -1.916  1.00  0.00     0.032 C
HETATM   12  C19 UNL     1      64.024  43.871  -0.715  1.00  0.00     0.137 C
BRANCH   9  13
HETATM   13  N3  UNL     1      63.118  40.899  -3.521  1.00  0.00    -0.075 N
ATOM     14  H33 UNL     1      63.632  40.020  -3.589  1.00  0.00     0.274 HD
ATOM     15  H32 UNL     1      62.256  40.518  -3.131  1.00  0.00     0.274 HD
ATOM     16  H31 UNL     1      62.982  41.352  -4.424  1.00  0.00     0.274 HD
ENDBRANCH   9  13
BRANCH  12  17
HETATM   17  N4  UNL     1      65.404  44.250  -0.986  1.00  0.00    -0.246 N
ATOM     18  H4  UNL     1      65.584  44.958  -1.696  1.00  0.00     0.197 HD
BRANCH  17  19
HETATM   19  N5  UNL     1      66.352  43.758  -0.400  1.00  0.00    -0.248 NA
BRANCH  19  20
HETATM   20  N6  UNL     1      67.385  43.401   0.141  1.00  0.00    -0.261 N
ATOM     21  H62 UNL     1      66.970  43.769   0.998  1.00  0.00     0.193 HD
ATOM     22  H61 UNL     1      68.289  43.058   0.469  1.00  0.00     0.193 HD
ENDBRANCH  19  20
ENDBRANCH  17  19
ENDBRANCH  12  17
ENDBRANCH   5   7
BRANCH   1  23
HETATM   23  C4  UNL     1      62.836  43.752   4.526  1.00  0.00     0.093 C
BRANCH  23  24
HETATM   24  C2  UNL     1      61.528  44.053   5.135  1.00  0.00     0.001 C
HETATM   25  C1  UNL     1      61.481  44.201   6.624  1.00  0.00     0.011 C
HETATM   26  C3  UNL     1      60.429  43.098   4.667  1.00  0.00     0.011 C
ENDBRANCH  23  24
BRANCH  23  27
HETATM   27  C5  UNL     1      63.921  43.165   5.318  1.00  0.00     0.067 C
BRANCH  27  28
HETATM   28  C6  UNL     1      64.094  41.707   5.329  1.00  0.00    -0.018 A
HETATM   29  C7  UNL     1      63.237  40.833   5.961  1.00  0.00     0.011 A
HETATM   30  C8  UNL     1      63.398  39.469   5.945  1.00  0.00     0.020 A
HETATM   31  C9  UNL     1      64.447  38.895   5.282  1.00  0.00     0.013 A
HETATM   32 BR1  UNL     1      64.695  36.993   5.244  1.00  0.00    -0.051 Br
HETATM   33  C10 UNL     1      65.335  39.727   4.631  1.00  0.00     0.061 A
HETATM   34  C11 UNL     1      65.165  41.091   4.654  1.00  0.00     0.124 A
HETATM   35  F1  UNL     1      66.029  41.906   4.021  1.00  0.00    -0.206 F
ENDBRANCH  27  28
ENDBRANCH  23  27
ENDBRANCH   1  23
TORSDOF 9
ENDMDL