MODEL 3
REMARK VINA RESULT: -7.771672466      1.347      1.852
REMARK  6 active torsions:
REMARK  status: ('A' for Active; 'I' for Inactive)
REMARK       I    between atoms: C1_2  and  N1_3
REMARK    1  A    between atoms: C1_2  and  C8_13
REMARK    2  A    between atoms: N1_3  and  C2_5
REMARK    3  A    between atoms: C11_16  and  C12_17
REMARK    4  A    between atoms: C12_17  and  N2_18
REMARK       I    between atoms: N2_18  and  C13_19
REMARK    5  A    between atoms: N2_18  and  C20_27
REMARK    6  A    between atoms: C13_19  and  C14_21
ROOT
HETATM    1  C8  UNL     1      63.639  43.223   3.999  1.00  0.00     0.078 C
HETATM    2  C9  UNL     1      64.926  42.533   4.369  1.00  0.00     0.014 C
HETATM    3  C10 UNL     1      64.820  42.129   5.837  1.00  0.00     0.007 C
HETATM    4  C11 UNL     1      63.948  40.960   6.024  1.00  0.00     0.004 C
HETATM    5  C25 UNL     1      62.700  41.185   5.157  1.00  0.00     0.007 C
HETATM    6  C26 UNL     1      62.526  42.633   4.829  1.00  0.00     0.014 C
ENDROOT
BRANCH   4   7
HETATM    7  C12 UNL     1      64.448  39.592   5.742  1.00  0.00     0.130 C
BRANCH   7   8
HETATM    8  N2  UNL     1      63.662  38.662   5.023  1.00  0.00    -0.347 N
HETATM    9  C13 UNL     1      63.987  38.504   3.613  1.00  0.00     0.224 C
HETATM   10  O2  UNL     1      63.313  37.680   2.906  1.00  0.00    -0.273 OA
BRANCH   9  11
HETATM   11  C14 UNL     1      65.044  39.213   2.883  1.00  0.00     0.078 C
HETATM   12  C15 UNL     1      66.149  38.203   2.643  1.00  0.00     0.014 C
HETATM   13  C16 UNL     1      66.604  38.188   1.209  1.00  0.00     0.001 C
HETATM   14  C17 UNL     1      66.768  39.598   0.689  1.00  0.00     0.000 C
HETATM   15  C18 UNL     1      65.422  40.230   0.616  1.00  0.00     0.001 C
HETATM   16  C19 UNL     1      64.419  39.661   1.575  1.00  0.00     0.014 C
ENDBRANCH   9  11
BRANCH   8  17
HETATM   17  C20 UNL     1      62.665  37.783   5.505  1.00  0.00     0.087 C
HETATM   18  C21 UNL     1      61.261  38.168   5.635  1.00  0.00     0.025 C
HETATM   19  C22 UNL     1      60.645  36.969   6.404  1.00  0.00     0.002 C
HETATM   20  C23 UNL     1      61.735  36.576   7.377  1.00  0.00     0.002 C
HETATM   21  C24 UNL     1      63.025  37.211   6.891  1.00  0.00     0.025 C
ENDBRANCH   8  17
ENDBRANCH   7   8
ENDBRANCH   4   7
BRANCH   1  22
HETATM   22  C1  UNL     1      63.330  43.106   2.562  1.00  0.00     0.222 C
HETATM   23  O1  UNL     1      62.354  42.422   2.200  1.00  0.00    -0.273 OA
HETATM   24  N1  UNL     1      64.128  43.758   1.609  1.00  0.00    -0.356 N
ATOM     25  H1  UNL     1      64.922  44.313   1.927  1.00  0.00     0.162 HD
BRANCH  24  26
HETATM   26  C2  UNL     1      63.855  43.666   0.166  1.00  0.00     0.084 C
HETATM   27  C3  UNL     1      65.169  43.679  -0.543  1.00  0.00     0.031 C
HETATM   28  C4  UNL     1      65.138  44.320  -1.890  1.00  0.00     0.081 C
HETATM   29  C5  UNL     1      63.785  44.385  -2.517  1.00  0.00     0.243 C
HETATM   30  F1  UNL     1      63.897  45.196  -3.654  1.00  0.00    -0.206 F
HETATM   31  F2  UNL     1      63.351  43.147  -2.944  1.00  0.00    -0.206 F
HETATM   32  C6  UNL     1      62.737  44.995  -1.644  1.00  0.00     0.081 C
HETATM   33  C7  UNL     1      62.975  44.825  -0.179  1.00  0.00     0.031 C
ENDBRANCH  24  26
ENDBRANCH   1  22
TORSDOF 6
ENDMDL