MODEL 3
REMARK VINA RESULT: -6.627650889      3.666      5.688
REMARK  7 active torsions:
REMARK  status: ('A' for Active; 'I' for Inactive)
REMARK    1  A    between atoms: C2_2  and  C4_4
REMARK    2  A    between atoms: C4_4  and  C5_5
REMARK    3  A    between atoms: C5_5  and  S1_6
REMARK    4  A    between atoms: S1_6  and  N1_9
REMARK    5  A    between atoms: N1_9  and  C6_11
REMARK    6  A    between atoms: C7_12  and  O3_13
REMARK    7  A    between atoms: C12_21  and  C13_22
ROOT
HETATM    1  C6  UNL     1      62.989  38.762   3.349  1.00  0.00     0.088 A
HETATM    2  C7  UNL     1      61.869  38.196   4.014  1.00  0.00     0.101 A
HETATM    3  C8  UNL     1      61.862  38.012   5.372  1.00  0.00    -0.003 A
HETATM    4  C9  UNL     1      60.672  37.415   6.054  1.00  0.00     0.053 C
HETATM    5  C10 UNL     1      62.958  38.380   6.128  1.00  0.00     0.065 A
HETATM    6 CL1  UNL     1      62.936  38.142   7.862  1.00  0.00    -0.082 Cl
HETATM    7  C11 UNL     1      64.044  38.928   5.483  1.00  0.00     0.070 A
HETATM    8 CL2  UNL     1      65.409  39.354   6.495  1.00  0.00    -0.082 Cl
HETATM    9  C12 UNL     1      64.077  39.128   4.093  1.00  0.00     0.031 A
ENDROOT
BRANCH   9  10
HETATM   10  C13 UNL     1      65.307  39.679   3.587  1.00  0.00     0.017 A
HETATM   11  C14 UNL     1      66.364  39.046   3.058  1.00  0.00     0.004 A
HETATM   12  C15 UNL     1      66.647  37.729   2.822  1.00  0.00     0.015 A
HETATM   13  C20 UNL     1      67.332  39.964   2.685  1.00  0.00     0.044 A
HETATM   14  C16 UNL     1      67.841  37.355   2.241  1.00  0.00     0.007 A
HETATM   15  C17 UNL     1      68.805  38.258   1.870  1.00  0.00    -0.060 A
HETATM   16  C18 UNL     1      70.087  37.837   1.244  1.00  0.00     0.048 C
HETATM   17  C19 UNL     1      68.530  39.587   2.103  1.00  0.00     0.037 A
HETATM   18  N2  UNL     1      66.943  41.164   2.950  1.00  0.00    -0.355 N
HETATM   19  C21 UNL     1      65.646  41.091   3.535  1.00  0.00     0.035 A
ATOM     20  H2  UNL     1      67.472  42.017   2.771  1.00  0.00     0.166 HD
HETATM   21  C22 UNL     1      64.911  42.136   3.930  1.00  0.00     0.044 C
ENDBRANCH   9  10
BRANCH   1  22
HETATM   22  N1  UNL     1      62.888  38.929   1.951  1.00  0.00    -0.281 N
ATOM     23  H1  UNL     1      62.702  39.872   1.606  1.00  0.00     0.178 HD
BRANCH  22  24
HETATM   24  S1  UNL     1      63.053  37.671   0.767  1.00  0.00     0.231 S
HETATM   25  O1  UNL     1      61.716  37.124   0.370  1.00  0.00    -0.206 OA
HETATM   26  O2  UNL     1      63.796  36.553   1.477  1.00  0.00    -0.206 OA
BRANCH  24  27
HETATM   27  C5  UNL     1      63.948  38.131  -0.646  1.00  0.00     0.168 C
BRANCH  27  28
HETATM   28  C4  UNL     1      65.398  38.363  -0.544  1.00  0.00     0.049 C
BRANCH  28  29
HETATM   29  C2  UNL     1      65.967  39.686  -0.662  1.00  0.00    -0.092 C
HETATM   30  C1  UNL     1      65.224  40.739  -0.254  1.00  0.00     0.014 C
HETATM   31  C3  UNL     1      67.278  40.022  -1.267  1.00  0.00     0.042 C
ENDBRANCH  28  29
ENDBRANCH  27  28
ENDBRANCH  24  27
ENDBRANCH  22  24
ENDBRANCH   1  22
BRANCH   2  32
HETATM   32  O3  UNL     1      60.770  37.827   3.260  1.00  0.00    -0.358 OA
ATOM     33  H3  UNL     1      59.973  38.336   3.342  1.00  0.00     0.217 HD
ENDBRANCH   2  32
TORSDOF 7
ENDMDL