MODEL 4
REMARK VINA RESULT: -6.447742514      4.617      6.427
REMARK  8 active torsions:
REMARK  status: ('A' for Active; 'I' for Inactive)
REMARK    1  A    between atoms: C2_2  and  C3_3
REMARK    2  A    between atoms: C2_2  and  C11_15
REMARK    3  A    between atoms: C2_2  and  C14_23
REMARK    4  A    between atoms: C3_3  and  O1_4
REMARK    5  A    between atoms: O1_4  and  C4_5
REMARK    6  A    between atoms: C4_5  and  C5_7
REMARK    7  A    between atoms: C11_15  and  C12_16
REMARK    8  A    between atoms: C12_16  and  N1_18
ROOT
HETATM    1  C1  UNL     1      63.307  41.164   2.578  1.00  0.00     0.018 C
HETATM    2  C2  UNL     1      63.967  42.396   3.170  1.00  0.00    -0.012 C
ENDROOT
BRANCH   2   3
HETATM    3  C3  UNL     1      64.892  41.766   4.261  1.00  0.00     0.189 C
BRANCH   3   4
HETATM    4  O1  UNL     1      64.535  40.428   4.501  1.00  0.00    -0.317 OA
BRANCH   4   5
HETATM    5  C4  UNL     1      64.323  39.963   5.766  1.00  0.00     0.293 C
HETATM    6  O2  UNL     1      65.099  40.384   6.674  1.00  0.00    -0.259 OA
BRANCH   5   7
HETATM    7  C5  UNL     1      63.263  39.020   6.112  1.00  0.00     0.042 A
HETATM    8  C6  UNL     1      63.198  38.384   7.327  1.00  0.00     0.041 A
HETATM    9  C7  UNL     1      62.199  37.493   7.656  1.00  0.00     0.036 A
HETATM   10 CL1  UNL     1      62.176  36.711   9.234  1.00  0.00    -0.084 Cl
HETATM   11  C8  UNL     1      61.209  37.226   6.709  1.00  0.00     0.047 A
HETATM   12  C9  UNL     1      61.247  37.850   5.480  1.00  0.00     0.036 A
HETATM   13 CL2  UNL     1      59.992  37.494   4.319  1.00  0.00    -0.084 Cl
HETATM   14  C10 UNL     1      62.270  38.733   5.204  1.00  0.00     0.041 A
ENDBRANCH   5   7
ENDBRANCH   4   5
ENDBRANCH   3   4
ENDBRANCH   2   3
BRANCH   2  15
HETATM   15  C11 UNL     1      64.924  42.967   2.197  1.00  0.00     0.081 C
BRANCH  15  16
HETATM   16  C12 UNL     1      64.469  43.463   0.929  1.00  0.00     0.080 C
HETATM   17  S1  UNL     1      64.546  42.547  -0.419  1.00  0.00    -0.065 SA
BRANCH  16  18
HETATM   18  N1  UNL     1      63.934  44.757   0.786  1.00  0.00    -0.327 N
HETATM   19  C13 UNL     1      62.647  44.852   0.607  1.00  0.00     0.201 C
HETATM   20  N2  UNL     1      62.062  46.132   0.458  1.00  0.00    -0.066 NA
HETATM   21  N3  UNL     1      61.794  43.724   0.556  1.00  0.00    -0.066 NA
ATOM     22  H1  UNL     1      64.529  45.585   0.821  1.00  0.00     0.168 HD
ENDBRANCH  16  18
ENDBRANCH  15  16
ENDBRANCH   2  15
BRANCH   2  23
HETATM   23  C14 UNL     1      63.071  43.309   3.908  1.00  0.00     0.001 C
HETATM   24  C15 UNL     1      63.619  43.502   5.323  1.00  0.00     0.006 C
HETATM   25  C16 UNL     1      62.452  44.219   5.974  1.00  0.00     0.006 C
HETATM   26  C17 UNL     1      61.293  43.384   5.551  1.00  0.00    -0.001 A
HETATM   27  C18 UNL     1      61.702  42.758   4.204  1.00  0.00     0.003 A
HETATM   28  C19 UNL     1      60.513  43.658   4.345  1.00  0.00    -0.039 A
HETATM   29  C20 UNL     1      60.532  45.042   3.740  1.00  0.00     0.015 C
HETATM   30  C21 UNL     1      59.164  42.979   4.250  1.00  0.00     0.015 C
ENDBRANCH   2  23
TORSDOF 8
ENDMDL