MODEL 4
REMARK VINA RESULT: -6.826382925      3.021      5.395
REMARK  6 active torsions:
REMARK  status: ('A' for Active; 'I' for Inactive)
REMARK       I    between atoms: N1_2  and  C2_4
REMARK    1  A    between atoms: C2_4  and  C3_6
REMARK    2  A    between atoms: C6_11  and  C7_12
REMARK    3  A    between atoms: C15_24  and  C16_25
REMARK    4  A    between atoms: C16_25  and  C17_26
REMARK    5  A    between atoms: C17_26  and  C18_28
REMARK    6  A    between atoms: C18_28  and  C19_29
ROOT
HETATM    1  C3  UNL     1      65.093  42.527   2.405  1.00  0.00     0.114 A
HETATM    2  N2  UNL     1      64.163  42.996   3.279  1.00  0.00    -0.354 N
ATOM      3  H2  UNL     1      63.639  43.862   3.162  1.00  0.00     0.166 HD
HETATM    4  C4  UNL     1      64.034  42.155   4.319  1.00  0.00     0.021 A
HETATM    5  C5  UNL     1      64.904  41.113   4.113  1.00  0.00    -0.020 A
HETATM    6  C6  UNL     1      65.576  41.340   2.905  1.00  0.00     0.034 A
HETATM    7  C12 UNL     1      65.078  39.960   5.028  1.00  0.00     0.042 C
HETATM    8  C13 UNL     1      64.208  40.093   6.228  1.00  0.00     0.005 C
HETATM    9  C14 UNL     1      62.869  40.712   5.825  1.00  0.00     0.011 C
HETATM   10  C15 UNL     1      63.174  42.187   5.535  1.00  0.00     0.043 C
ENDROOT
BRANCH   6  11
HETATM   11  C7  UNL     1      66.601  40.469   2.303  1.00  0.00     0.084 A
HETATM   12  N3  UNL     1      67.892  40.762   2.329  1.00  0.00    -0.361 N
HETATM   13  C8  UNL     1      68.770  39.923   1.761  1.00  0.00     0.107 A
ATOM     14  H3  UNL     1      68.216  41.619   2.776  1.00  0.00     0.165 HD
HETATM   15  C9  UNL     1      68.402  38.745   1.137  1.00  0.00     0.029 A
HETATM   16 BR1  UNL     1      69.697  37.593   0.347  1.00  0.00    -0.050 Br
HETATM   17  C10 UNL     1      67.055  38.433   1.108  1.00  0.00     0.065 A
HETATM   18  C11 UNL     1      66.181  39.300   1.691  1.00  0.00     0.145 A
HETATM   19  F1  UNL     1      64.838  38.995   1.666  1.00  0.00    -0.204 F
ENDBRANCH   6  11
BRANCH   1  20
HETATM   20  C2  UNL     1      65.515  43.157   1.154  1.00  0.00     0.268 C
HETATM   21  N1  UNL     1      64.640  43.245   0.046  1.00  0.00    -0.360 N
HETATM   22  C1  UNL     1      65.080  43.867  -1.164  1.00  0.00     0.149 C
ATOM     23  H1  UNL     1      63.695  42.865   0.110  1.00  0.00     0.162 HD
HETATM   24  O1  UNL     1      66.668  43.633   1.045  1.00  0.00    -0.266 OA
ENDBRANCH   1  20
BRANCH  10  25
HETATM   25  C16 UNL     1      61.952  42.980   5.221  1.00  0.00     0.089 C
BRANCH  25  26
HETATM   26  C17 UNL     1      61.836  44.281   5.877  1.00  0.00     0.128 C
HETATM   27  O2  UNL     1      61.500  44.376   7.037  1.00  0.00    -0.298 OA
BRANCH  26  28
HETATM   28  C18 UNL     1      62.155  45.490   5.045  1.00  0.00     0.082 C
BRANCH  28  29
HETATM   29  C19 UNL     1      61.390  45.473   3.745  1.00  0.00    -0.016 C
HETATM   30  C20 UNL     1      60.136  46.318   3.976  1.00  0.00     0.010 C
HETATM   31  C21 UNL     1      62.188  45.973   2.587  1.00  0.00     0.010 C
ENDBRANCH  28  29
ENDBRANCH  26  28
ENDBRANCH  25  26
ENDBRANCH  10  25
TORSDOF 6
ENDMDL