MODEL 3
REMARK VINA RESULT: -6.135464671      4.329      7.764
REMARK  7 active torsions:
REMARK  status: ('A' for Active; 'I' for Inactive)
REMARK    1  A    between atoms: C2_2  and  C3_3
REMARK    2  A    between atoms: C3_3  and  N1_4
REMARK    3  A    between atoms: N1_4  and  C4_5
REMARK    4  A    between atoms: N1_4  and  S1_25
REMARK    5  A    between atoms: C8_11  and  C9_12
REMARK    6  A    between atoms: C9_12  and  N3_14
REMARK    7  A    between atoms: N3_14  and  C11_17
ROOT
HETATM    1  C4  UNL     1      66.060  38.616   0.752  1.00  0.00     0.046 A
HETATM    2  C5  UNL     1      67.182  38.715   1.529  1.00  0.00     0.032 A
HETATM    3  C6  UNL     1      67.160  38.703   2.928  1.00  0.00     0.033 A
HETATM    4  C7  UNL     1      65.942  38.585   3.566  1.00  0.00     0.044 A
HETATM    5  N2  UNL     1      65.623  38.526   4.862  1.00  0.00    -0.356 N
ATOM      6  H2  UNL     1      66.279  38.563   5.642  1.00  0.00     0.166 HD
HETATM    7  C8  UNL     1      64.299  38.410   4.958  1.00  0.00     0.058 A
HETATM    8  C14 UNL     1      63.774  38.395   3.710  1.00  0.00     0.048 A
HETATM    9 BR1  UNL     1      61.939  38.251   3.170  1.00  0.00    -0.048 Br
HETATM   10  C15 UNL     1      64.813  38.495   2.804  1.00  0.00     0.012 A
HETATM   11  C16 UNL     1      64.862  38.506   1.403  1.00  0.00     0.045 A
ENDROOT
BRANCH   7  12
HETATM   12  C9  UNL     1      63.471  38.401   6.228  1.00  0.00     0.235 C
HETATM   13  C10 UNL     1      63.852  39.675   6.914  1.00  0.00     0.047 C
BRANCH  12  14
HETATM   14  N3  UNL     1      63.629  37.166   6.888  1.00  0.00    -0.044 N
ATOM     15  H32 UNL     1      63.982  36.456   6.247  1.00  0.00     0.280 HD
ATOM     16  H31 UNL     1      64.408  37.204   7.545  1.00  0.00     0.280 HD
BRANCH  14  17
HETATM   17  C11 UNL     1      62.420  36.709   7.549  1.00  0.00     0.194 C
HETATM   18  C12 UNL     1      61.204  37.176   6.786  1.00  0.00     0.064 C
HETATM   19  C13 UNL     1      62.391  35.169   7.525  1.00  0.00     0.064 C
HETATM   20 CL1  UNL     1      62.230  37.355   9.189  1.00  0.00    -0.088 Cl
ENDBRANCH  14  17
ENDBRANCH  12  14
ENDBRANCH   7  12
BRANCH   1  21
HETATM   21  N1  UNL     1      66.066  38.477  -0.672  1.00  0.00    -0.273 N
BRANCH  21  22
HETATM   22  C3  UNL     1      66.273  39.627  -1.516  1.00  0.00     0.168 C
BRANCH  22  23
HETATM   23  C2  UNL     1      67.664  39.964  -1.774  1.00  0.00    -0.016 C
HETATM   24  C1  UNL     1      68.133  41.135  -1.267  1.00  0.00     0.008 C
ENDBRANCH  22  23
ENDBRANCH  21  22
BRANCH  21  25
HETATM   25  S1  UNL     1      65.700  36.960  -1.462  1.00  0.00     0.229 S
HETATM   26  C17 UNL     1      63.947  36.739  -1.687  1.00  0.00     0.186 C
HETATM   27  O1  UNL     1      66.433  36.892  -2.770  1.00  0.00    -0.206 OA
HETATM   28  O2  UNL     1      66.224  35.864  -0.550  1.00  0.00    -0.206 OA
ENDBRANCH  21  25
ENDBRANCH   1  21
TORSDOF 7
ENDMDL