MODEL 2
REMARK VINA RESULT: -7.288626269      2.223      2.778
REMARK  7 active torsions:
REMARK  status: ('A' for Active; 'I' for Inactive)
REMARK    1  A    between atoms: C3_3  and  C4_4
REMARK    2  A    between atoms: C3_3  and  C18_28
REMARK    3  A    between atoms: C4_4  and  C5_5
REMARK    4  A    between atoms: C5_5  and  N1_6
REMARK       I    between atoms: N1_6  and  C6_8
REMARK    5  A    between atoms: C6_8  and  C7_10
REMARK       I    between atoms: N2_13  and  C10_14
REMARK       I    between atoms: C10_14  and  N3_16
REMARK    6  A    between atoms: N3_16  and  C11_18
REMARK    7  A    between atoms: C11_18  and  C12_19
ROOT
HETATM    1  C1  UNL     1      62.218  36.191   7.408  1.00  0.00     0.012 C
HETATM    2  C2  UNL     1      62.467  37.107   6.687  1.00  0.00    -0.112 C
HETATM    3  C3  UNL     1      62.807  38.275   5.786  1.00  0.00     0.073 C
ENDROOT
BRANCH   3   4
HETATM    4  C4  UNL     1      63.300  39.378   6.663  1.00  0.00     0.037 C
BRANCH   4   5
HETATM    5  C5  UNL     1      64.663  39.914   6.382  1.00  0.00     0.123 C
BRANCH   5   6
HETATM    6  N1  UNL     1      64.858  40.257   4.969  1.00  0.00    -0.361 N
HETATM    7  C6  UNL     1      64.569  41.535   4.502  1.00  0.00     0.221 C
HETATM    8  O1  UNL     1      64.133  42.482   5.176  1.00  0.00    -0.273 OA
ATOM      9  H1  UNL     1      65.210  39.550   4.322  1.00  0.00     0.162 HD
BRANCH   7  10
HETATM   10  C7  UNL     1      64.796  41.818   3.048  1.00  0.00     0.081 C
HETATM   11  C8  UNL     1      64.007  43.003   2.570  1.00  0.00     0.034 C
HETATM   12  C9  UNL     1      64.615  43.574   1.310  1.00  0.00     0.128 C
HETATM   13  N2  UNL     1      65.487  42.645   0.652  1.00  0.00    -0.334 N
HETATM   14  C10 UNL     1      65.337  42.393  -0.726  1.00  0.00     0.318 C
HETATM   15  C16 UNL     1      66.549  41.932   1.365  1.00  0.00     0.128 C
HETATM   16  O2  UNL     1      64.417  43.009  -1.346  1.00  0.00    -0.247 OA
HETATM   17  N3  UNL     1      66.198  41.475  -1.377  1.00  0.00    -0.338 N
ATOM     18  H3  UNL     1      66.913  41.016  -0.815  1.00  0.00     0.164 HD
HETATM   19  C17 UNL     1      66.274  42.165   2.847  1.00  0.00     0.034 C
BRANCH  17  20
HETATM   20  C11 UNL     1      66.134  41.143  -2.783  1.00  0.00     0.170 C
BRANCH  20  21
HETATM   21  C12 UNL     1      67.210  40.147  -3.058  1.00  0.00     0.004 A
HETATM   22  C13 UNL     1      67.615  39.640  -4.267  1.00  0.00     0.042 A
HETATM   23  C14 UNL     1      68.616  38.755  -4.258  1.00  0.00     0.063 A
HETATM   24 CL1  UNL     1      69.255  38.006  -5.747  1.00  0.00    -0.082 Cl
HETATM   25  C15 UNL     1      69.157  38.425  -3.045  1.00  0.00     0.096 A
HETATM   26 CL2  UNL     1      70.482  37.293  -2.706  1.00  0.00    -0.074 Cl
HETATM   27  S1  UNL     1      68.245  39.367  -1.953  1.00  0.00    -0.079 SA
ENDBRANCH  20  21
ENDBRANCH  17  20
ENDBRANCH   7  10
ENDBRANCH   5   6
ENDBRANCH   4   5
ENDBRANCH   3   4
BRANCH   3  28
HETATM   28  C18 UNL     1      61.564  38.579   4.993  1.00  0.00    -0.037 C
HETATM   29  C19 UNL     1      60.395  37.693   5.386  1.00  0.00     0.015 C
HETATM   30  C20 UNL     1      61.916  38.061   3.554  1.00  0.00     0.015 C
HETATM   31  C21 UNL     1      61.254  40.022   4.897  1.00  0.00     0.015 C
ENDBRANCH   3  28
TORSDOF 7
ENDMDL