MODEL 3
REMARK VINA RESULT: -5.189685354      2.472      4.353
REMARK  8 active torsions:
REMARK  status: ('A' for Active; 'I' for Inactive)
REMARK    1  A    between atoms: C2_2  and  N1_3
REMARK    2  A    between atoms: N1_3  and  C3_6
REMARK    3  A    between atoms: C3_6  and  C4_7
REMARK    4  A    between atoms: C4_7  and  O1_8
REMARK    5  A    between atoms: C4_7  and  C6_10
REMARK    6  A    between atoms: C7_11  and  N2_12
REMARK    7  A    between atoms: N2_12  and  C8_14
REMARK    8  A    between atoms: N5_20  and  C11_21
ROOT
HETATM    1  C8  UNL     1      12.629   9.955  43.481  1.00  0.00     0.244 C
HETATM    2  C9  UNL     1      11.940   8.927  44.232  1.00  0.00     0.078 C
HETATM    3  N3  UNL     1      11.379   8.112  44.820  1.00  0.00    -0.196 NA
ENDROOT
BRANCH   1   4
HETATM    4  N2  UNL     1      14.020   9.625  43.263  1.00  0.00    -0.375 N
ATOM      5  H2  UNL     1      14.608   9.401  44.065  1.00  0.00     0.160 HD
BRANCH   4   6
HETATM    6  C7  UNL     1      14.580   9.606  41.980  1.00  0.00     0.073 A
HETATM    7  C6  UNL     1      15.297   8.537  41.425  1.00  0.00     0.087 A
HETATM    8  N5  UNL     1      15.647   8.919  40.226  1.00  0.00    -0.287 N
HETATM    9  N4  UNL     1      15.208  10.166  39.976  1.00  0.00    -0.307 N
HETATM   10  C10 UNL     1      14.542  10.613  41.051  1.00  0.00     0.138 A
ATOM     11  H4  UNL     1      15.358  10.687  39.112  1.00  0.00     0.186 HD
BRANCH   7  12
HETATM   12  C4  UNL     1      15.446   7.229  42.095  1.00  0.00     0.200 C
BRANCH  12  13
HETATM   13  C3  UNL     1      14.167   6.543  42.455  1.00  0.00     0.270 C
BRANCH  13  14
HETATM   14  N1  UNL     1      14.153   5.191  41.829  1.00  0.00    -0.073 N
ATOM     15  H12 UNL     1      14.344   5.208  40.827  1.00  0.00     0.277 HD
ATOM     16  H11 UNL     1      13.220   4.781  41.772  1.00  0.00     0.277 HD
BRANCH  14  17
HETATM   17  C2  UNL     1      15.112   4.364  42.596  1.00  0.00     0.228 C
HETATM   18  C1  UNL     1      14.586   4.210  44.030  1.00  0.00     0.034 C
ENDBRANCH  14  17
ENDBRANCH  13  14
ENDBRANCH  12  13
BRANCH  12  19
HETATM   19  O1  UNL     1      15.967   7.598  43.426  1.00  0.00    -0.383 OA
HETATM   20  C5  UNL     1      17.319   7.379  43.463  1.00  0.00     0.202 C
ENDBRANCH  12  19
ENDBRANCH   7  12
BRANCH   8  21
HETATM   21  C11 UNL     1      16.298   8.184  39.160  1.00  0.00     0.108 C
HETATM   22  C12 UNL     1      17.786   8.346  39.341  1.00  0.00     0.027 C
HETATM   23  C13 UNL     1      18.539   7.861  38.115  1.00  0.00     0.002 C
HETATM   24  C14 UNL     1      18.152   8.754  36.947  1.00  0.00     0.000 C
HETATM   25  C15 UNL     1      16.680   8.517  36.711  1.00  0.00     0.002 C
HETATM   26  C16 UNL     1      15.844   8.964  37.876  1.00  0.00     0.027 C
ENDBRANCH   8  21
ENDBRANCH   4   6
ENDBRANCH   1   4
TORSDOF 8
ENDMDL