MODEL 2
REMARK VINA RESULT: -7.393609966      0.976      1.450
REMARK  9 active torsions:
REMARK  status: ('A' for Active; 'I' for Inactive)
REMARK    1  A    between atoms: C2_2  and  C3_3
REMARK    2  A    between atoms: C3_3  and  C4_4
REMARK    3  A    between atoms: C3_3  and  N1_7
REMARK    4  A    between atoms: C4_4  and  O1_5
REMARK    5  A    between atoms: N1_7  and  C5_9
REMARK    6  A    between atoms: C5_9  and  C6_10
REMARK    7  A    between atoms: C8_13  and  C9_14
REMARK    8  A    between atoms: C10_19  and  C11_20
REMARK    9  A    between atoms: C11_20  and  C13_22
ROOT
HETATM    1  C6  UNL     1      16.390   8.335  39.272  1.00  0.00     0.051 A
HETATM    2  C7  UNL     1      17.750   8.474  39.095  1.00  0.00     0.171 A
HETATM    3  O2  UNL     1      18.000   8.372  37.812  1.00  0.00    -0.301 OA
HETATM    4  C8  UNL     1      16.897   8.176  37.142  1.00  0.00     0.194 A
HETATM    5  N5  UNL     1      15.888   8.151  38.031  1.00  0.00    -0.334 N
ATOM      6  H5  UNL     1      14.903   8.015  37.805  1.00  0.00     0.168 HD
ENDROOT
BRANCH   4   7
HETATM    7  C9  UNL     1      16.845   8.023  35.692  1.00  0.00     0.174 A
HETATM    8  N2  UNL     1      15.883   8.455  34.864  1.00  0.00    -0.281 N
HETATM    9  N3  UNL     1      16.198   8.116  33.603  1.00  0.00    -0.287 N
ATOM     10  H2  UNL     1      15.045   8.962  35.147  1.00  0.00     0.188 HD
HETATM   11  C10 UNL     1      17.376   7.456  33.614  1.00  0.00     0.101 A
ATOM     12  H3  UNL     1      15.640   8.323  32.775  1.00  0.00     0.188 HD
HETATM   13  N4  UNL     1      17.743   7.416  34.896  1.00  0.00    -0.326 N
ATOM     14  H4  UNL     1      18.601   6.978  35.232  1.00  0.00     0.169 HD
BRANCH  11  15
HETATM   15  C11 UNL     1      18.145   6.882  32.460  1.00  0.00     0.055 C
HETATM   16  C12 UNL     1      19.263   7.802  32.070  1.00  0.00     0.018 C
BRANCH  15  17
HETATM   17  C13 UNL     1      18.600   5.481  32.749  1.00  0.00    -0.003 A
HETATM   18  C14 UNL     1      19.243   4.653  31.709  1.00  0.00     0.006 A
HETATM   19  C15 UNL     1      17.847   4.334  32.158  1.00  0.00     0.006 A
ENDBRANCH  15  17
ENDBRANCH  11  15
ENDBRANCH   4   7
BRANCH   1  20
HETATM   20  C5  UNL     1      15.666   8.389  40.571  1.00  0.00     0.173 C
BRANCH  20  21
HETATM   21  N1  UNL     1      14.718   7.354  40.728  1.00  0.00    -0.410 N
ATOM     22  H1  UNL     1      14.520   6.704  39.966  1.00  0.00     0.154 HD
BRANCH  21  23
HETATM   23  C3  UNL     1      14.051   7.243  41.972  1.00  0.00     0.100 C
BRANCH  23  24
HETATM   24  C2  UNL     1      12.554   7.371  41.747  1.00  0.00     0.022 C
HETATM   25  C1  UNL     1      11.835   6.295  42.544  1.00  0.00     0.007 C
ENDBRANCH  23  24
BRANCH  23  26
HETATM   26  C4  UNL     1      14.290   5.829  42.526  1.00  0.00     0.188 C
BRANCH  26  27
HETATM   27  O1  UNL     1      14.727   5.048  41.444  1.00  0.00    -0.399 OA
ATOM     28  H1  UNL     1      15.531   4.628  41.724  1.00  0.00     0.209 HD
ENDBRANCH  26  27
ENDBRANCH  23  26
ENDBRANCH  21  23
ENDBRANCH  20  21
ENDBRANCH   1  20
TORSDOF 9
ENDMDL