MODEL 5
REMARK VINA RESULT: -5.800816960      3.355      5.838
REMARK  7 active torsions:
REMARK  status: ('A' for Active; 'I' for Inactive)
REMARK    1  A    between atoms: C2_2  and  C3_3
REMARK    2  A    between atoms: C6_10  and  O2_11
REMARK    3  A    between atoms: C8_13  and  O3_14
REMARK    4  A    between atoms: O3_14  and  C9_15
REMARK    5  A    between atoms: C9_15  and  C10_16
REMARK    6  A    between atoms: C10_16  and  N3_17
REMARK    7  A    between atoms: N3_17  and  C11_19
ROOT
HETATM    1  C3  UNL     1      13.663   7.958  42.314  1.00  0.00     0.056 A
HETATM    2  C4  UNL     1      13.724   8.757  43.409  1.00  0.00     0.132 A
HETATM    3  N1  UNL     1      12.530   8.934  44.199  1.00  0.00    -0.082 NA
HETATM    4  N2  UNL     1      14.855   9.417  43.810  1.00  0.00    -0.323 N
ATOM      5  H2  UNL     1      14.837  10.002  44.645  1.00  0.00     0.169 HD
HETATM    6  C5  UNL     1      15.993   9.289  43.097  1.00  0.00     0.169 A
HETATM    7  O1  UNL     1      17.193   9.808  43.261  1.00  0.00    -0.267 OA
HETATM    8  C6  UNL     1      17.998   9.414  42.322  1.00  0.00     0.222 A
HETATM    9  C8  UNL     1      17.306   8.586  41.484  1.00  0.00     0.146 A
HETATM   10  C14 UNL     1      16.009   8.499  41.981  1.00  0.00     0.105 A
HETATM   11  C15 UNL     1      14.883   7.845  41.590  1.00  0.00     0.202 A
HETATM   12  O4  UNL     1      14.897   7.106  40.566  1.00  0.00    -0.286 OA
ENDROOT
BRANCH   9  13
HETATM   13  O3  UNL     1      17.683   7.896  40.323  1.00  0.00    -0.340 OA
BRANCH  13  14
HETATM   14  C9  UNL     1      17.708   8.622  39.076  1.00  0.00     0.220 C
BRANCH  14  15
HETATM   15  C10 UNL     1      18.131   7.743  37.920  1.00  0.00     0.082 C
BRANCH  15  16
HETATM   16  N3  UNL     1      17.074   7.560  37.011  1.00  0.00    -0.396 N
ATOM     17  H3  UNL     1      16.129   7.359  37.340  1.00  0.00     0.159 HD
BRANCH  16  18
HETATM   18  C11 UNL     1      17.351   7.658  35.651  1.00  0.00     0.081 A
HETATM   19  C12 UNL     1      16.668   6.693  34.677  1.00  0.00     0.027 A
HETATM   20  C13 UNL     1      16.150   8.092  34.780  1.00  0.00     0.027 A
ENDBRANCH  16  18
ENDBRANCH  15  16
ENDBRANCH  14  15
ENDBRANCH  13  14
ENDBRANCH   9  13
BRANCH   8  21
HETATM   21  O2  UNL     1      19.350   9.775  42.189  1.00  0.00    -0.333 OA
HETATM   22  C7  UNL     1      19.954  10.338  43.350  1.00  0.00     0.212 C
ENDBRANCH   8  21
BRANCH   1  23
HETATM   23  C2  UNL     1      12.515   7.255  41.816  1.00  0.00     0.009 C
HETATM   24  C1  UNL     1      11.888   6.220  42.207  1.00  0.00     0.012 C
ENDBRANCH   1  23
TORSDOF 7
ENDMDL