MODEL 2
REMARK VINA RESULT: -6.904763287      1.449      1.817
REMARK  10 active torsions:
REMARK  status: ('A' for Active; 'I' for Inactive)
REMARK    1  A    between atoms: C2_2  and  C3_3
REMARK    2  A    between atoms: C4_4  and  O1_5
REMARK    3  A    between atoms: O1_5  and  N1_6
REMARK    4  A    between atoms: N1_6  and  C5_8
REMARK    5  A    between atoms: C5_8  and  C6_9
REMARK    6  A    between atoms: C6_9  and  N2_10
REMARK    7  A    between atoms: N2_10  and  C7_12
REMARK    8  A    between atoms: C7_12  and  C8_13
REMARK    9  A    between atoms: C7_12  and  N3_15
REMARK   10  A    between atoms: C10_22  and  C11_23
ROOT
HETATM    1  C7  UNL     1      17.827   8.222  38.145  1.00  0.00     0.243 C
ENDROOT
BRANCH   1   2
HETATM    2  N2  UNL     1      16.872   9.047  37.519  1.00  0.00    -0.395 N
ATOM      3  H2  UNL     1      16.812  10.025  37.803  1.00  0.00     0.155 HD
BRANCH   2   4
HETATM    4  C6  UNL     1      16.026   8.599  36.554  1.00  0.00     0.137 C
BRANCH   4   5
HETATM    5  C5  UNL     1      16.642   7.488  35.679  1.00  0.00     0.166 C
BRANCH   5   6
HETATM    6  N1  UNL     1      17.404   8.164  34.675  1.00  0.00    -0.296 N
ATOM      7  H1  UNL     1      17.340   9.173  34.538  1.00  0.00     0.188 HD
BRANCH   6   8
HETATM    8  O1  UNL     1      18.164   7.439  33.965  1.00  0.00    -0.255 OA
BRANCH   8   9
HETATM    9  C4  UNL     1      18.394   6.592  33.002  1.00  0.00     0.163 C
HETATM   10  C3  UNL     1      18.177   5.302  33.068  1.00  0.00    -0.001 C
BRANCH  10  11
HETATM   11  C2  UNL     1      18.493   4.465  31.875  1.00  0.00     0.024 C
HETATM   12  C1  UNL     1      19.203   5.410  30.884  1.00  0.00     0.009 C
ENDBRANCH  10  11
ENDBRANCH   8   9
ENDBRANCH   6   8
ENDBRANCH   5   6
ENDBRANCH   4   5
ENDBRANCH   2   4
ENDBRANCH   1   2
BRANCH   1  13
HETATM   13  C8  UNL     1      19.205   8.737  37.734  1.00  0.00     0.277 C
HETATM   14  O2  UNL     1      19.481   9.129  36.647  1.00  0.00    -0.303 OA
ENDBRANCH   1  13
BRANCH   1  15
HETATM   15  N3  UNL     1      17.823   8.393  39.556  1.00  0.00    -0.328 N
HETATM   16  C9  UNL     1      16.856   8.589  40.366  1.00  0.00     0.242 A
HETATM   17  N4  UNL     1      17.126   8.734  41.709  1.00  0.00    -0.263 N
HETATM   18  O3  UNL     1      15.560   8.697  40.220  1.00  0.00    -0.263 OA
HETATM   19  N5  UNL     1      15.962   8.918  42.268  1.00  0.00    -0.279 N
ATOM     20  H4  UNL     1      18.037   8.703  42.167  1.00  0.00     0.190 HD
HETATM   21  C10 UNL     1      14.960   8.903  41.369  1.00  0.00     0.149 A
ATOM     22  H5  UNL     1      15.827   9.056  43.270  1.00  0.00     0.189 HD
ATOM     23  H3  UNL     1      18.743   8.352  39.993  1.00  0.00     0.165 HD
BRANCH  21  24
HETATM   24  C11 UNL     1      13.529   9.086  41.704  1.00  0.00     0.016 C
HETATM   25  C12 UNL     1      13.334   9.515  43.093  1.00  0.00     0.023 C
HETATM   26  C13 UNL     1      12.775   7.788  41.437  1.00  0.00     0.023 C
HETATM   27  C14 UNL     1      12.918  10.158  40.792  1.00  0.00     0.023 C
ENDBRANCH  21  24
ENDBRANCH   1  15
TORSDOF 10
ENDMDL