MODEL 3
REMARK VINA RESULT: -6.922641259      0.897      2.582
REMARK  8 active torsions:
REMARK  status: ('A' for Active; 'I' for Inactive)
REMARK    1  A    between atoms: O1_2  and  C2_3
REMARK    2  A    between atoms: C4_5  and  N1_6
REMARK    3  A    between atoms: N1_6  and  C5_8
REMARK    4  A    between atoms: C5_8  and  C6_9
REMARK    5  A    between atoms: C6_9  and  N2_10
REMARK    6  A    between atoms: N2_10  and  C7_13
REMARK    7  A    between atoms: C13_22  and  O2_23
REMARK    8  A    between atoms: C15_25  and  O3_26
ROOT
HETATM    1  N1  UNL     1      17.360   8.629  37.452  1.00  0.00    -0.388 N
ATOM      2  H1  UNL     1      17.672   9.464  36.958  1.00  0.00     0.159 HD
ENDROOT
BRANCH   1   3
HETATM    3  C4  UNL     1      16.826   8.749  38.790  1.00  0.00     0.033 A
HETATM    4  C3  UNL     1      17.636   8.543  39.883  1.00  0.00     0.069 A
HETATM    5  C2  UNL     1      17.145   8.649  41.167  1.00  0.00     0.106 A
HETATM    6  C15 UNL     1      15.827   8.967  41.423  1.00  0.00     0.135 A
HETATM    7  C13 UNL     1      15.007   9.177  40.311  1.00  0.00     0.106 A
HETATM    8  C12 UNL     1      15.508   9.067  39.031  1.00  0.00     0.069 A
BRANCH   5   9
HETATM    9  O1  UNL     1      17.965   8.440  42.279  1.00  0.00    -0.353 OA
HETATM   10  C1  UNL     1      18.736   9.536  42.731  1.00  0.00     0.210 C
ENDBRANCH   5   9
BRANCH   6  11
HETATM   11  O3  UNL     1      15.360   9.068  42.725  1.00  0.00    -0.351 OA
HETATM   12  C16 UNL     1      14.761   7.904  43.311  1.00  0.00     0.210 C
ENDBRANCH   6  11
BRANCH   7  13
HETATM   13  O2  UNL     1      13.692   9.492  40.598  1.00  0.00    -0.353 OA
HETATM   14  C14 UNL     1      13.250  10.824  40.589  1.00  0.00     0.210 C
ENDBRANCH   7  13
ENDBRANCH   1   3
BRANCH   1  15
HETATM   15  C5  UNL     1      17.456   7.344  36.808  1.00  0.00     0.147 C
BRANCH  15  16
HETATM   16  C6  UNL     1      17.146   7.519  35.321  1.00  0.00     0.254 C
BRANCH  16  17
HETATM   17  N2  UNL     1      16.966   6.244  34.720  1.00  0.00    -0.045 N
ATOM     18  H22 UNL     1      17.326   5.510  35.329  1.00  0.00     0.279 HD
ATOM     19  H21 UNL     1      15.978   5.992  34.709  1.00  0.00     0.279 HD
BRANCH  17  20
HETATM   20  C7  UNL     1      17.521   6.128  33.425  1.00  0.00     0.382 C
HETATM   21  C8  UNL     1      18.296   4.852  33.260  1.00  0.00     0.062 C
HETATM   22  C9  UNL     1      18.544   4.687  31.767  1.00  0.00     0.005 C
HETATM   23  C10 UNL     1      19.262   5.882  31.233  1.00  0.00     0.028 C
HETATM   24  C11 UNL     1      18.748   7.197  31.733  1.00  0.00     0.235 C
HETATM   25  N3  UNL     1      18.499   7.211  33.160  1.00  0.00    -0.046 N
ATOM     26  H32 UNL     1      18.199   8.122  33.509  1.00  0.00     0.279 HD
ATOM     27  H31 UNL     1      19.349   7.136  33.720  1.00  0.00     0.279 HD
ENDBRANCH  17  20
ENDBRANCH  16  17
ENDBRANCH  15  16
ENDBRANCH   1  15
TORSDOF 8
ENDMDL