MODEL 4
REMARK VINA RESULT: -6.496316141      1.245      2.070
REMARK  10 active torsions:
REMARK  status: ('A' for Active; 'I' for Inactive)
REMARK    1  A    between atoms: C2_2  and  C3_3
REMARK    2  A    between atoms: C3_3  and  O1_5
REMARK    3  A    between atoms: C3_3  and  C5_7
REMARK    4  A    between atoms: C5_7  and  O2_8
REMARK    5  A    between atoms: C5_7  and  C6_10
REMARK    6  A    between atoms: C6_10  and  C7_11
REMARK    7  A    between atoms: C7_11  and  N1_12
REMARK    8  A    between atoms: C9_14  and  C10_15
REMARK    9  A    between atoms: C10_15  and  N2_16
REMARK   10  A    between atoms: N2_16  and  C11_19
ROOT
HETATM    1  C11 UNL     1      16.824   7.076  34.735  1.00  0.00     0.213 C
HETATM    2  C12 UNL     1      15.765   8.061  34.528  1.00  0.00     0.099 C
HETATM    3  N3  UNL     1      14.933   8.850  34.378  1.00  0.00    -0.195 NA
HETATM    4  C13 UNL     1      16.425   5.664  34.283  1.00  0.00     0.055 C
HETATM    5  C14 UNL     1      17.846   5.511  33.785  1.00  0.00     0.007 C
HETATM    6  C15 UNL     1      17.880   7.037  33.649  1.00  0.00     0.055 C
ENDROOT
BRANCH   1   7
HETATM    7  N2  UNL     1      17.381   7.022  36.050  1.00  0.00    -0.048 N
ATOM      8  H22 UNL     1      18.159   6.363  36.090  1.00  0.00     0.279 HD
ATOM      9  H21 UNL     1      16.742   6.563  36.699  1.00  0.00     0.279 HD
BRANCH   7  10
HETATM   10  C10 UNL     1      17.779   8.325  36.547  1.00  0.00     0.294 C
BRANCH  10  11
HETATM   11  C9  UNL     1      17.320   8.552  37.930  1.00  0.00     0.070 A
HETATM   12  C8  UNL     1      16.062   9.000  38.298  1.00  0.00     0.139 A
HETATM   13  N1  UNL     1      15.996   9.090  39.624  1.00  0.00    -0.287 N
HETATM   14  N5  UNL     1      17.146   8.722  40.103  1.00  0.00    -0.241 N
HETATM   15  N4  UNL     1      17.981   8.387  39.106  1.00  0.00    -0.287 N
ATOM     16  H5  UNL     1      17.381   8.691  41.095  1.00  0.00     0.208 HD
ATOM     17  H4  UNL     1      18.942   8.065  39.212  1.00  0.00     0.188 HD
BRANCH  13  18
HETATM   18  C7  UNL     1      14.807   9.532  40.370  1.00  0.00     0.152 C
BRANCH  18  19
HETATM   19  C6  UNL     1      14.629   8.697  41.590  1.00  0.00     0.057 C
BRANCH  19  20
HETATM   20  C5  UNL     1      14.221   7.293  41.339  1.00  0.00     0.157 C
BRANCH  20  21
HETATM   21  C3  UNL     1      14.686   6.247  42.260  1.00  0.00     0.097 C
HETATM   22  C4  UNL     1      13.660   6.096  43.400  1.00  0.00     0.053 C
BRANCH  21  23
HETATM   23  C2  UNL     1      15.992   6.455  42.913  1.00  0.00     0.003 C
HETATM   24  C1  UNL     1      17.018   5.666  42.984  1.00  0.00     0.010 C
ENDBRANCH  21  23
BRANCH  21  25
HETATM   25  O1  UNL     1      14.663   4.996  41.604  1.00  0.00    -0.384 OA
ATOM     26  H1  UNL     1      15.320   4.420  41.974  1.00  0.00     0.211 HD
ENDBRANCH  21  25
ENDBRANCH  20  21
BRANCH  20  27
HETATM   27  O2  UNL     1      12.805   7.313  41.229  1.00  0.00    -0.392 OA
ATOM     28  H2  UNL     1      12.422   8.034  41.714  1.00  0.00     0.210 HD
ENDBRANCH  20  27
ENDBRANCH  19  20
ENDBRANCH  18  19
ENDBRANCH  13  18
ENDBRANCH  10  11
ENDBRANCH   7  10
ENDBRANCH   1   7
TORSDOF 10
ENDMDL