MODEL 2
REMARK VINA RESULT: -6.107720635      1.261      1.480
REMARK  10 active torsions:
REMARK  status: ('A' for Active; 'I' for Inactive)
REMARK    1  A    between atoms: C5_7  and  C6_8
REMARK    2  A    between atoms: C6_8  and  N2_9
REMARK    3  A    between atoms: N2_9  and  C7_11
REMARK    4  A    between atoms: C7_11  and  O1_12
REMARK    5  A    between atoms: C7_11  and  C8_14
REMARK    6  A    between atoms: C8_14  and  S1_15
REMARK    7  A    between atoms: S1_15  and  C9_16
REMARK    8  A    between atoms: C9_16  and  C10_17
REMARK    9  A    between atoms: C10_17  and  N3_18
REMARK   10  A    between atoms: C10_17  and  C11_22
ROOT
HETATM    1  C7  UNL     1      17.411   8.049  36.571  1.00  0.00     0.223 C
ENDROOT
BRANCH   1   2
HETATM    2  N2  UNL     1      17.820   8.862  37.662  1.00  0.00    -0.392 N
ATOM      3  H2  UNL     1      18.062   9.845  37.531  1.00  0.00     0.156 HD
BRANCH   2   4
HETATM    4  C6  UNL     1      17.876   8.243  38.955  1.00  0.00     0.165 C
BRANCH   4   5
HETATM    5  C5  UNL     1      16.915   9.027  39.831  1.00  0.00     0.024 A
HETATM    6  C3  UNL     1      16.902   9.347  41.144  1.00  0.00     0.020 A
HETATM    7  N1  UNL     1      15.845   9.921  41.623  1.00  0.00    -0.357 N
HETATM    8  C4  UNL     1      18.128   9.059  42.018  1.00  0.00     0.069 C
HETATM    9  C2  UNL     1      14.814  10.190  40.845  1.00  0.00     0.047 A
ATOM     10  H1  UNL     1      15.809  10.168  42.612  1.00  0.00     0.166 HD
HETATM   11  C1  UNL     1      13.475  10.821  41.138  1.00  0.00     0.076 C
HETATM   12  S2  UNL     1      15.348   9.599  39.336  1.00  0.00    -0.078 SA
ENDBRANCH   4   5
ENDBRANCH   2   4
ENDBRANCH   1   2
BRANCH   1  13
HETATM   13  O1  UNL     1      17.276   6.707  36.920  1.00  0.00    -0.376 OA
ATOM     14  H1  UNL     1      17.562   6.117  36.233  1.00  0.00     0.212 HD
ENDBRANCH   1  13
BRANCH   1  15
HETATM   15  C8  UNL     1      16.071   8.540  36.072  1.00  0.00     0.127 C
BRANCH  15  16
HETATM   16  S1  UNL     1      15.967   8.094  34.281  1.00  0.00    -0.163 SA
BRANCH  16  17
HETATM   17  C9  UNL     1      17.758   7.667  33.905  1.00  0.00     0.107 C
BRANCH  17  18
HETATM   18  C10 UNL     1      17.645   6.317  33.204  1.00  0.00     0.196 C
BRANCH  18  19
HETATM   19  N3  UNL     1      17.754   5.253  34.216  1.00  0.00    -0.074 N
ATOM     20  H33 UNL     1      18.715   5.104  34.524  1.00  0.00     0.274 HD
ATOM     21  H32 UNL     1      17.360   5.527  35.116  1.00  0.00     0.274 HD
ATOM     22  H31 UNL     1      17.326   4.406  33.844  1.00  0.00     0.274 HD
ENDBRANCH  18  19
BRANCH  18  23
HETATM   23  C11 UNL     1      18.902   6.152  32.299  1.00  0.00     0.008 C
HETATM   24  C12 UNL     1      18.853   7.237  31.268  1.00  0.00     0.011 C
HETATM   25  C13 UNL     1      18.794   4.792  31.610  1.00  0.00     0.011 C
ENDBRANCH  18  23
ENDBRANCH  17  18
ENDBRANCH  16  17
ENDBRANCH  15  16
ENDBRANCH   1  15
TORSDOF 10
ENDMDL