MODEL 1
REMARK VINA RESULT: -4.941958168      0.000      0.000
REMARK  8 active torsions:
REMARK  status: ('A' for Active; 'I' for Inactive)
REMARK    1  A    between atoms: C2_2  and  C3_3
REMARK    2  A    between atoms: C3_3  and  C4_4
REMARK    3  A    between atoms: C6_8  and  N2_9
REMARK    4  A    between atoms: N5_17  and  C8_18
REMARK    5  A    between atoms: C8_18  and  C9_19
REMARK    6  A    between atoms: C9_19  and  N6_20
REMARK    7  A    between atoms: N6_20  and  C10_21
REMARK    8  A    between atoms: N6_20  and  C12_23
ROOT
HETATM    1  C4  UNL     1      13.261   9.397  41.096  1.00  0.00     0.086 A
HETATM    2  N1  UNL     1      12.583   8.409  41.759  1.00  0.00    -0.340 N
ATOM      3  H1  UNL     1      11.599   8.460  42.022  1.00  0.00     0.167 HD
HETATM    4  C5  UNL     1      13.384   7.370  42.014  1.00  0.00     0.126 A
HETATM    5  C6  UNL     1      13.548   6.105  42.559  1.00  0.00     0.160 A
HETATM    6  N3  UNL     1      14.812   5.680  42.390  1.00  0.00    -0.197 N
HETATM    7  S1  UNL     1      15.500   4.121  42.921  1.00  0.00     0.070 SA
HETATM    8  N4  UNL     1      15.437   6.651  41.752  1.00  0.00    -0.268 N
ATOM      9  H4  UNL     1      16.420   6.619  41.481  1.00  0.00     0.190 HD
HETATM   10  C7  UNL     1      14.619   7.686  41.504  1.00  0.00     0.156 A
HETATM   11  N5  UNL     1      14.501   8.929  40.955  1.00  0.00    -0.315 N
ENDROOT
BRANCH  11  12
HETATM   12  C8  UNL     1      15.635   9.571  40.284  1.00  0.00     0.176 C
BRANCH  12  13
HETATM   13  C9  UNL     1      15.582   9.188  38.842  1.00  0.00     0.083 C
BRANCH  13  14
HETATM   14  N6  UNL     1      16.536   8.296  38.348  1.00  0.00    -0.373 N
BRANCH  14  15
HETATM   15  C10 UNL     1      17.863   8.447  38.905  1.00  0.00     0.122 C
HETATM   16  C11 UNL     1      18.935   8.562  37.831  1.00  0.00     0.027 C
ENDBRANCH  14  15
BRANCH  14  17
HETATM   17  C12 UNL     1      16.473   7.820  37.030  1.00  0.00     0.058 C
HETATM   18  C13 UNL     1      15.808   8.744  36.029  1.00  0.00     0.055 C
ENDBRANCH  14  17
ENDBRANCH  13  14
ENDBRANCH  12  13
ENDBRANCH  11  12
BRANCH   1  19
HETATM   19  C3  UNL     1      12.665  10.712  40.683  1.00  0.00     0.076 C
BRANCH  19  20
HETATM   20  C2  UNL     1      12.632  11.732  41.763  1.00  0.00     0.003 C
HETATM   21  C1  UNL     1      13.774  12.714  41.579  1.00  0.00     0.005 C
ENDBRANCH  19  20
ENDBRANCH   1  19
BRANCH   5  22
HETATM   22  N2  UNL     1      12.611   5.442  43.141  1.00  0.00    -0.382 N
ATOM     23  H22 UNL     1      11.717   5.190  42.720  1.00  0.00     0.157 HD
ATOM     24  H21 UNL     1      12.664   5.097  44.100  1.00  0.00     0.157 HD
ENDBRANCH   5  22
TORSDOF 8
ENDMDL