MODEL 3
REMARK VINA RESULT: -7.758723478      0.827      1.179
REMARK  10 active torsions:
REMARK  status: ('A' for Active; 'I' for Inactive)
REMARK    1  A    between atoms: C2_2  and  C3_3
REMARK    2  A    between atoms: C3_3  and  C4_4
REMARK    3  A    between atoms: C5_8  and  C6_9
REMARK    4  A    between atoms: C6_9  and  N2_10
REMARK    5  A    between atoms: C6_9  and  C7_14
REMARK    6  A    between atoms: C7_14  and  C8_15
REMARK    7  A    between atoms: C8_15  and  O2_16
REMARK    8  A    between atoms: C8_15  and  C9_18
REMARK    9  A    between atoms: C9_18  and  N3_19
REMARK   10  A    between atoms: N3_19  and  C10_21
ROOT
HETATM    1  C6  UNL     1      16.785   9.083  38.283  1.00  0.00     0.262 C
ENDROOT
BRANCH   1   2
HETATM    2  C5  UNL     1      15.775   8.639  39.306  1.00  0.00     0.179 A
HETATM    3  O1  UNL     1      15.556   7.405  39.653  1.00  0.00    -0.221 OA
HETATM    4  N1  UNL     1      14.616   7.347  40.562  1.00  0.00    -0.247 N
HETATM    5  C4  UNL     1      14.192   8.592  40.830  1.00  0.00     0.103 A
ATOM      6  H1  UNL     1      14.263   6.494  40.996  1.00  0.00     0.196 HD
HETATM    7  N4  UNL     1      14.945   9.398  40.019  1.00  0.00    -0.325 N
ATOM      8  H4  UNL     1      14.880  10.415  39.970  1.00  0.00     0.169 HD
BRANCH   5   9
HETATM    9  C3  UNL     1      13.141   9.038  41.777  1.00  0.00     0.078 C
BRANCH   9  10
HETATM   10  C2  UNL     1      12.475   7.841  42.430  1.00  0.00     0.003 C
HETATM   11  C1  UNL     1      12.108   8.233  43.852  1.00  0.00     0.005 C
ENDBRANCH   9  10
ENDBRANCH   5   9
ENDBRANCH   1   2
BRANCH   1  12
HETATM   12  N2  UNL     1      18.026   8.379  38.506  1.00  0.00    -0.068 N
ATOM     13  H23 UNL     1      18.800   9.013  38.704  1.00  0.00     0.275 HD
ATOM     14  H22 UNL     1      18.029   7.868  39.388  1.00  0.00     0.275 HD
ATOM     15  H21 UNL     1      18.216   7.775  37.707  1.00  0.00     0.275 HD
ENDBRANCH   1  12
BRANCH   1  16
HETATM   16  C7  UNL     1      16.313   8.873  36.890  1.00  0.00     0.078 C
BRANCH  16  17
HETATM   17  C8  UNL     1      17.230   7.943  36.138  1.00  0.00     0.158 C
BRANCH  17  18
HETATM   18  O2  UNL     1      18.395   8.667  35.718  1.00  0.00    -0.390 OA
ATOM     19  H2  UNL     1      18.793   8.218  34.981  1.00  0.00     0.210 HD
ENDBRANCH  17  18
BRANCH  17  20
HETATM   20  C9  UNL     1      16.574   7.525  34.856  1.00  0.00     0.092 C
BRANCH  20  21
HETATM   21  N3  UNL     1      16.969   6.320  34.320  1.00  0.00    -0.374 N
ATOM     22  H3  UNL     1      16.381   5.513  34.530  1.00  0.00     0.164 HD
BRANCH  21  23
HETATM   23  C10 UNL     1      18.084   6.086  33.524  1.00  0.00    -0.014 C
HETATM   24  C11 UNL     1      18.678   7.130  32.671  1.00  0.00     0.052 C
HETATM   25  C12 UNL     1      18.506   6.966  31.180  1.00  0.00     0.006 C
HETATM   26  C13 UNL     1      18.817   5.572  30.697  1.00  0.00     0.001 C
HETATM   27  C14 UNL     1      19.168   4.658  31.861  1.00  0.00     0.006 C
HETATM   28  C15 UNL     1      17.984   4.730  32.792  1.00  0.00     0.052 C
ENDBRANCH  21  23
ENDBRANCH  20  21
ENDBRANCH  17  20
ENDBRANCH  16  17
ENDBRANCH   1  16
TORSDOF 10
ENDMDL