MODEL 2
REMARK VINA RESULT: -3.800571550      2.001      2.704
REMARK  3 active torsions:
REMARK  status: ('A' for Active; 'I' for Inactive)
REMARK    1  A    between atoms: O1_2  and  C2_3
REMARK    2  A    between atoms: C2_3  and  C3_4
REMARK    3  A    between atoms: C3_4  and  C4_5
ROOT
HETATM    1  C3  UNL     1      15.502  36.582  37.081  1.00  0.00     0.022 C
HETATM    2  C5  UNL     1      16.203  35.666  36.151  1.00  0.00     0.019 C
HETATM    3  C6  UNL     1      17.601  35.405  36.636  1.00  0.00     0.021 C
HETATM    4  C7  UNL     1      18.361  36.713  36.683  1.00  0.00     0.121 C
HETATM    5  N1  UNL     1      17.696  37.647  37.530  1.00  0.00    -0.397 N
HETATM    6  C8  UNL     1      18.214  37.840  38.818  1.00  0.00     0.148 C
HETATM    7  C9  UNL     1      16.320  37.823  37.320  1.00  0.00     0.070 C
ENDROOT
BRANCH   1   8
HETATM    8  C2  UNL     1      14.206  37.136  36.448  1.00  0.00     0.182 C
BRANCH   8   9
HETATM    9  O1  UNL     1      14.148  36.534  35.199  1.00  0.00    -0.395 OA
HETATM   10  C1  UNL     1      12.854  36.292  34.769  1.00  0.00     0.201 C
ENDBRANCH   8   9
ENDBRANCH   1   8
BRANCH   1  11
HETATM   11  C4  UNL     1      15.157  35.884  38.360  1.00  0.00     0.103 C
HETATM   12  S1  UNL     1      13.392  35.748  38.668  1.00  0.00    -0.096 SA
ENDBRANCH   1  11
TORSDOF 3
ENDMDL