MODEL 2
REMARK VINA RESULT: -5.089000332      3.096      4.371
REMARK  4 active torsions:
REMARK  status: ('A' for Active; 'I' for Inactive)
REMARK    1  A    between atoms: C2_2  and  C3_3
REMARK    2  A    between atoms: C3_3  and  N1_4
REMARK    3  A    between atoms: C4_5  and  C5_6
REMARK    4  A    between atoms: C9_11  and  N2_12
ROOT
HETATM    1  N1  UNL     1      12.456  35.614  34.107  1.00  0.00     0.133 N
HETATM    2  C4  UNL     1      12.176  34.525  35.047  1.00  0.00     0.231 C
HETATM    3  C7  UNL     1      12.613  35.417  36.159  1.00  0.00     0.112 C
HETATM    4  C8  UNL     1      13.359  36.141  35.064  1.00  0.00     0.317 A
HETATM    5  O1  UNL     1      13.713  37.458  35.172  1.00  0.00    -0.311 OA
HETATM    6  C9  UNL     1      14.702  36.357  35.084  1.00  0.00     0.388 A
ENDROOT
BRANCH   1   7
HETATM    7  C3  UNL     1      11.324  36.500  33.909  1.00  0.00     0.277 C
BRANCH   7   8
HETATM    8  C2  UNL     1      11.228  36.851  32.451  1.00  0.00     0.026 C
HETATM    9  C1  UNL     1      10.472  35.846  31.638  1.00  0.00     0.007 C
ENDBRANCH   7   8
ENDBRANCH   1   7
BRANCH   6  10
HETATM   10  N2  UNL     1      15.455  36.290  36.321  1.00  0.00    -0.048 N
ATOM     11  H23 UNL     1      15.358  37.185  36.799  1.00  0.00     0.277 HD
ATOM     12  H22 UNL     1      14.964  35.658  36.955  1.00  0.00     0.277 HD
ATOM     13  H21 UNL     1      16.442  36.036  36.325  1.00  0.00     0.277 HD
ENDBRANCH   6  10
BRANCH   2  14
HETATM   14  C5  UNL     1      10.714  34.208  35.159  1.00  0.00     0.031 C
HETATM   15  C6  UNL     1      10.312  34.334  36.610  1.00  0.00     0.007 C
ENDBRANCH   2  14
TORSDOF 4
ENDMDL