MODEL 2
REMARK VINA RESULT: -5.417719690      0.834      1.254
REMARK  3 active torsions:
REMARK  status: ('A' for Active; 'I' for Inactive)
REMARK    1  A    between atoms: C2_2  and  C3_3
REMARK    2  A    between atoms: C3_3  and  N1_5
REMARK    3  A    between atoms: N1_5  and  C5_7
ROOT
HETATM    1  C5  UNL     1      13.880  36.197  36.565  1.00  0.00     0.120 C
HETATM    2  C6  UNL     1      14.088  37.605  36.321  1.00  0.00     0.090 C
HETATM    3  N2  UNL     1      14.258  38.737  36.152  1.00  0.00    -0.195 NA
HETATM    4  C7  UNL     1      13.975  35.891  38.079  1.00  0.00     0.072 C
HETATM    5  C8  UNL     1      15.293  36.392  38.628  1.00  0.00     0.171 C
HETATM    6  O1  UNL     1      16.373  35.786  37.971  1.00  0.00    -0.391 OA
HETATM    7  C9  UNL     1      16.313  36.155  36.633  1.00  0.00     0.171 C
HETATM    8  C10 UNL     1      15.120  35.494  35.973  1.00  0.00     0.072 C
ENDROOT
BRANCH   1   9
HETATM    9  N1  UNL     1      12.679  35.619  36.139  1.00  0.00    -0.397 N
ATOM     10  H1  UNL     1      11.958  35.426  36.834  1.00  0.00     0.155 HD
BRANCH   9  11
HETATM   11  C3  UNL     1      12.425  35.297  34.808  1.00  0.00     0.074 C
HETATM   12  C4  UNL     1      11.558  34.025  34.785  1.00  0.00     0.032 C
BRANCH  11  13
HETATM   13  C2  UNL     1      11.681  36.309  33.968  1.00  0.00     0.020 C
HETATM   14  C1  UNL     1      10.521  35.679  33.243  1.00  0.00     0.007 C
ENDBRANCH  11  13
ENDBRANCH   9  11
ENDBRANCH   1   9
TORSDOF 3
ENDMDL