MODEL 3
REMARK VINA RESULT: -4.591618200      2.522      4.313
REMARK  4 active torsions:
REMARK  status: ('A' for Active; 'I' for Inactive)
REMARK    1  A    between atoms: C3_4  and  C4_5
REMARK    2  A    between atoms: C4_5  and  C5_6
REMARK    3  A    between atoms: C5_6  and  C6_7
REMARK    4  A    between atoms: C6_7  and  N1_8
ROOT
HETATM    1  C1  UNL     1      11.111  37.545  31.512  1.00  0.00     0.071 C
HETATM    2  C2  UNL     1      11.013  36.809  32.843  1.00  0.00     0.257 C
HETATM    3  O1  UNL     1      11.924  35.760  32.910  1.00  0.00    -0.353 OA
HETATM    4  C3  UNL     1      11.246  34.742  33.642  1.00  0.00     0.158 C
HETATM    5  C7  UNL     1       9.919  34.908  33.009  1.00  0.00     0.083 C
HETATM    6  C8  UNL     1       8.804  34.108  33.525  1.00  0.00     0.048 C
HETATM    7  C9  UNL     1      10.088  34.554  31.519  1.00  0.00     0.048 C
HETATM    8  O2  UNL     1       9.751  36.280  33.047  1.00  0.00    -0.349 OA
ENDROOT
BRANCH   4   9
HETATM    9  C4  UNL     1      11.427  35.108  35.044  1.00  0.00     0.036 C
BRANCH   9  10
HETATM   10  C5  UNL     1      12.785  35.035  35.644  1.00  0.00     0.030 C
BRANCH  10  11
HETATM   11  C6  UNL     1      13.357  36.443  35.862  1.00  0.00     0.230 C
BRANCH  11  12
HETATM   12  N1  UNL     1      14.111  36.820  34.669  1.00  0.00    -0.079 N
ATOM     13  H13 UNL     1      15.047  36.416  34.653  1.00  0.00     0.274 HD
ATOM     14  H12 UNL     1      13.754  36.377  33.822  1.00  0.00     0.274 HD
ATOM     15  H11 UNL     1      14.121  37.837  34.605  1.00  0.00     0.274 HD
ENDBRANCH  11  12
ENDBRANCH  10  11
ENDBRANCH   9  10
ENDBRANCH   4   9
TORSDOF 4
ENDMDL