MODEL 1
REMARK VINA RESULT: -5.510904320      0.000      0.000
REMARK  3 active torsions:
REMARK  status: ('A' for Active; 'I' for Inactive)
REMARK    1  A    between atoms: O1_2  and  C2_3
REMARK    2  A    between atoms: C5_9  and  C6_10
REMARK    3  A    between atoms: C7_11  and  C8_12
ROOT
HETATM    1  C2  UNL     1      14.744  36.542  37.477  1.00  0.00     0.194 C
HETATM    2  C3  UNL     1      16.251  36.652  37.477  1.00  0.00     0.118 C
HETATM    3  N1  UNL     1      17.034  37.330  38.452  1.00  0.00    -0.085 NA
HETATM    4  N2  UNL     1      16.746  36.043  36.467  1.00  0.00    -0.379 N
ATOM      5  H2  UNL     1      17.745  35.988  36.268  1.00  0.00     0.160 HD
HETATM    6  C4  UNL     1      15.737  35.447  35.647  1.00  0.00     0.132 C
HETATM    7  C5  UNL     1      14.445  36.121  36.092  1.00  0.00     0.061 C
ENDROOT
BRANCH   7   8
HETATM    8  C6  UNL     1      13.295  35.240  35.884  1.00  0.00    -0.021 C
HETATM    9  C7  UNL     1      12.387  35.361  34.958  1.00  0.00    -0.026 C
BRANCH   9  10
HETATM   10  C8  UNL     1      11.232  34.439  34.782  1.00  0.00    -0.001 C
HETATM   11  C9  UNL     1      10.481  34.221  36.077  1.00  0.00     0.013 C
HETATM   12  C10 UNL     1      10.319  35.047  33.738  1.00  0.00     0.013 C
ENDBRANCH   9  10
ENDBRANCH   7   8
BRANCH   1  13
HETATM   13  O1  UNL     1      14.195  37.805  37.723  1.00  0.00    -0.383 OA
HETATM   14  C1  UNL     1      14.191  38.651  36.647  1.00  0.00     0.202 C
ENDBRANCH   1  13
TORSDOF 3
ENDMDL