MODEL 2
REMARK VINA RESULT: -5.578457418      0.985      1.590
REMARK  3 active torsions:
REMARK  status: ('A' for Active; 'I' for Inactive)
REMARK    1  A    between atoms: N1_2  and  C3_4
REMARK    2  A    between atoms: C6_7  and  N2_8
REMARK    3  A    between atoms: N2_8  and  C7_10
ROOT
HETATM    1  C7  UNL     1      13.822  35.924  35.901  1.00  0.00     0.108 C
HETATM    2  C8  UNL     1      13.902  37.411  35.781  1.00  0.00     0.054 C
HETATM    3  C9  UNL     1      15.215  35.369  35.766  1.00  0.00     0.054 C
HETATM    4  C10 UNL     1      13.511  35.728  37.364  1.00  0.00     0.089 C
HETATM    5  N3  UNL     1      13.270  35.554  38.499  1.00  0.00    -0.195 NA
ENDROOT
BRANCH   1   6
HETATM    6  N2  UNL     1      12.915  35.208  35.212  1.00  0.00    -0.396 N
ATOM      7  H2  UNL     1      13.330  34.384  34.778  1.00  0.00     0.155 HD
BRANCH   6   8
HETATM    8  C6  UNL     1      11.602  35.305  34.952  1.00  0.00     0.111 C
HETATM    9  C3  UNL     1      10.946  34.732  33.731  1.00  0.00     0.244 C
HETATM   10  C4  UNL     1       9.644  34.988  34.532  1.00  0.00     0.040 C
HETATM   11  C5  UNL     1      10.536  34.536  35.716  1.00  0.00     0.029 C
BRANCH   9  12
HETATM   12  N1  UNL     1      11.044  35.455  32.517  1.00  0.00     0.086 N
HETATM   13  C1  UNL     1      10.200  34.970  31.471  1.00  0.00     0.310 C
HETATM   14  C2  UNL     1      10.973  36.871  32.599  1.00  0.00     0.310 C
ENDBRANCH   9  12
ENDBRANCH   6   8
ENDBRANCH   1   6
TORSDOF 3
ENDMDL