MODEL 2
REMARK VINA RESULT: -4.609523932      2.311      3.789
REMARK  3 active torsions:
REMARK  status: ('A' for Active; 'I' for Inactive)
REMARK    1  A    between atoms: N1_2  and  C2_5
REMARK    2  A    between atoms: C2_5  and  C3_6
REMARK    3  A    between atoms: C3_6  and  C4_7
ROOT
HETATM    1  C4  UNL     1      14.352  35.857  37.514  1.00  0.00     0.133 C
HETATM    2  O1  UNL     1      14.854  37.187  37.570  1.00  0.00    -0.384 OA
HETATM    3  C5  UNL     1      14.059  37.855  36.658  1.00  0.00     0.175 C
HETATM    4  C6  UNL     1      14.024  36.959  35.454  1.00  0.00     0.046 C
HETATM    5  C7  UNL     1      12.647  36.736  34.890  1.00  0.00     0.175 C
HETATM    6  O2  UNL     1      12.283  35.431  35.119  1.00  0.00    -0.390 OA
HETATM    7  C8  UNL     1      13.444  34.721  35.401  1.00  0.00     0.179 C
HETATM    8  C9  UNL     1      14.387  35.625  36.079  1.00  0.00     0.011 C
HETATM    9  C10 UNL     1      15.842  35.341  35.673  1.00  0.00     0.020 C
ENDROOT
BRANCH   1  10
HETATM   10  C3  UNL     1      13.116  35.837  38.297  1.00  0.00     0.060 C
BRANCH  10  11
HETATM   11  C2  UNL     1      13.129  35.234  39.660  1.00  0.00     0.234 C
BRANCH  11  12
HETATM   12  N1  UNL     1      14.494  35.449  40.193  1.00  0.00    -0.079 N
HETATM   13  C1  UNL     1      14.580  35.119  41.590  1.00  0.00     0.266 C
ATOM     14  H12 UNL     1      14.816  36.401  40.017  1.00  0.00     0.276 HD
ATOM     15  H11 UNL     1      15.190  34.941  39.648  1.00  0.00     0.276 HD
ENDBRANCH  11  12
ENDBRANCH  10  11
ENDBRANCH   1  10
TORSDOF 3
ENDMDL