MODEL 1
REMARK VINA RESULT: -4.964975432      0.000      0.000
REMARK  4 active torsions:
REMARK  status: ('A' for Active; 'I' for Inactive)
REMARK    1  A    between atoms: N1_1  and  C1_5
REMARK    2  A    between atoms: C1_5  and  C2_6
REMARK    3  A    between atoms: C3_7  and  C4_8
REMARK    4  A    between atoms: C4_8  and  C5_9
ROOT
HETATM    1  C2  UNL     1      13.669  35.795  36.516  1.00  0.00    -0.004 C
HETATM    2  C3  UNL     1      13.048  35.572  35.383  1.00  0.00    -0.028 C
ENDROOT
BRANCH   2   3
HETATM    3  C4  UNL     1      11.838  34.711  35.385  1.00  0.00     0.044 C
BRANCH   3   4
HETATM    4  C5  UNL     1      10.792  35.400  34.526  1.00  0.00     0.074 C
HETATM    5  C6  UNL     1       9.994  34.343  33.830  1.00  0.00     0.183 C
HETATM    6  O1  UNL     1       9.322  34.789  32.708  1.00  0.00    -0.389 OA
HETATM    7  C7  UNL     1      10.149  35.075  31.646  1.00  0.00     0.177 C
HETATM    8  C8  UNL     1      10.617  36.522  31.832  1.00  0.00     0.100 C
HETATM    9  S1  UNL     1      11.669  36.477  33.334  1.00  0.00    -0.160 SA
ENDBRANCH   3   4
ENDBRANCH   2   3
BRANCH   1  10
HETATM   10  C1  UNL     1      14.899  36.666  36.538  1.00  0.00     0.256 C
BRANCH  10  11
HETATM   11  N1  UNL     1      14.606  37.807  35.693  1.00  0.00    -0.076 N
ATOM     12  H13 UNL     1      15.396  38.444  35.585  1.00  0.00     0.274 HD
ATOM     13  H12 UNL     1      14.503  37.566  34.708  1.00  0.00     0.274 HD
ATOM     14  H11 UNL     1      13.778  38.252  36.088  1.00  0.00     0.274 HD
ENDBRANCH  10  11
ENDBRANCH   1  10
TORSDOF 4
ENDMDL