MODEL 5
REMARK VINA RESULT: -4.595469728      1.245      1.373
REMARK  3 active torsions:
REMARK  status: ('A' for Active; 'I' for Inactive)
REMARK    1  A    between atoms: C2_2  and  C3_3
REMARK    2  A    between atoms: C3_3  and  C4_4
REMARK    3  A    between atoms: C4_4  and  C5_5
ROOT
HETATM    1  C4  UNL     1      13.946  36.087  37.050  1.00  0.00     0.043 C
HETATM    2  C8  UNL     1      15.419  36.027  37.248  1.00  0.00     0.182 C
HETATM    3  O1  UNL     1      15.511  37.300  36.665  1.00  0.00    -0.389 OA
HETATM    4  C9  UNL     1      14.235  37.561  37.163  1.00  0.00     0.182 C
ENDROOT
BRANCH   1   5
HETATM    5  C3  UNL     1      13.091  35.542  38.144  1.00  0.00     0.043 C
BRANCH   5   6
HETATM    6  C2  UNL     1      13.780  35.403  39.431  1.00  0.00    -0.036 C
HETATM    7  C1  UNL     1      13.127  34.961  40.485  1.00  0.00     0.007 C
ENDBRANCH   5   6
ENDBRANCH   1   5
BRANCH   1   8
HETATM    8  C5  UNL     1      13.488  35.713  35.668  1.00  0.00     0.260 C
HETATM    9  N1  UNL     1      13.076  36.872  34.930  1.00  0.00    -0.061 N
HETATM   10  C6  UNL     1      12.260  36.483  33.835  1.00  0.00     0.243 C
ATOM     11  H12 UNL     1      12.616  37.560  35.526  1.00  0.00     0.278 HD
ATOM     12  H11 UNL     1      13.870  37.439  34.633  1.00  0.00     0.278 HD
HETATM   13  C7  UNL     1      11.079  35.696  34.360  1.00  0.00     0.103 C
HETATM   14  S1  UNL     1      11.897  34.793  35.740  1.00  0.00    -0.134 SA
ENDBRANCH   1   8
TORSDOF 3
ENDMDL