MODEL 5
REMARK VINA RESULT: -5.853230218      2.191      5.814
REMARK  4 active torsions:
REMARK  status: ('A' for Active; 'I' for Inactive)
REMARK    1  A    between atoms: N1_1  and  C1_5
REMARK    2  A    between atoms: C4_8  and  C5_9
REMARK    3  A    between atoms: C5_9  and  O1_10
REMARK    4  A    between atoms: O1_10  and  C6_11
ROOT
HETATM    1  C1  UNL     1      10.438  36.375  32.551  1.00  0.00     0.318 C
HETATM    2  C2  UNL     1      10.333  34.894  32.885  1.00  0.00     0.064 C
HETATM    3  C3  UNL     1      11.261  34.694  34.090  1.00  0.00     0.038 C
HETATM    4  C4  UNL     1      11.666  36.097  34.399  1.00  0.00     0.148 C
HETATM    5  O2  UNL     1      11.602  36.796  33.170  1.00  0.00    -0.352 OA
ENDROOT
BRANCH   4   6
HETATM    6  C5  UNL     1      13.083  36.225  34.873  1.00  0.00     0.200 C
BRANCH   6   7
HETATM    7  O1  UNL     1      13.463  37.463  35.299  1.00  0.00    -0.383 OA
BRANCH   7   8
HETATM    8  C6  UNL     1      14.430  37.501  36.262  1.00  0.00     0.121 C
HETATM    9  C7  UNL     1      14.052  36.787  37.534  1.00  0.00     0.032 C
HETATM   10  C8  UNL     1      14.892  37.556  38.563  1.00  0.00     0.002 C
HETATM   11  C9  UNL     1      14.560  38.984  38.178  1.00  0.00     0.002 C
HETATM   12  C10 UNL     1      14.637  38.939  36.686  1.00  0.00     0.032 C
ENDBRANCH   7   8
ENDBRANCH   6   7
ENDBRANCH   4   6
BRANCH   1  13
HETATM   13  N1  UNL     1      10.565  36.545  31.137  1.00  0.00    -0.053 N
ATOM     14  H13 UNL     1      10.801  37.505  30.886  1.00  0.00     0.277 HD
ATOM     15  H12 UNL     1      11.399  36.087  30.769  1.00  0.00     0.277 HD
ATOM     16  H11 UNL     1       9.715  36.225  30.673  1.00  0.00     0.277 HD
ENDBRANCH   1  13
TORSDOF 4
ENDMDL