MODEL 1
REMARK VINA RESULT: -4.836054467      0.000      0.000
REMARK  4 active torsions:
REMARK  status: ('A' for Active; 'I' for Inactive)
REMARK    1  A    between atoms: C2_2  and  C4_4
REMARK    2  A    between atoms: C4_4  and  C5_5
REMARK    3  A    between atoms: C5_5  and  N1_6
REMARK    4  A    between atoms: C9_15  and  N3_16
ROOT
HETATM    1  C5  UNL     1      14.574  36.267  36.525  1.00  0.00     0.158 C
HETATM    2  C6  UNL     1      13.800  36.679  37.737  1.00  0.00     0.061 C
HETATM    3  C7  UNL     1      14.459  37.989  38.215  1.00  0.00     0.121 C
HETATM    4  N2  UNL     1      15.865  37.931  38.227  1.00  0.00    -0.400 N
ATOM      5  H2  UNL     1      16.420  38.775  38.364  1.00  0.00     0.158 HD
HETATM    6  C8  UNL     1      16.485  36.685  38.047  1.00  0.00     0.090 C
HETATM    7  C9  UNL     1      15.935  35.807  36.986  1.00  0.00     0.257 C
ENDROOT
BRANCH   1   8
HETATM    8  C4  UNL     1      13.912  35.348  35.587  1.00  0.00     0.045 C
BRANCH   8   9
HETATM    9  C2  UNL     1      12.458  35.463  35.369  1.00  0.00    -0.020 C
HETATM   10  C1  UNL     1      11.979  34.058  34.942  1.00  0.00     0.009 C
HETATM   11  C3  UNL     1      12.080  36.368  34.240  1.00  0.00     0.009 C
ENDBRANCH   8   9
ENDBRANCH   1   8
BRANCH   1  12
HETATM   12  N1  UNL     1      14.801  37.529  35.783  1.00  0.00    -0.068 N
ATOM     13  H13 UNL     1      15.417  38.180  36.270  1.00  0.00     0.275 HD
ATOM     14  H12 UNL     1      15.378  37.410  34.950  1.00  0.00     0.275 HD
ATOM     15  H11 UNL     1      13.878  37.916  35.585  1.00  0.00     0.275 HD
ENDBRANCH   1  12
BRANCH   7  16
HETATM   16  N3  UNL     1      16.800  35.661  35.831  1.00  0.00    -0.068 N
ATOM     17  H33 UNL     1      16.715  36.442  35.181  1.00  0.00     0.275 HD
ATOM     18  H32 UNL     1      17.785  35.778  36.066  1.00  0.00     0.275 HD
ATOM     19  H31 UNL     1      16.611  34.764  35.385  1.00  0.00     0.275 HD
ENDBRANCH   7  16
TORSDOF 4
ENDMDL