MODEL 3
REMARK VINA RESULT: -4.701638247      2.988      5.374
REMARK  3 active torsions:
REMARK  status: ('A' for Active; 'I' for Inactive)
REMARK    1  A    between atoms: C2_2  and  C4_4
REMARK    2  A    between atoms: C4_4  and  N1_5
REMARK    3  A    between atoms: C4_4  and  C5_9
ROOT
HETATM    1  C5  UNL     1      14.038  36.935  36.390  1.00  0.00     0.104 C
HETATM    2  C6  UNL     1      14.147  38.410  36.268  1.00  0.00     0.139 C
HETATM    3  N2  UNL     1      15.448  38.907  36.615  1.00  0.00    -0.370 N
ATOM      4  H2  UNL     1      15.846  39.749  36.198  1.00  0.00     0.161 HD
HETATM    5  C7  UNL     1      16.112  38.156  37.554  1.00  0.00     0.134 C
HETATM    6  N3  UNL     1      16.807  38.384  38.544  1.00  0.00    -0.380 N
ATOM      7  H31 UNL     1      17.300  37.826  39.241  1.00  0.00     0.158 HD
ATOM      8  H32 UNL     1      17.058  39.331  38.824  1.00  0.00     0.158 HD
HETATM    9  S1  UNL     1      15.661  36.453  37.049  1.00  0.00    -0.086 SA
ENDROOT
BRANCH   1  10
HETATM   10  C4  UNL     1      13.785  36.233  35.084  1.00  0.00     0.202 C
BRANCH  10  11
HETATM   11  C2  UNL     1      12.299  35.845  35.069  1.00  0.00     0.009 C
HETATM   12  C1  UNL     1      11.740  36.415  33.790  1.00  0.00     0.011 C
HETATM   13  C3  UNL     1      12.216  34.326  35.051  1.00  0.00     0.011 C
ENDBRANCH  10  11
BRANCH  10  14
HETATM   14  N1  UNL     1      13.974  37.110  33.974  1.00  0.00    -0.073 N
ATOM     15  H13 UNL     1      14.882  37.003  33.521  1.00  0.00     0.274 HD
ATOM     16  H12 UNL     1      13.403  36.871  33.164  1.00  0.00     0.274 HD
ATOM     17  H11 UNL     1      13.804  38.052  34.327  1.00  0.00     0.274 HD
ENDBRANCH  10  14
ENDBRANCH   1  10
TORSDOF 3
ENDMDL