MODEL 1
REMARK VINA RESULT: -6.128567489      0.000      0.000
REMARK  2 active torsions:
REMARK  status: ('A' for Active; 'I' for Inactive)
REMARK       I    between atoms: C1_4  and  N3_6
REMARK    1  A    between atoms: N3_6  and  N4_8
REMARK    2  A    between atoms: C2_10  and  C3_11
ROOT
HETATM    1  N4  UNL     1      12.255  36.941  33.166  1.00  0.00    -0.313 N
ATOM      2  H4  UNL     1      13.116  37.188  32.678  1.00  0.00     0.185 HD
HETATM    3  C2  UNL     1      12.373  36.562  34.360  1.00  0.00     0.084 C
ENDROOT
BRANCH   1   4
HETATM    4  N3  UNL     1      11.078  37.057  32.445  1.00  0.00    -0.275 N
HETATM    5  C1  UNL     1      10.216  35.925  32.400  1.00  0.00     0.200 C
HETATM    6  N1  UNL     1      10.340  35.038  31.474  1.00  0.00    -0.372 N
HETATM    7  N2  UNL     1       9.202  35.758  33.382  1.00  0.00    -0.062 NA
ATOM      8  H12 UNL     1       9.722  34.227  31.441  1.00  0.00     0.158 HD
ATOM      9  H11 UNL     1      11.068  35.157  30.769  1.00  0.00     0.158 HD
ATOM     10  H3  UNL     1      10.837  37.923  31.964  1.00  0.00     0.189 HD
ENDBRANCH   1   4
BRANCH   3  11
HETATM   11  C3  UNL     1      13.711  36.493  34.986  1.00  0.00     0.025 C
HETATM   12  C4  UNL     1      13.934  37.686  35.857  1.00  0.00     0.010 C
HETATM   13  C5  UNL     1      14.968  37.466  36.933  1.00  0.00     0.001 C
HETATM   14  C6  UNL     1      14.714  36.233  37.749  1.00  0.00     0.000 C
HETATM   15  C7  UNL     1      13.451  35.563  37.211  1.00  0.00     0.001 C
HETATM   16  C8  UNL     1      13.755  35.182  35.774  1.00  0.00     0.010 C
ENDBRANCH   3  11
TORSDOF 2
ENDMDL