MODEL 5
REMARK VINA RESULT: -5.472121791      0.381      1.198
REMARK  2 active torsions:
REMARK  status: ('A' for Active; 'I' for Inactive)
REMARK    1  A    between atoms: C4_4  and  N1_5
REMARK    2  A    between atoms: N1_5  and  C5_7
ROOT
HETATM    1  C5  UNL     1      13.649  36.859  35.857  1.00  0.00     0.094 C
HETATM    2  C6  UNL     1      14.749  35.827  35.658  1.00  0.00     0.028 C
HETATM    3  C7  UNL     1      15.731  35.814  36.784  1.00  0.00     0.021 C
HETATM    4  C8  UNL     1      16.304  37.171  37.052  1.00  0.00     0.114 C
HETATM    5  N2  UNL     1      15.508  38.269  36.656  1.00  0.00    -0.419 N
ATOM      6  H2  UNL     1      15.927  39.170  36.423  1.00  0.00     0.153 HD
HETATM    7  C9  UNL     1      14.095  38.067  36.593  1.00  0.00     0.138 C
ENDROOT
BRANCH   1   8
HETATM    8  N1  UNL     1      13.018  37.025  34.619  1.00  0.00    -0.411 N
ATOM      9  H1  UNL     1      13.098  37.924  34.142  1.00  0.00     0.154 HD
BRANCH   8  10
HETATM   10  C4  UNL     1      12.281  35.999  34.012  1.00  0.00     0.077 C
HETATM   11  C3  UNL     1      11.265  35.298  34.855  1.00  0.00     0.024 C
HETATM   12  C2  UNL     1      10.334  34.740  33.779  1.00  0.00     0.002 C
HETATM   13  C1  UNL     1      10.112  35.953  32.924  1.00  0.00     0.002 C
HETATM   14  C10 UNL     1      11.416  36.675  32.955  1.00  0.00     0.024 C
ENDBRANCH   8  10
ENDBRANCH   1   8
TORSDOF 2
ENDMDL