MODEL 3
REMARK VINA RESULT: -5.635103181      1.590      4.366
REMARK  3 active torsions:
REMARK  status: ('A' for Active; 'I' for Inactive)
REMARK    1  A    between atoms: C2_2  and  C4_4
REMARK    2  A    between atoms: C4_4  and  O1_5
REMARK    3  A    between atoms: C4_4  and  C5_7
ROOT
HETATM    1  C5  UNL     1      11.923  36.079  34.502  1.00  0.00     0.214 C
HETATM    2  C6  UNL     1      11.544  36.444  33.084  1.00  0.00     0.036 C
HETATM    3  C7  UNL     1      10.388  35.499  32.698  1.00  0.00     0.004 C
HETATM    4  C8  UNL     1       9.509  35.291  33.938  1.00  0.00     0.027 C
HETATM    5  C9  UNL     1      10.305  34.464  34.956  1.00  0.00     0.233 C
HETATM    6  N1  UNL     1      11.701  34.623  34.575  1.00  0.00    -0.068 N
ATOM      7  H11 UNL     1      12.353  34.139  35.193  1.00  0.00     0.277 HD
ATOM      8  H12 UNL     1      11.953  34.126  33.721  1.00  0.00     0.277 HD
ENDROOT
BRANCH   1   9
HETATM    9  C4  UNL     1      13.315  36.423  34.891  1.00  0.00     0.152 C
BRANCH   9  10
HETATM   10  C2  UNL     1      13.932  35.501  35.896  1.00  0.00     0.008 C
HETATM   11  C1  UNL     1      15.447  35.441  35.673  1.00  0.00     0.012 C
HETATM   12  C3  UNL     1      13.629  35.825  37.322  1.00  0.00     0.012 C
ENDBRANCH   9  10
BRANCH   9  13
HETATM   13  O1  UNL     1      13.396  37.755  35.257  1.00  0.00    -0.393 OA
ATOM     14  H1  UNL     1      12.570  38.217  35.166  1.00  0.00     0.210 HD
ENDBRANCH   9  13
ENDBRANCH   1   9
TORSDOF 3
ENDMDL