MODEL 3
REMARK VINA RESULT: -4.565083223      2.581      3.883
REMARK  2 active torsions:
REMARK  status: ('A' for Active; 'I' for Inactive)
REMARK    1  A    between atoms: C2_2  and  N1_3
REMARK    2  A    between atoms: N1_3  and  C3_5
ROOT
HETATM    1  C3  UNL     1      14.086  37.176  35.401  1.00  0.00     0.103 C
HETATM    2  C4  UNL     1      14.289  35.960  36.264  1.00  0.00     0.054 C
HETATM    3  C5  UNL     1      15.605  36.021  37.020  1.00  0.00     0.237 C
HETATM    4  N2  UNL     1      16.284  37.266  36.849  1.00  0.00    -0.041 N
ATOM      5  H21 UNL     1      16.366  37.491  35.857  1.00  0.00     0.280 HD
ATOM      6  H22 UNL     1      17.270  37.169  37.089  1.00  0.00     0.280 HD
HETATM    7  C6  UNL     1      15.703  38.366  37.563  1.00  0.00     0.279 C
HETATM    8  C7  UNL     1      16.269  39.641  36.985  1.00  0.00     0.078 C
HETATM    9  C8  UNL     1      16.112  38.313  39.024  1.00  0.00     0.078 C
HETATM   10  N3  UNL     1      14.258  38.355  37.557  1.00  0.00    -0.039 N
ATOM     11  H31 UNL     1      13.893  39.116  38.130  1.00  0.00     0.280 HD
ATOM     12  H32 UNL     1      13.905  37.556  38.085  1.00  0.00     0.280 HD
HETATM   13  C9  UNL     1      13.676  38.389  36.253  1.00  0.00     0.260 C
ENDROOT
BRANCH   1  14
HETATM   14  N1  UNL     1      12.997  36.940  34.510  1.00  0.00    -0.416 N
ATOM     15  H1  UNL     1      12.788  37.579  33.744  1.00  0.00     0.153 HD
BRANCH  14  16
HETATM   16  C2  UNL     1      12.216  35.773  34.736  1.00  0.00     0.110 C
HETATM   17  C1  UNL     1      11.090  35.795  33.689  1.00  0.00     0.026 C
ENDBRANCH  14  16
ENDBRANCH   1  14
TORSDOF 2
ENDMDL