MODEL 4
REMARK VINA RESULT: -5.589873656      1.522      1.952
REMARK  3 active torsions:
REMARK  status: ('A' for Active; 'I' for Inactive)
REMARK    1  A    between atoms: C2_2  and  C4_4
REMARK    2  A    between atoms: C5_8  and  N3_9
REMARK    3  A    between atoms: N3_9  and  C6_11
ROOT
HETATM    1  C4  UNL     1      10.880  36.047  33.992  1.00  0.00     0.202 C
HETATM    2  N1  UNL     1      11.332  34.732  34.390  1.00  0.00    -0.113 NA
HETATM    3  N2  UNL     1      12.571  34.901  35.005  1.00  0.00    -0.273 N
ATOM      4  H2  UNL     1      13.035  34.174  35.550  1.00  0.00     0.185 HD
HETATM    5  C5  UNL     1      13.065  36.073  34.812  1.00  0.00     0.188 C
HETATM    6  N4  UNL     1      12.130  36.782  34.013  1.00  0.00    -0.341 N
ATOM      7  H4  UNL     1      12.308  37.664  33.533  1.00  0.00     0.164 HD
ENDROOT
BRANCH   5   8
HETATM    8  N3  UNL     1      14.328  36.572  35.309  1.00  0.00    -0.357 N
ATOM      9  H3  UNL     1      14.725  37.441  34.951  1.00  0.00     0.163 HD
BRANCH   8  10
HETATM   10  C6  UNL     1      15.007  35.815  36.316  1.00  0.00     0.084 A
HETATM   11  C7  UNL     1      16.102  36.388  37.128  1.00  0.00     0.027 A
HETATM   12  C8  UNL     1      16.450  35.474  35.959  1.00  0.00     0.027 A
ENDBRANCH   8  10
ENDBRANCH   5   8
BRANCH   1  13
HETATM   13  C2  UNL     1      10.241  36.016  32.635  1.00  0.00     0.018 C
HETATM   14  C1  UNL     1      10.268  34.590  32.130  1.00  0.00     0.013 C
HETATM   15  C3  UNL     1      10.940  36.960  31.704  1.00  0.00     0.013 C
ENDBRANCH   1  13
TORSDOF 3
ENDMDL