MODEL 5
REMARK VINA RESULT: -4.424025005      3.788      4.988
REMARK  3 active torsions:
REMARK  status: ('A' for Active; 'I' for Inactive)
REMARK    1  A    between atoms: C2_2  and  O1_3
REMARK    2  A    between atoms: C2_2  and  N1_6
REMARK    3  A    between atoms: N1_6  and  C3_8
ROOT
HETATM    1  N1  UNL     1      15.427  38.776  36.249  1.00  0.00    -0.379 N
ATOM      2  H1  UNL     1      15.541  38.860  35.239  1.00  0.00     0.157 HD
ENDROOT
BRANCH   1   3
HETATM    3  C2  UNL     1      15.902  39.815  37.052  1.00  0.00     0.185 C
HETATM    4  C1  UNL     1      17.436  39.743  37.116  1.00  0.00     0.084 C
HETATM    5  S1  UNL     1      15.316  39.895  38.756  1.00  0.00    -0.033 SA
BRANCH   3   6
HETATM    6  O1  UNL     1      15.565  41.070  36.457  1.00  0.00    -0.362 OA
ATOM      7  H1  UNL     1      15.529  40.932  35.518  1.00  0.00     0.213 HD
ENDBRANCH   3   6
ENDBRANCH   1   3
BRANCH   1   8
HETATM    8  C3  UNL     1      14.807  37.628  36.747  1.00  0.00     0.080 C
HETATM    9  C4  UNL     1      13.754  37.099  35.815  1.00  0.00     0.025 C
HETATM   10  C5  UNL     1      14.111  35.643  35.538  1.00  0.00     0.002 C
HETATM   11  C6  UNL     1      15.572  35.510  35.880  1.00  0.00     0.002 C
HETATM   12  C7  UNL     1      15.765  36.478  37.003  1.00  0.00     0.025 C
ENDBRANCH   1   8
TORSDOF 3
ENDMDL