MODEL 2
REMARK VINA RESULT: -5.351916834      0.886      1.786
REMARK  2 active torsions:
REMARK  status: ('A' for Active; 'I' for Inactive)
REMARK    1  A    between atoms: C4_4  and  N1_5
REMARK    2  A    between atoms: N1_5  and  C5_7
ROOT
HETATM    1  C1  UNL     1      10.376  35.103  32.540  1.00  0.00     0.000 C
HETATM    2  C2  UNL     1      10.617  36.602  32.391  1.00  0.00     0.002 C
HETATM    3  C3  UNL     1      12.134  36.731  32.653  1.00  0.00     0.025 C
HETATM    4  C4  UNL     1      12.385  36.509  34.076  1.00  0.00     0.079 C
HETATM    5  C7  UNL     1      11.571  35.441  34.745  1.00  0.00     0.025 C
HETATM    6  C8  UNL     1      10.460  34.833  34.013  1.00  0.00     0.002 C
ENDROOT
BRANCH   4   7
HETATM    7  N1  UNL     1      12.470  37.709  34.833  1.00  0.00    -0.391 N
ATOM      8  H1  UNL     1      11.879  38.499  34.575  1.00  0.00     0.156 HD
BRANCH   7   9
HETATM    9  C5  UNL     1      13.338  37.840  35.917  1.00  0.00     0.240 A
HETATM   10  C6  UNL     1      14.404  38.745  36.210  1.00  0.00     0.223 A
HETATM   11  O1  UNL     1      13.170  38.869  36.875  1.00  0.00    -0.361 OA
ENDBRANCH   7   9
ENDBRANCH   4   7
TORSDOF 2
ENDMDL