MODEL 3
REMARK VINA RESULT: -4.313194333      2.032      3.355
REMARK  2 active torsions:
REMARK  status: ('A' for Active; 'I' for Inactive)
REMARK    1  A    between atoms: C2_2  and  C4_4
REMARK    2  A    between atoms: C4_4  and  C6_6
ROOT
HETATM    1  C6  UNL     1      16.590  40.690  37.595  1.00  0.00     0.216 C
HETATM    2  C7  UNL     1      17.443  39.903  36.665  1.00  0.00     0.203 C
HETATM    3  O1  UNL     1      18.755  40.154  37.054  1.00  0.00    -0.362 OA
HETATM    4  C8  UNL     1      18.760  40.426  38.399  1.00  0.00     0.399 C
HETATM    5  N1  UNL     1      17.422  40.712  38.811  1.00  0.00    -0.048 N
ATOM      6  H11 UNL     1      17.083  40.086  39.541  1.00  0.00     0.280 HD
ATOM      7  H12 UNL     1      17.341  41.580  39.339  1.00  0.00     0.280 HD
ENDROOT
BRANCH   1   8
HETATM    8  C4  UNL     1      15.252  40.132  37.905  1.00  0.00     0.018 C
HETATM    9  C5  UNL     1      14.695  40.606  39.227  1.00  0.00     0.012 C
BRANCH   8  10
HETATM   10  C2  UNL     1      15.108  38.660  37.746  1.00  0.00    -0.017 C
HETATM   11  C1  UNL     1      13.711  38.301  37.219  1.00  0.00     0.010 C
HETATM   12  C3  UNL     1      15.330  37.841  38.964  1.00  0.00     0.010 C
ENDBRANCH   8  10
ENDBRANCH   1   8
TORSDOF 2
ENDMDL