MODEL 1
REMARK VINA RESULT: -5.389342642      0.000      0.000
REMARK  1 active torsions:
REMARK  status: ('A' for Active; 'I' for Inactive)
REMARK    1  A    between atoms: N1_3  and  C3_5
ROOT
HETATM    1  C3  UNL     1      14.646  39.322  36.324  1.00  0.00     0.288 C
HETATM    2  N2  UNL     1      16.029  39.760  36.117  1.00  0.00    -0.050 N
ATOM      3  H21 UNL     1      16.115  40.650  35.625  1.00  0.00     0.280 HD
ATOM      4  H22 UNL     1      16.545  39.204  35.435  1.00  0.00     0.280 HD
HETATM    5  C4  UNL     1      16.614  39.759  37.450  1.00  0.00     0.189 C
HETATM    6  C5  UNL     1      15.903  40.738  38.341  1.00  0.00     0.033 C
HETATM    7  C6  UNL     1      14.517  40.126  38.599  1.00  0.00     0.010 C
HETATM    8  C7  UNL     1      14.559  38.873  37.758  1.00  0.00     0.038 C
HETATM    9  C8  UNL     1      16.018  38.443  37.986  1.00  0.00     0.041 C
ENDROOT
BRANCH   1  10
HETATM   10  N1  UNL     1      14.227  38.360  35.387  1.00  0.00    -0.376 N
HETATM   11  C2  UNL     1      13.270  37.564  35.632  1.00  0.00     0.053 C
HETATM   12  C1  UNL     1      12.781  36.530  34.690  1.00  0.00     0.054 C
ATOM     13  H1  UNL     1      14.705  38.301  34.488  1.00  0.00     0.160 HD
ENDBRANCH   1  10
TORSDOF 1
ENDMDL