MODEL 1
REMARK VINA RESULT: -5.441170862      0.000      0.000
REMARK  2 active torsions:
REMARK  status: ('A' for Active; 'I' for Inactive)
REMARK    1  A    between atoms: N1_4  and  N2_5
REMARK    2  A    between atoms: N2_5  and  C4_7
ROOT
HETATM    1  C1  UNL     1       9.851  35.430  33.289  1.00  0.00     0.002 C
HETATM    2  C2  UNL     1      10.855  34.765  34.184  1.00  0.00     0.016 C
HETATM    3  C3  UNL     1      11.986  35.654  34.589  1.00  0.00     0.113 C
HETATM    4  N1  UNL     1      11.713  36.987  34.133  1.00  0.00    -0.235 NA
HETATM    5  C7  UNL     1      11.667  37.069  32.714  1.00  0.00     0.113 C
HETATM    6  C8  UNL     1      10.446  36.301  32.238  1.00  0.00     0.016 C
ENDROOT
BRANCH   4   7
HETATM    7  N2  UNL     1      12.384  37.978  34.781  1.00  0.00    -0.350 N
ATOM      8  H2  UNL     1      12.161  38.964  34.642  1.00  0.00     0.174 HD
BRANCH   7   9
HETATM    9  C4  UNL     1      13.421  37.552  35.668  1.00  0.00     0.094 A
HETATM   10  C5  UNL     1      14.392  38.666  36.061  1.00  0.00     0.028 A
HETATM   11  C6  UNL     1      13.447  38.044  37.068  1.00  0.00     0.028 A
ENDBRANCH   7   9
ENDBRANCH   4   7
TORSDOF 2
ENDMDL