MODEL 3
REMARK VINA RESULT: -4.272235882      1.976      3.524
REMARK  1 active torsions:
REMARK  status: ('A' for Active; 'I' for Inactive)
REMARK    1  A    between atoms: N1_2  and  C2_4
ROOT
HETATM    1  C2  UNL     1      17.877  39.406  37.192  1.00  0.00     0.111 C
HETATM    2  C3  UNL     1      18.759  40.019  38.220  1.00  0.00     0.057 C
HETATM    3  C4  UNL     1      18.177  39.494  39.521  1.00  0.00     0.275 C
HETATM    4  N2  UNL     1      16.800  39.106  39.200  1.00  0.00     0.095 N
HETATM    5  C5  UNL     1      16.025  40.322  39.086  1.00  0.00     0.273 C
HETATM    6  C6  UNL     1      14.682  40.103  38.494  1.00  0.00     0.030 C
HETATM    7  C7  UNL     1      14.519  38.884  37.677  1.00  0.00     0.004 C
HETATM    8  C8  UNL     1      15.738  38.255  37.143  1.00  0.00     0.038 C
HETATM    9  C9  UNL     1      16.983  38.445  37.937  1.00  0.00     0.245 C
ENDROOT
BRANCH   1  10
HETATM   10  N1  UNL     1      18.508  38.846  36.074  1.00  0.00    -0.419 N
HETATM   11  C1  UNL     1      19.347  37.745  36.218  1.00  0.00     0.140 C
ATOM     12  H1  UNL     1      18.352  39.247  35.149  1.00  0.00     0.153 HD
ENDBRANCH   1  10
TORSDOF 1
ENDMDL