MODEL 2
REMARK VINA RESULT: -6.052130388      0.782      1.778
REMARK  2 active torsions:
REMARK  status: ('A' for Active; 'I' for Inactive)
REMARK    1  A    between atoms: N1_3  and  N2_5
REMARK    2  A    between atoms: N2_5  and  C3_7
ROOT
HETATM    1  C3  UNL     1      12.007  36.317  33.635  1.00  0.00     0.099 C
HETATM    2  C4  UNL     1      11.485  35.181  34.411  1.00  0.00     0.026 C
HETATM    3  C5  UNL     1      10.048  34.875  34.312  1.00  0.00     0.002 C
HETATM    4  C6  UNL     1       9.321  35.484  33.163  1.00  0.00     0.000 C
HETATM    5  C7  UNL     1      10.298  35.622  32.001  1.00  0.00     0.002 C
HETATM    6  C8  UNL     1      11.243  36.729  32.434  1.00  0.00     0.026 C
ENDROOT
BRANCH   1   7
HETATM    7  N2  UNL     1      12.210  37.513  34.468  1.00  0.00    -0.332 N
ATOM      8  H2  UNL     1      11.506  38.250  34.517  1.00  0.00     0.180 HD
BRANCH   7   9
HETATM    9  N1  UNL     1      13.403  37.601  35.189  1.00  0.00    -0.320 N
HETATM   10  C2  UNL     1      13.477  38.288  36.272  1.00  0.00     0.075 C
HETATM   11  C1  UNL     1      14.717  38.416  37.075  1.00  0.00     0.056 C
ATOM     12  H1  UNL     1      14.230  37.111  34.849  1.00  0.00     0.185 HD
ENDBRANCH   7   9
ENDBRANCH   1   7
TORSDOF 2
ENDMDL