MODEL 3
REMARK VINA RESULT: -5.191906866      1.151      4.978
REMARK  2 active torsions:
REMARK  status: ('A' for Active; 'I' for Inactive)
REMARK    1  A    between atoms: C2_2  and  C4_4
REMARK    2  A    between atoms: N1_5  and  C5_7
ROOT
HETATM    1  C5  UNL     1      12.009  36.927  34.272  1.00  0.00     0.283 C
HETATM    2  C6  UNL     1      11.528  35.514  34.530  1.00  0.00     0.056 C
HETATM    3  C7  UNL     1      11.004  35.045  33.184  1.00  0.00     0.031 C
HETATM    4  C8  UNL     1      10.910  36.335  32.407  1.00  0.00     0.235 C
HETATM    5  N2  UNL     1      12.143  37.015  32.834  1.00  0.00    -0.054 N
ATOM      6  H21 UNL     1      13.009  36.640  32.448  1.00  0.00     0.279 HD
ATOM      7  H22 UNL     1      12.281  37.954  32.461  1.00  0.00     0.279 HD
ENDROOT
BRANCH   1   8
HETATM    8  N1  UNL     1      13.157  37.286  34.990  1.00  0.00    -0.375 N
HETATM    9  C4  UNL     1      13.245  38.033  35.999  1.00  0.00     0.061 C
ATOM     10  H1  UNL     1      14.034  36.891  34.650  1.00  0.00     0.160 HD
BRANCH   9  11
HETATM   11  C2  UNL     1      14.609  38.253  36.581  1.00  0.00     0.015 C
HETATM   12  C1  UNL     1      14.516  38.004  38.064  1.00  0.00     0.015 C
HETATM   13  C3  UNL     1      15.131  39.627  36.256  1.00  0.00     0.015 C
ENDBRANCH   9  11
ENDBRANCH   1   8
TORSDOF 2
ENDMDL