MODEL 3
REMARK VINA RESULT: -4.256057149      2.560      4.474
REMARK  2 active torsions:
REMARK  status: ('A' for Active; 'I' for Inactive)
REMARK    1  A    between atoms: N1_2  and  C2_4
REMARK    2  A    between atoms: C5_7  and  O1_8
ROOT
HETATM    1  C2  UNL     1      10.784  35.289  32.595  1.00  0.00     0.076 C
HETATM    2  C3  UNL     1      11.036  36.756  32.308  1.00  0.00     0.027 C
HETATM    3  C4  UNL     1      12.485  37.019  32.762  1.00  0.00     0.034 C
HETATM    4  C5  UNL     1      12.365  37.050  34.295  1.00  0.00     0.120 C
HETATM    5  C7  UNL     1      12.093  35.645  34.729  1.00  0.00     0.034 C
HETATM    6  C8  UNL     1      10.979  34.948  34.042  1.00  0.00     0.027 C
ENDROOT
BRANCH   1   7
HETATM    7  N1  UNL     1       9.497  34.954  32.094  1.00  0.00    -0.421 N
HETATM    8  C1  UNL     1       8.595  34.369  33.026  1.00  0.00     0.140 C
ATOM      9  H1  UNL     1       9.235  35.123  31.122  1.00  0.00     0.153 HD
ENDBRANCH   1   7
BRANCH   4  10
HETATM   10  O1  UNL     1      13.537  37.476  34.876  1.00  0.00    -0.391 OA
HETATM   11  C6  UNL     1      13.339  38.230  36.037  1.00  0.00     0.202 C
ENDBRANCH   4  10
TORSDOF 2
ENDMDL