MODEL 1
REMARK VINA RESULT: -5.457007428      0.000      0.000
REMARK  2 active torsions:
REMARK  status: ('A' for Active; 'I' for Inactive)
REMARK    1  A    between atoms: C1_1  and  C6_11
REMARK    2  A    between atoms: N1_2  and  C2_4
ROOT
HETATM    1  C2  UNL     1      12.084  36.448  33.651  1.00  0.00     0.107 C
HETATM    2  C3  UNL     1      11.209  35.402  34.356  1.00  0.00     0.054 C
HETATM    3  C4  UNL     1      10.560  34.749  33.133  1.00  0.00     0.234 C
HETATM    4  N2  UNL     1      10.147  35.928  32.376  1.00  0.00    -0.073 N
ATOM      5  H21 UNL     1       9.212  36.255  32.619  1.00  0.00     0.277 HD
ATOM      6  H22 UNL     1       9.962  35.730  31.393  1.00  0.00     0.277 HD
HETATM    7  C5  UNL     1      11.167  36.925  32.573  1.00  0.00     0.257 C
ENDROOT
BRANCH   1   8
HETATM    8  N1  UNL     1      12.460  37.425  34.593  1.00  0.00    -0.396 N
HETATM    9  C1  UNL     1      13.417  37.354  35.417  1.00  0.00     0.060 C
ATOM     10  H1  UNL     1      11.904  38.279  34.613  1.00  0.00     0.159 HD
BRANCH   9  11
HETATM   11  C6  UNL     1      13.611  38.543  36.324  1.00  0.00     0.024 A
HETATM   12  C7  UNL     1      14.053  38.169  37.706  1.00  0.00     0.010 A
HETATM   13  C8  UNL     1      14.958  38.921  36.762  1.00  0.00     0.010 A
ENDBRANCH   9  11
ENDBRANCH   1   8
TORSDOF 2
ENDMDL