MODEL 5
REMARK VINA RESULT: -4.584416408      3.058      4.372
REMARK  2 active torsions:
REMARK  status: ('A' for Active; 'I' for Inactive)
REMARK    1  A    between atoms: O1_2  and  N1_3
REMARK    2  A    between atoms: N1_3  and  C2_5
ROOT
HETATM    1  C2  UNL     1      14.808  38.353  36.472  1.00  0.00     0.110 C
HETATM    2  C3  UNL     1      14.157  38.051  37.822  1.00  0.00     0.032 C
HETATM    3  C4  UNL     1      15.063  38.921  38.705  1.00  0.00    -0.012 C
HETATM    4  C5  UNL     1      16.499  38.594  38.485  1.00  0.00     0.005 C
HETATM    5  C6  UNL     1      16.928  39.298  37.194  1.00  0.00     0.007 C
HETATM    6  C7  UNL     1      15.555  39.626  36.611  1.00  0.00     0.010 C
HETATM    7  C8  UNL     1      14.923  40.217  37.884  1.00  0.00     0.011 C
ENDROOT
BRANCH   1   8
HETATM    8  N1  UNL     1      13.888  38.301  35.387  1.00  0.00    -0.298 N
ATOM      9  H1  UNL     1      13.223  39.051  35.201  1.00  0.00     0.188 HD
BRANCH   8  10
HETATM   10  O1  UNL     1      13.955  37.210  34.634  1.00  0.00    -0.290 OA
HETATM   11  C1  UNL     1      12.704  36.575  34.706  1.00  0.00     0.237 C
ENDBRANCH   8  10
ENDBRANCH   1   8
TORSDOF 2
ENDMDL