MODEL 1
REMARK VINA RESULT: -8.006234775      0.000      0.000
REMARK  14 active torsions:
REMARK  status: ('A' for Active; 'I' for Inactive)
REMARK    1  A    between atoms: C2_2  and  C3_3
REMARK    2  A    between atoms: C4_4  and  C5_5
REMARK    3  A    between atoms: C5_5  and  C6_6
REMARK    4  A    between atoms: C6_6  and  N1_7
REMARK    5  A    between atoms: C6_6  and  C21_29
REMARK    6  A    between atoms: N1_7  and  C7_9
REMARK    7  A    between atoms: C7_9  and  C8_10
REMARK    8  A    between atoms: C7_9  and  C15_17
REMARK    9  A    between atoms: C8_10  and  C9_11
REMARK   10  A    between atoms: C15_17  and  O1_18
REMARK   11  A    between atoms: C15_17  and  C16_20
REMARK       I    between atoms: C16_20  and  N2_22
REMARK   12  A    between atoms: N2_22  and  C17_23
REMARK   13  A    between atoms: C29_40  and  C30_41
REMARK   14  A    between atoms: C30_41  and  N5_42
ROOT
HETATM    1  C6  UNL     1      12.166  23.877   6.158  1.00  0.00     0.135 C
ENDROOT
BRANCH   1   2
HETATM    2  C5  UNL     1      11.751  23.655   7.601  1.00  0.00     0.124 C
BRANCH   2   3
HETATM    3  C4  UNL     1      11.469  24.996   8.181  1.00  0.00    -0.104 C
HETATM    4  C3  UNL     1      11.205  26.054   8.693  1.00  0.00    -0.107 C
BRANCH   4   5
HETATM    5  C2  UNL     1      10.875  27.316   9.335  1.00  0.00     0.089 C
HETATM    6  C1  UNL     1       9.414  27.395   9.744  1.00  0.00     0.018 C
ENDBRANCH   4   5
ENDBRANCH   2   3
ENDBRANCH   1   2
BRANCH   1   7
HETATM    7  N1  UNL     1      11.016  23.864   5.370  1.00  0.00    -0.401 N
ATOM      8  H1  UNL     1      10.345  23.096   5.391  1.00  0.00     0.154 HD
BRANCH   7   9
HETATM    9  C7  UNL     1      10.835  25.097   4.466  1.00  0.00     0.141 C
BRANCH   9  10
HETATM   10  C8  UNL     1      10.157  26.074   5.287  1.00  0.00     0.036 C
BRANCH  10  11
HETATM   11  C9  UNL     1       8.785  26.043   5.766  1.00  0.00    -0.012 C
HETATM   12  C10 UNL     1       8.184  25.181   6.737  1.00  0.00     0.005 C
HETATM   13  C11 UNL     1       7.280  25.884   7.752  1.00  0.00     0.000 C
HETATM   14  C12 UNL     1       6.272  26.735   7.057  1.00  0.00     0.000 C
HETATM   15  C13 UNL     1       6.901  27.622   5.976  1.00  0.00     0.000 C
HETATM   16  C14 UNL     1       8.370  27.542   6.151  1.00  0.00     0.005 C
ENDBRANCH  10  11
ENDBRANCH   9  10
BRANCH   9  17
HETATM   17  C15 UNL     1      10.275  24.392   3.340  1.00  0.00     0.148 C
BRANCH  17  18
HETATM   18  O1  UNL     1      11.337  24.075   2.468  1.00  0.00    -0.357 OA
ATOM     19  H1  UNL     1      11.627  24.885   2.065  1.00  0.00     0.217 HD
ENDBRANCH  17  18
BRANCH  17  20
HETATM   20  C16 UNL     1       9.077  23.851   2.731  1.00  0.00     0.344 C
HETATM   21  O2  UNL     1       8.911  22.634   2.501  1.00  0.00    -0.249 OA
HETATM   22  N2  UNL     1       8.079  24.814   2.392  1.00  0.00    -0.370 NA
BRANCH  22  23
HETATM   23  C17 UNL     1       7.142  25.715   2.074  1.00  0.00     0.437 A
HETATM   24  C18 UNL     1       5.836  26.016   2.807  1.00  0.00     0.303 A
HETATM   25  C19 UNL     1       5.370  25.061   3.777  1.00  0.00     0.116 C
HETATM   26  N3  UNL     1       5.868  25.606   1.479  1.00  0.00     0.145 N
HETATM   27  S1  UNL     1       4.318  23.946   2.729  1.00  0.00    -0.137 SA
HETATM   28  C20 UNL     1       5.052  24.547   1.153  1.00  0.00     0.351 C
ENDBRANCH  22  23
ENDBRANCH  17  20
ENDBRANCH   9  17
ENDBRANCH   7   9
ENDBRANCH   1   7
BRANCH   1  29
HETATM   29  C21 UNL     1      13.133  22.770   5.729  1.00  0.00     0.022 C
HETATM   30  N4  UNL     1      13.211  22.540   4.425  1.00  0.00    -0.331 N
HETATM   31  C22 UNL     1      14.034  21.543   3.889  1.00  0.00     0.230 C
ATOM     32  H4  UNL     1      12.652  23.109   3.790  1.00  0.00     0.168 HD
HETATM   33  O3  UNL     1      14.415  21.533   2.684  1.00  0.00    -0.272 OA
HETATM   34  C23 UNL     1      14.509  20.444   4.710  1.00  0.00     0.042 C
HETATM   35  C24 UNL     1      13.885  19.143   4.221  1.00  0.00     0.019 C
HETATM   36  C27 UNL     1      15.987  20.280   4.416  1.00  0.00     0.019 C
HETATM   37  C28 UNL     1      14.216  20.574   6.164  1.00  0.00     0.035 C
HETATM   38  C25 UNL     1      14.998  18.247   3.782  1.00  0.00     0.001 C
HETATM   39  C26 UNL     1      16.070  19.204   3.332  1.00  0.00     0.001 C
HETATM   40  C29 UNL     1      13.852  21.945   6.629  1.00  0.00     0.073 C
BRANCH  40  41
HETATM   41  C30 UNL     1      15.097  22.547   7.290  1.00  0.00     0.067 C
BRANCH  41  42
HETATM   42  N5  UNL     1      15.551  21.989   8.465  1.00  0.00    -0.401 N
HETATM   43  C31 UNL     1      14.788  21.217   9.325  1.00  0.00     0.148 C
HETATM   44  C32 UNL     1      16.900  21.451   8.350  1.00  0.00     0.148 C
ENDBRANCH  41  42
ENDBRANCH  40  41
ENDBRANCH   1  29
TORSDOF 14
ENDMDL