MODEL 2
REMARK VINA RESULT: -8.262967805      2.789      4.569
REMARK  12 active torsions:
REMARK  status: ('A' for Active; 'I' for Inactive)
REMARK    1  A    between atoms: C2_2  and  C3_3
REMARK    2  A    between atoms: C3_3  and  N1_4
REMARK    3  A    between atoms: C3_3  and  C25_37
REMARK    4  A    between atoms: N1_4  and  C4_7
REMARK    5  A    between atoms: C4_7  and  C6_9
REMARK       I    between atoms: N2_14  and  C11_15
REMARK    6  A    between atoms: C11_15  and  C12_17
REMARK    7  A    between atoms: C12_17  and  N3_18
REMARK    8  A    between atoms: C12_17  and  C21_33
REMARK       I    between atoms: N3_18  and  C13_20
REMARK    9  A    between atoms: C13_20  and  O3_22
REMARK   10  A    between atoms: O3_22  and  C14_23
REMARK   11  A    between atoms: C17_26  and  C18_27
REMARK   12  A    between atoms: C18_27  and  S1_28
REMARK       I    between atoms: C25_37  and  N4_39
ROOT
HETATM    1  C6  UNL     1      10.877  23.044   5.158  1.00  0.00     0.117 C
HETATM    2  C7  UNL     1      10.058  22.886   3.924  1.00  0.00     0.027 C
HETATM    3  C8  UNL     1      10.609  23.626   2.722  1.00  0.00     0.004 C
HETATM    4  C9  UNL     1      11.164  24.977   3.108  1.00  0.00     0.020 C
HETATM    5  C10 UNL     1      12.157  24.907   4.214  1.00  0.00     0.126 C
HETATM    6  N2  UNL     1      12.187  23.549   4.795  1.00  0.00    -0.344 N
HETATM    7  C11 UNL     1      13.415  22.910   4.949  1.00  0.00     0.243 C
HETATM    8  O1  UNL     1      14.453  23.577   4.572  1.00  0.00    -0.271 OA
ENDROOT
BRANCH   7   9
HETATM    9  C12 UNL     1      13.706  21.575   5.490  1.00  0.00     0.186 C
BRANCH   9  10
HETATM   10  N3  UNL     1      14.637  21.789   6.601  1.00  0.00    -0.323 N
HETATM   11  C13 UNL     1      14.226  21.873   7.958  1.00  0.00     0.361 C
HETATM   12  O2  UNL     1      13.008  21.759   8.291  1.00  0.00    -0.238 OA
ATOM     13  H3  UNL     1      15.630  21.883   6.389  1.00  0.00     0.165 HD
BRANCH  11  14
HETATM   14  O3  UNL     1      15.107  22.081   8.999  1.00  0.00    -0.299 OA
BRANCH  14  15
HETATM   15  C14 UNL     1      16.035  21.115   9.345  1.00  0.00     0.134 C
HETATM   16  C15 UNL     1      17.253  21.076   8.448  1.00  0.00     0.033 C
HETATM   17  C16 UNL     1      17.900  19.783   8.975  1.00  0.00     0.008 C
HETATM   18  C17 UNL     1      16.792  18.889   9.363  1.00  0.00     0.002 C
HETATM   19  C20 UNL     1      15.534  19.710   9.267  1.00  0.00     0.038 C
BRANCH  18  20
HETATM   20  C18 UNL     1      16.857  18.315  10.750  1.00  0.00     0.144 C
BRANCH  20  21
HETATM   21  S1  UNL     1      16.682  16.568  10.810  1.00  0.00     0.141 S
HETATM   22  C19 UNL     1      17.484  15.901   9.350  1.00  0.00     0.161 C
HETATM   23  O4  UNL     1      17.403  15.974  11.990  1.00  0.00    -0.228 OA
HETATM   24  O5  UNL     1      15.259  16.099  10.742  1.00  0.00    -0.228 OA
ENDBRANCH  20  21
ENDBRANCH  18  20
ENDBRANCH  14  15
ENDBRANCH  11  14
ENDBRANCH   9  10
BRANCH   9  25
HETATM   25  C21 UNL     1      14.405  20.726   4.436  1.00  0.00    -0.022 C
HETATM   26  C22 UNL     1      13.943  19.305   4.520  1.00  0.00     0.017 C
HETATM   27  C23 UNL     1      14.135  21.203   3.031  1.00  0.00     0.017 C
HETATM   28  C24 UNL     1      15.914  20.715   4.722  1.00  0.00     0.017 C
ENDBRANCH   9  25
ENDBRANCH   7   9
BRANCH   1  29
HETATM   29  C4  UNL     1      10.225  23.890   6.220  1.00  0.00     0.205 C
HETATM   30  C5  UNL     1      10.058  23.116   7.482  1.00  0.00     0.042 C
BRANCH  29  31
HETATM   31  N1  UNL     1       8.969  24.400   5.710  1.00  0.00    -0.057 N
ATOM     32  H12 UNL     1       8.177  23.832   6.008  1.00  0.00     0.278 HD
ATOM     33  H11 UNL     1       8.882  24.262   4.703  1.00  0.00     0.278 HD
BRANCH  31  34
HETATM   34  C3  UNL     1       8.808  25.814   6.087  1.00  0.00     0.277 C
BRANCH  34  35
HETATM   35  C2  UNL     1       7.703  25.759   7.163  1.00  0.00     0.038 C
HETATM   36  C1  UNL     1       8.237  26.257   8.489  1.00  0.00     0.007 C
ENDBRANCH  34  35
BRANCH  34  37
HETATM   37  C25 UNL     1       8.263  26.543   4.922  1.00  0.00     0.250 C
HETATM   38  O6  UNL     1       8.505  27.797   4.814  1.00  0.00    -0.271 OA
HETATM   39  N4  UNL     1       7.481  25.975   3.897  1.00  0.00    -0.350 N
HETATM   40  C26 UNL     1       7.012  24.633   3.784  1.00  0.00     0.126 C
HETATM   41  C29 UNL     1       6.983  26.661   2.701  1.00  0.00     0.126 C
HETATM   42  C27 UNL     1       6.996  24.312   2.300  1.00  0.00     0.021 C
HETATM   43  C28 UNL     1       7.230  25.639   1.605  1.00  0.00     0.021 C
ENDBRANCH  34  37
ENDBRANCH  31  34
ENDBRANCH  29  31
ENDBRANCH   1  29
TORSDOF 12
ENDMDL