MODEL 1
REMARK VINA RESULT: -8.461275873      0.000      0.000
REMARK  12 active torsions:
REMARK  status: ('A' for Active; 'I' for Inactive)
REMARK    1  A    between atoms: C2_2  and  C3_3
REMARK    2  A    between atoms: C3_3  and  C4_4
REMARK    3  A    between atoms: C3_3  and  C26_37
REMARK    4  A    between atoms: C4_4  and  N1_5
REMARK    5  A    between atoms: N1_5  and  C5_6
REMARK    6  A    between atoms: N1_5  and  C23_34
REMARK    7  A    between atoms: C5_6  and  O1_7
REMARK       I    between atoms: N2_16  and  C13_17
REMARK    8  A    between atoms: C13_17  and  C14_19
REMARK    9  A    between atoms: C14_19  and  N3_20
REMARK   10  A    between atoms: C14_19  and  C19_30
REMARK       I    between atoms: N3_20  and  C15_22
REMARK   11  A    between atoms: C15_22  and  C16_24
REMARK   12  A    between atoms: C16_24  and  N4_26
ROOT
HETATM    1  C5  UNL     1       8.005  26.677   4.806  1.00  0.00     0.162 C
HETATM    2  C6  UNL     1       7.158  27.348   5.702  1.00  0.00     0.070 C
HETATM    3  C7  UNL     1       7.799  27.910   6.972  1.00  0.00     0.046 C
HETATM    4  C8  UNL     1       9.162  27.525   7.295  1.00  0.00     0.011 C
HETATM    5  C9  UNL     1       9.179  26.495   8.410  1.00  0.00     0.001 C
HETATM    6  C10 UNL     1       7.801  26.481   8.954  1.00  0.00     0.007 C
HETATM    7  C11 UNL     1       6.977  27.391   8.121  1.00  0.00     0.014 C
HETATM    8  C12 UNL     1       5.845  26.599   7.523  1.00  0.00     0.137 C
HETATM    9  N2  UNL     1       5.831  26.989   6.101  1.00  0.00    -0.315 N
HETATM   10  C13 UNL     1       4.598  27.043   5.394  1.00  0.00     0.247 C
HETATM   11  O2  UNL     1       4.669  27.431   4.162  1.00  0.00    -0.271 OA
ENDROOT
BRANCH   1  12
HETATM   12  N1  UNL     1       8.345  25.485   4.183  1.00  0.00    -0.356 N
BRANCH  12  13
HETATM   13  C4  UNL     1       9.754  25.086   4.105  1.00  0.00     0.136 C
BRANCH  13  14
HETATM   14  C3  UNL     1      10.370  24.549   5.328  1.00  0.00     0.061 C
BRANCH  14  15
HETATM   15  C2  UNL     1       9.529  23.766   6.268  1.00  0.00     0.008 C
HETATM   16  C1  UNL     1      10.461  23.388   7.444  1.00  0.00     0.006 C
ENDBRANCH  14  15
BRANCH  14  17
HETATM   17  C26 UNL     1      11.640  23.795   5.004  1.00  0.00     0.059 A
HETATM   18  C27 UNL     1      11.810  22.949   3.909  1.00  0.00     0.043 A
HETATM   19  C28 UNL     1      13.091  22.454   3.953  1.00  0.00    -0.021 A
HETATM   20  C29 UNL     1      13.652  23.020   5.080  1.00  0.00     0.083 A
HETATM   21  C33 UNL     1      13.948  21.538   3.165  1.00  0.00     0.073 C
HETATM   22  O4  UNL     1      12.761  23.790   5.649  1.00  0.00    -0.316 OA
HETATM   23  C30 UNL     1      15.037  22.692   5.422  1.00  0.00     0.233 C
HETATM   24  O5  UNL     1      15.559  21.568   4.865  1.00  0.00    -0.380 OA
HETATM   25  C31 UNL     1      14.711  20.718   4.217  1.00  0.00     0.122 C
HETATM   26  C32 UNL     1      15.445  19.569   3.612  1.00  0.00     0.040 C
ENDBRANCH  14  17
ENDBRANCH  13  14
ENDBRANCH  12  13
BRANCH  12  27
HETATM   27  C23 UNL     1       7.465  24.563   3.527  1.00  0.00     0.078 C
HETATM   28  C24 UNL     1       6.342  25.082   2.740  1.00  0.00     0.032 C
HETATM   29  C25 UNL     1       8.278  23.480   2.779  1.00  0.00     0.032 C
ENDBRANCH  12  27
ENDBRANCH   1  12
BRANCH   1  30
HETATM   30  O1  UNL     1       8.925  27.582   4.307  1.00  0.00    -0.345 OA
ATOM     31  H1  UNL     1       9.381  27.890   5.082  1.00  0.00     0.219 HD
ENDBRANCH   1  30
BRANCH  10  32
HETATM   32  C14 UNL     1       3.254  26.739   5.846  1.00  0.00     0.184 C
BRANCH  32  33
HETATM   33  N3  UNL     1       2.461  27.975   5.744  1.00  0.00    -0.345 N
HETATM   34  C15 UNL     1       2.292  28.768   6.883  1.00  0.00     0.248 C
HETATM   35  O3  UNL     1       2.811  28.446   8.000  1.00  0.00    -0.271 OA
ATOM     36  H3  UNL     1       2.041  28.249   4.856  1.00  0.00     0.163 HD
BRANCH  34  37
HETATM   37  C16 UNL     1       1.496  30.012   6.798  1.00  0.00     0.272 C
HETATM   38  C17 UNL     1       1.003  30.252   5.380  1.00  0.00     0.050 C
BRANCH  37  39
HETATM   39  N4  UNL     1       2.326  31.114   7.247  1.00  0.00    -0.067 N
HETATM   40  C18 UNL     1       3.307  31.499   6.281  1.00  0.00     0.267 C
ATOM     41  H42 UNL     1       1.754  31.911   7.526  1.00  0.00     0.277 HD
ATOM     42  H41 UNL     1       2.761  30.900   8.145  1.00  0.00     0.277 HD
ENDBRANCH  37  39
ENDBRANCH  34  37
ENDBRANCH  32  33
BRANCH  32  43
HETATM   43  C19 UNL     1       2.490  25.663   5.142  1.00  0.00    -0.022 C
HETATM   44  C20 UNL     1       3.191  24.376   4.922  1.00  0.00     0.017 C
HETATM   45  C21 UNL     1       1.916  26.191   3.812  1.00  0.00     0.017 C
HETATM   46  C22 UNL     1       1.227  25.330   5.965  1.00  0.00     0.017 C
ENDBRANCH  32  43
ENDBRANCH  10  32
TORSDOF 12
ENDMDL