MODEL 3
REMARK VINA RESULT: -9.015844779      3.325      6.183
REMARK  11 active torsions:
REMARK  status: ('A' for Active; 'I' for Inactive)
REMARK    1  A    between atoms: C7_7  and  O1_8
REMARK    2  A    between atoms: O1_8  and  C8_9
REMARK    3  A    between atoms: C8_9  and  C9_10
REMARK    4  A    between atoms: C9_10  and  C10_11
REMARK    5  A    between atoms: C10_11  and  N1_12
REMARK    6  A    between atoms: C13_15  and  N2_16
REMARK       I    between atoms: N2_16  and  C14_18
REMARK    7  A    between atoms: C14_18  and  C15_20
REMARK    8  A    between atoms: C15_20  and  N3_21
REMARK       I    between atoms: N3_21  and  C16_22
REMARK    9  A    between atoms: N3_21  and  C21_33
REMARK       I    between atoms: C16_22  and  N4_24
REMARK   10  A    between atoms: N4_24  and  S1_26
REMARK   11  A    between atoms: S1_26  and  C17_29
ROOT
HETATM    1  N2  UNL     1      16.162  20.478   5.020  1.00  0.00    -0.355 N
ATOM      2  H2  UNL     1      16.248  20.593   4.011  1.00  0.00     0.162 HD
HETATM    3  C14 UNL     1      17.098  19.721   5.758  1.00  0.00     0.235 C
HETATM    4  O2  UNL     1      16.969  19.602   7.032  1.00  0.00    -0.272 OA
ENDROOT
BRANCH   1   5
HETATM    5  C13 UNL     1      15.068  21.088   5.762  1.00  0.00     0.087 C
HETATM    6  C12 UNL     1      15.305  22.509   6.143  1.00  0.00     0.044 C
HETATM    7  C11 UNL     1      14.069  23.015   6.842  1.00  0.00     0.119 C
HETATM    8  N1  UNL     1      12.848  22.822   6.137  1.00  0.00    -0.412 N
HETATM    9  C27 UNL     1      12.690  21.478   5.699  1.00  0.00     0.119 C
HETATM   10  C26 UNL     1      13.874  21.114   4.793  1.00  0.00     0.044 C
BRANCH   8  11
HETATM   11  C10 UNL     1      12.493  23.845   5.214  1.00  0.00     0.119 C
BRANCH  11  12
HETATM   12  C9  UNL     1      10.987  23.848   5.009  1.00  0.00     0.046 C
BRANCH  12  13
HETATM   13  C8  UNL     1      10.404  25.190   5.348  1.00  0.00     0.169 C
BRANCH  13  14
HETATM   14  O1  UNL     1      11.041  25.727   6.454  1.00  0.00    -0.385 OA
BRANCH  14  15
HETATM   15  C7  UNL     1      10.186  25.700   7.550  1.00  0.00     0.126 C
HETATM   16  C6  UNL     1      10.796  26.430   8.704  1.00  0.00     0.033 C
HETATM   17  C5  UNL     1       9.767  27.035   9.628  1.00  0.00     0.008 C
HETATM   18  C4  UNL     1       8.475  27.315   8.903  1.00  0.00    -0.006 C
HETATM   19  C2  UNL     1       7.863  26.124   8.243  1.00  0.00    -0.038 C
HETATM   20  C29 UNL     1       8.877  27.795   7.500  1.00  0.00     0.013 C
HETATM   21  C1  UNL     1       7.972  24.808   8.956  1.00  0.00     0.015 C
HETATM   22  C3  UNL     1       6.471  26.389   7.771  1.00  0.00     0.015 C
HETATM   23  C28 UNL     1       8.872  26.314   7.123  1.00  0.00     0.023 C
ENDBRANCH  14  15
ENDBRANCH  13  14
ENDBRANCH  12  13
ENDBRANCH  11  12
ENDBRANCH   8  11
ENDBRANCH   1   5
BRANCH   3  24
HETATM   24  C15 UNL     1      18.228  19.051   5.162  1.00  0.00     0.230 C
BRANCH  24  25
HETATM   25  N3  UNL     1      17.940  17.662   4.832  1.00  0.00    -0.320 N
HETATM   26  C16 UNL     1      18.469  16.698   5.731  1.00  0.00     0.332 C
HETATM   27  O3  UNL     1      19.176  17.074   6.736  1.00  0.00    -0.246 OA
HETATM   28  N4  UNL     1      18.290  15.298   5.636  1.00  0.00    -0.235 N
ATOM     29  H4  UNL     1      17.739  14.921   4.865  1.00  0.00     0.183 HD
BRANCH  28  30
HETATM   30  S1  UNL     1      18.978  14.203   6.790  1.00  0.00     0.241 S
HETATM   31  O4  UNL     1      18.875  14.863   8.145  1.00  0.00    -0.205 OA
HETATM   32  O5  UNL     1      18.247  12.908   6.840  1.00  0.00    -0.205 OA
BRANCH  30  33
HETATM   33  C17 UNL     1      20.685  13.905   6.443  1.00  0.00     0.072 C
HETATM   34  C18 UNL     1      20.931  14.077   4.941  1.00  0.00     0.033 C
HETATM   35  C19 UNL     1      21.610  14.812   7.199  1.00  0.00     0.033 C
HETATM   36  C20 UNL     1      21.040  12.444   6.735  1.00  0.00     0.033 C
ENDBRANCH  30  33
ENDBRANCH  28  30
BRANCH  25  37
HETATM   37  C21 UNL     1      17.121  17.360   3.696  1.00  0.00     0.089 C
HETATM   38  C22 UNL     1      15.651  17.424   3.854  1.00  0.00     0.025 C
HETATM   39  C23 UNL     1      15.073  17.884   2.564  1.00  0.00     0.002 C
HETATM   40  C24 UNL     1      16.207  18.402   1.749  1.00  0.00     0.002 C
HETATM   41  C25 UNL     1      17.482  18.201   2.488  1.00  0.00     0.025 C
ENDBRANCH  25  37
ENDBRANCH  24  25
ENDBRANCH   3  24
TORSDOF 11
ENDMDL