MODEL 2
REMARK VINA RESULT: -9.718685126      3.899     10.073
REMARK  13 active torsions:
REMARK  status: ('A' for Active; 'I' for Inactive)
REMARK    1  A    between atoms: C2_2  and  C4_4
REMARK    2  A    between atoms: C4_4  and  C5_5
REMARK       I    between atoms: C5_5  and  N1_7
REMARK    3  A    between atoms: N1_7  and  C6_9
REMARK    4  A    between atoms: C6_9  and  C7_10
REMARK    5  A    between atoms: C6_9  and  C13_16
REMARK    6  A    between atoms: N2_18  and  C15_19
REMARK    7  A    between atoms: C15_19  and  C16_20
REMARK    8  A    between atoms: C15_19  and  C26_39
REMARK    9  A    between atoms: C16_20  and  C17_21
REMARK   10  A    between atoms: C17_21  and  N3_22
REMARK   11  A    between atoms: C17_21  and  C22_29
REMARK       I    between atoms: N3_22  and  C18_24
REMARK   12  A    between atoms: C18_24  and  C19_26
REMARK       I    between atoms: C22_29  and  N4_31
REMARK   13  A    between atoms: N4_31  and  C23_33
ROOT
HETATM    1  C15 UNL     1      15.360  19.871   4.481  1.00  0.00     0.017 C
ENDROOT
BRANCH   1   2
HETATM    2  N2  UNL     1      14.737  20.967   5.076  1.00  0.00    -0.359 N
HETATM    3  C14 UNL     1      13.335  20.913   5.268  1.00  0.00     0.166 C
HETATM    4  C13 UNL     1      12.690  21.900   6.138  1.00  0.00     0.190 C
HETATM    5  O4  UNL     1      13.596  22.075   7.229  1.00  0.00    -0.373 OA
HETATM    6  C30 UNL     1      14.828  22.523   6.849  1.00  0.00     0.213 C
HETATM    7  C29 UNL     1      15.293  22.140   5.466  1.00  0.00     0.090 C
BRANCH   4   8
HETATM    8  C6  UNL     1      12.242  23.220   5.701  1.00  0.00     0.045 C
BRANCH   8   9
HETATM    9  N1  UNL     1      11.754  24.022   6.828  1.00  0.00    -0.328 N
HETATM   10  C5  UNL     1      10.961  25.137   6.916  1.00  0.00     0.222 C
HETATM   11  O1  UNL     1      10.425  25.851   6.040  1.00  0.00    -0.273 OA
ATOM     12  H1  UNL     1      12.070  23.679   7.735  1.00  0.00     0.168 HD
BRANCH  10  13
HETATM   13  C4  UNL     1      10.643  25.633   8.328  1.00  0.00     0.107 C
BRANCH  13  14
HETATM   14  C2  UNL     1       9.219  26.126   8.314  1.00  0.00    -0.014 C
HETATM   15  C1  UNL     1       8.278  25.047   8.791  1.00  0.00     0.010 C
HETATM   16  C3  UNL     1       9.157  27.318   9.290  1.00  0.00     0.010 C
ENDBRANCH  13  14
ENDBRANCH  10  13
ENDBRANCH   8   9
BRANCH   8  17
HETATM   17  C7  UNL     1      11.377  23.460   4.556  1.00  0.00    -0.055 C
HETATM   18  C8  UNL     1      10.083  22.640   4.530  1.00  0.00     0.036 C
HETATM   19  C9  UNL     1       9.040  23.435   3.781  1.00  0.00     0.004 C
HETATM   20  C10 UNL     1       9.501  23.944   2.454  1.00  0.00     0.001 C
HETATM   21  C11 UNL     1      10.888  24.538   2.461  1.00  0.00     0.004 C
HETATM   22  C12 UNL     1      11.860  23.556   3.176  1.00  0.00     0.036 C
ENDBRANCH   8  17
ENDBRANCH   4   8
ENDBRANCH   1   2
BRANCH   1  23
HETATM   23  C16 UNL     1      16.788  19.827   4.155  1.00  0.00     0.060 C
BRANCH  23  24
HETATM   24  C17 UNL     1      17.721  18.890   4.753  1.00  0.00     0.105 C
BRANCH  24  25
HETATM   25  N3  UNL     1      18.167  19.199   5.927  1.00  0.00    -0.322 N
HETATM   26  C18 UNL     1      17.751  18.954   7.203  1.00  0.00     0.226 C
HETATM   27  O2  UNL     1      18.057  17.852   7.776  1.00  0.00    -0.273 OA
ATOM     28  H3  UNL     1      19.024  19.751   5.891  1.00  0.00     0.169 HD
BRANCH  26  29
HETATM   29  C19 UNL     1      16.945  19.903   8.010  1.00  0.00     0.078 A
HETATM   30  C20 UNL     1      17.701  21.100   8.604  1.00  0.00     0.015 A
HETATM   31  C21 UNL     1      17.042  20.038   9.462  1.00  0.00     0.015 A
ENDBRANCH  26  29
ENDBRANCH  24  25
BRANCH  24  32
HETATM   32  C22 UNL     1      18.181  17.620   4.269  1.00  0.00     0.274 C
HETATM   33  O3  UNL     1      18.673  17.571   3.109  1.00  0.00    -0.266 OA
HETATM   34  N4  UNL     1      18.147  16.401   4.942  1.00  0.00    -0.302 N
ATOM     35  H4  UNL     1      17.328  16.189   5.513  1.00  0.00     0.171 HD
BRANCH  34  36
HETATM   36  C23 UNL     1      19.103  15.511   4.884  1.00  0.00     0.151 A
HETATM   37  N5  UNL     1      20.254  15.682   4.261  1.00  0.00    -0.346 N
HETATM   38  C24 UNL     1      21.131  14.713   4.270  1.00  0.00     0.097 A
ATOM     39  H5  UNL     1      20.457  16.558   3.780  1.00  0.00     0.167 HD
HETATM   40  C25 UNL     1      20.801  13.564   4.933  1.00  0.00     0.070 A
HETATM   41  S1  UNL     1      19.234  13.927   5.519  1.00  0.00    -0.064 SA
ENDBRANCH  34  36
ENDBRANCH  24  32
ENDBRANCH  23  24
ENDBRANCH   1  23
BRANCH   1  42
HETATM   42  C26 UNL     1      14.444  19.103   3.542  1.00  0.00     0.027 C
HETATM   43  C27 UNL     1      14.576  19.389   2.108  1.00  0.00     0.016 C
HETATM   44  C28 UNL     1      14.591  17.605   3.732  1.00  0.00     0.016 C
ENDBRANCH   1  42
TORSDOF 13
ENDMDL