MODEL 5
REMARK VINA RESULT: -8.836772371      1.512      2.352
REMARK  10 active torsions:
REMARK  status: ('A' for Active; 'I' for Inactive)
REMARK    1  A    between atoms: N1_4  and  C4_5
REMARK    2  A    between atoms: C4_5  and  C5_6
REMARK    3  A    between atoms: C5_6  and  C6_7
REMARK    4  A    between atoms: C9_10  and  N2_11
REMARK       I    between atoms: N2_11  and  C10_13
REMARK    5  A    between atoms: C10_13  and  C11_15
REMARK    6  A    between atoms: C11_15  and  N3_16
REMARK    7  A    between atoms: C15_20  and  C16_21
REMARK    8  A    between atoms: N4_27  and  C20_28
REMARK    9  A    between atoms: C20_28  and  C21_29
REMARK   10  A    between atoms: N5_32  and  C24_33
ROOT
HETATM    1  C1  UNL     1       8.947  24.841   3.271  1.00  0.00     0.034 C
HETATM    2  C2  UNL     1       9.044  24.445   4.766  1.00  0.00     0.103 C
HETATM    3  C3  UNL     1      10.170  23.511   4.883  1.00  0.00     0.296 C
HETATM    4  N1  UNL     1      11.039  23.645   6.031  1.00  0.00     0.090 N
HETATM    5  C17 UNL     1      10.295  23.570   7.265  1.00  0.00     0.274 C
HETATM    6  C18 UNL     1       9.992  24.979   7.678  1.00  0.00     0.050 C
HETATM    7  C19 UNL     1      10.076  25.858   6.420  1.00  0.00     0.119 C
HETATM    8  N4  UNL     1       8.965  25.578   5.604  1.00  0.00    -0.406 N
ENDROOT
BRANCH   4   9
HETATM    9  C4  UNL     1      12.066  22.661   5.918  1.00  0.00     0.273 C
BRANCH   9  10
HETATM   10  C5  UNL     1      13.482  23.216   5.974  1.00  0.00     0.036 C
BRANCH  10  11
HETATM   11  C6  UNL     1      14.475  22.111   5.622  1.00  0.00     0.002 C
HETATM   12  C7  UNL     1      13.871  21.276   4.479  1.00  0.00     0.007 C
HETATM   13  C8  UNL     1      14.506  19.919   4.477  1.00  0.00     0.026 C
HETATM   14  C9  UNL     1      15.972  20.003   4.885  1.00  0.00     0.085 C
HETATM   15  C14 UNL     1      16.014  20.343   6.335  1.00  0.00     0.041 C
HETATM   16  C15 UNL     1      14.762  21.190   6.722  1.00  0.00     0.093 C
BRANCH  14  17
HETATM   17  N2  UNL     1      16.553  18.695   4.663  1.00  0.00    -0.355 N
HETATM   18  C10 UNL     1      17.971  18.542   4.839  1.00  0.00     0.246 C
HETATM   19  O1  UNL     1      18.690  19.516   5.169  1.00  0.00    -0.272 OA
ATOM     20  H2  UNL     1      15.971  17.903   4.390  1.00  0.00     0.162 HD
BRANCH  18  21
HETATM   21  C11 UNL     1      18.565  17.226   4.625  1.00  0.00     0.373 C
BRANCH  21  22
HETATM   22  N3  UNL     1      18.040  16.211   5.516  1.00  0.00     0.088 N
HETATM   23  C12 UNL     1      18.316  16.610   6.895  1.00  0.00     0.310 C
HETATM   24  C13 UNL     1      18.718  14.970   5.234  1.00  0.00     0.310 C
ENDBRANCH  21  22
ENDBRANCH  18  21
ENDBRANCH  14  17
BRANCH  16  25
HETATM   25  C16 UNL     1      14.927  21.696   8.078  1.00  0.00     0.177 C
HETATM   26  O2  UNL     1      15.911  22.313   8.550  1.00  0.00    -0.648 OA
HETATM   27  O3  UNL     1      13.883  21.495   9.019  1.00  0.00    -0.648 OA
ENDBRANCH  16  25
ENDBRANCH  10  11
ENDBRANCH   9  10
ENDBRANCH   4   9
BRANCH   8  28
HETATM   28  C20 UNL     1       8.364  26.694   4.925  1.00  0.00     0.122 C
BRANCH  28  29
HETATM   29  C21 UNL     1       7.202  27.327   5.598  1.00  0.00     0.006 C
HETATM   30  C22 UNL     1       5.997  27.098   4.660  1.00  0.00     0.036 C
HETATM   31  C23 UNL     1       4.800  27.759   5.289  1.00  0.00     0.273 C
HETATM   32  N5  UNL     1       4.434  27.179   6.555  1.00  0.00     0.093 N
HETATM   33  C32 UNL     1       5.567  27.307   7.396  1.00  0.00     0.273 C
HETATM   34  C33 UNL     1       6.801  26.582   6.877  1.00  0.00     0.036 C
BRANCH  32  35
HETATM   35  C24 UNL     1       3.822  25.889   6.467  1.00  0.00     0.223 C
HETATM   36  C25 UNL     1       3.567  25.447   5.056  1.00  0.00     0.036 C
HETATM   37  C26 UNL     1       2.553  24.368   4.913  1.00  0.00     0.002 C
HETATM   38  C27 UNL     1       1.178  24.805   4.607  1.00  0.00     0.000 C
HETATM   39  C28 UNL     1       0.908  26.275   4.596  1.00  0.00     0.000 C
HETATM   40  C29 UNL     1       1.176  27.010   5.855  1.00  0.00     0.000 C
HETATM   41  C30 UNL     1       1.368  26.184   7.079  1.00  0.00     0.002 C
HETATM   42  C31 UNL     1       2.694  25.678   7.404  1.00  0.00     0.036 C
ENDBRANCH  32  35
ENDBRANCH  28  29
ENDBRANCH   8  28
TORSDOF 10
ENDMDL