MODEL 1
REMARK VINA RESULT: -9.741939260      0.000      0.000
REMARK  11 active torsions:
REMARK  status: ('A' for Active; 'I' for Inactive)
REMARK    1  A    between atoms: C2_2  and  C3_3
REMARK    2  A    between atoms: C3_3  and  C4_4
REMARK    3  A    between atoms: C3_3  and  N3_22
REMARK    4  A    between atoms: C5_5  and  O1_6
REMARK    5  A    between atoms: C5_5  and  N1_8
REMARK    6  A    between atoms: C9_12  and  C10_13
REMARK       I    between atoms: C10_13  and  N2_15
REMARK    7  A    between atoms: N2_15  and  C11_17
REMARK       I    between atoms: N3_22  and  C16_23
REMARK       I    between atoms: N3_22  and  C25_33
REMARK    8  A    between atoms: C16_23  and  C17_25
REMARK    9  A    between atoms: C17_25  and  C18_26
REMARK   10  A    between atoms: C25_33  and  C26_35
REMARK   11  A    between atoms: C26_35  and  N4_36
ROOT
HETATM    1  N3  UNL     1      10.871  23.652   4.857  1.00  0.00    -0.255 N
HETATM    2  C16 UNL     1      10.700  24.490   5.976  1.00  0.00     0.231 C
HETATM    3  O3  UNL     1      11.702  24.697   6.748  1.00  0.00    -0.273 OA
HETATM    4  C25 UNL     1       9.887  23.400   3.893  1.00  0.00     0.259 C
HETATM    5  O4  UNL     1      10.218  22.540   2.979  1.00  0.00    -0.271 OA
ENDROOT
BRANCH   1   6
HETATM    6  C3  UNL     1      12.187  22.958   4.685  1.00  0.00     0.026 C
BRANCH   6   7
HETATM    7  C2  UNL     1      13.280  23.903   4.495  1.00  0.00     0.053 C
HETATM    8  C1  UNL     1      14.587  23.161   4.168  1.00  0.00     0.011 C
ENDBRANCH   6   7
BRANCH   6   9
HETATM    9  C4  UNL     1      12.340  21.763   5.552  1.00  0.00     0.081 C
HETATM   10  C5  UNL     1      12.829  21.819   6.898  1.00  0.00     0.139 C
BRANCH  10  11
HETATM   11  O1  UNL     1      11.928  21.978   7.825  1.00  0.00    -0.346 OA
ATOM     12  H1  UNL     1      12.168  22.551   8.543  1.00  0.00     0.219 HD
ENDBRANCH  10  11
BRANCH  10  13
HETATM   13  N1  UNL     1      14.134  21.721   7.350  1.00  0.00    -0.361 N
HETATM   14  C6  UNL     1      14.766  22.957   7.907  1.00  0.00     0.125 C
HETATM   15  C7  UNL     1      16.249  22.854   7.581  1.00  0.00     0.021 C
HETATM   16  C8  UNL     1      16.900  21.734   8.381  1.00  0.00     0.017 C
HETATM   17  C9  UNL     1      15.843  20.695   8.682  1.00  0.00     0.096 C
HETATM   18  C15 UNL     1      15.001  20.577   7.405  1.00  0.00     0.139 C
BRANCH  17  19
HETATM   19  C10 UNL     1      16.443  19.414   9.085  1.00  0.00     0.224 C
HETATM   20  O2  UNL     1      17.592  19.141   8.655  1.00  0.00    -0.273 OA
HETATM   21  N2  UNL     1      15.805  18.475   9.926  1.00  0.00    -0.353 N
ATOM     22  H2  UNL     1      14.871  18.692  10.277  1.00  0.00     0.163 HD
BRANCH  21  23
HETATM   23  C11 UNL     1      16.404  17.237  10.310  1.00  0.00     0.022 C
HETATM   24  C12 UNL     1      15.333  16.279  10.794  1.00  0.00     0.037 C
HETATM   25  C13 UNL     1      17.356  17.469  11.449  1.00  0.00     0.037 C
HETATM   26  C14 UNL     1      17.142  16.529   9.197  1.00  0.00     0.037 C
ENDBRANCH  21  23
ENDBRANCH  17  19
ENDBRANCH  10  13
ENDBRANCH   6   9
ENDBRANCH   1   6
BRANCH   2  27
HETATM   27  C17 UNL     1       9.437  25.142   6.320  1.00  0.00     0.108 C
BRANCH  27  28
HETATM   28  C18 UNL     1       9.705  26.213   7.387  1.00  0.00    -0.002 C
HETATM   29  C19 UNL     1       8.918  27.429   7.084  1.00  0.00     0.005 C
HETATM   30  C20 UNL     1       8.067  27.947   8.221  1.00  0.00     0.000 C
HETATM   31  C21 UNL     1       8.668  27.838   9.572  1.00  0.00     0.000 C
HETATM   32  C22 UNL     1       9.810  26.882   9.705  1.00  0.00     0.004 C
HETATM   33  C23 UNL     1       9.505  25.700   8.777  1.00  0.00    -0.014 C
HETATM   34  C24 UNL     1       8.180  25.070   9.045  1.00  0.00     0.010 C
ENDBRANCH  27  28
ENDBRANCH   2  27
BRANCH   4  35
HETATM   35  C26 UNL     1       8.537  23.947   3.738  1.00  0.00     0.375 C
BRANCH  35  36
HETATM   36  N4  UNL     1       8.243  24.249   2.311  1.00  0.00     0.101 N
HETATM   37  C27 UNL     1       8.531  25.606   2.002  1.00  0.00     0.305 C
HETATM   38  C28 UNL     1       7.479  26.556   2.452  1.00  0.00     0.210 C
HETATM   39  C29 UNL     1       7.765  27.112   3.841  1.00  0.00     0.042 C
HETATM   40  N5  UNL     1       6.145  25.995   2.410  1.00  0.00    -0.064 N
HETATM   41  C30 UNL     1       6.101  24.958   1.402  1.00  0.00     0.210 C
ATOM     42  H52 UNL     1       5.833  25.663   3.322  1.00  0.00     0.278 HD
ATOM     43  H51 UNL     1       5.429  26.708   2.265  1.00  0.00     0.278 HD
HETATM   44  C31 UNL     1       4.668  24.469   1.207  1.00  0.00     0.042 C
HETATM   45  C32 UNL     1       6.927  23.801   1.982  1.00  0.00     0.305 C
ENDBRANCH  35  36
ENDBRANCH   4  35
TORSDOF 11
ENDMDL