MODEL 4
REMARK VINA RESULT: -7.976586261      6.042     10.247
REMARK  11 active torsions:
REMARK  status: ('A' for Active; 'I' for Inactive)
REMARK    1  A    between atoms: C2_2  and  C3_4
REMARK    2  A    between atoms: C3_4  and  O2_5
REMARK    3  A    between atoms: C7_10  and  C8_11
REMARK    4  A    between atoms: C8_11  and  C9_12
REMARK    5  A    between atoms: C15_19  and  C16_20
REMARK    6  A    between atoms: C16_20  and  C17_21
REMARK    7  A    between atoms: C16_20  and  C25_34
REMARK       I    between atoms: C17_21  and  N1_23
REMARK    8  A    between atoms: C18_25  and  C19_26
REMARK    9  A    between atoms: C19_26  and  C20_27
REMARK   10  A    between atoms: C20_27  and  N2_28
REMARK       I    between atoms: C25_34  and  N3_36
REMARK   11  A    between atoms: N3_36  and  C26_38
ROOT
HETATM    1  C3  UNL     1       1.368  26.851   6.119  1.00  0.00     0.126 C
HETATM    2  C4  UNL     1       0.343  26.627   5.079  1.00  0.00     0.047 C
HETATM    3  C5  UNL     1       0.779  26.669   3.671  1.00  0.00     0.004 C
HETATM    4  C6  UNL     1       2.206  26.442   3.358  1.00  0.00     0.018 C
HETATM    5  C7  UNL     1       3.059  25.897   4.478  1.00  0.00     0.032 C
HETATM    6  C14 UNL     1       4.471  26.169   4.143  1.00  0.00     0.141 C
HETATM    7  O3  UNL     1       4.754  26.476   2.997  1.00  0.00    -0.297 OA
HETATM    8  C15 UNL     1       5.554  26.091   5.123  1.00  0.00     0.078 C
HETATM    9  C29 UNL     1       5.107  26.303   6.543  1.00  0.00     0.014 C
HETATM   10  C30 UNL     1       3.693  26.603   6.789  1.00  0.00     0.014 C
HETATM   11  C31 UNL     1       2.796  26.881   5.645  1.00  0.00     0.009 C
HETATM   12  C32 UNL     1       3.076  28.253   5.095  1.00  0.00     0.020 C
ENDROOT
BRANCH   8  13
HETATM   13  C16 UNL     1       6.729  27.034   4.812  1.00  0.00     0.181 C
BRANCH  13  14
HETATM   14  C17 UNL     1       7.348  26.779   3.499  1.00  0.00     0.235 C
HETATM   15  O4  UNL     1       7.590  27.697   2.689  1.00  0.00    -0.272 OA
HETATM   16  N1  UNL     1       7.694  25.442   3.120  1.00  0.00    -0.340 N
HETATM   17  C18 UNL     1       8.934  25.058   3.172  1.00  0.00     0.065 C
ATOM     18  H1  UNL     1       6.969  24.794   2.810  1.00  0.00     0.167 HD
BRANCH  17  19
HETATM   19  C19 UNL     1       9.445  23.729   2.819  1.00  0.00     0.074 C
BRANCH  19  20
HETATM   20  C20 UNL     1      10.827  23.434   3.279  1.00  0.00     0.277 C
BRANCH  20  21
HETATM   21  N2  UNL     1      10.994  23.450   4.694  1.00  0.00     0.092 N
HETATM   22  C21 UNL     1      12.151  24.275   5.040  1.00  0.00     0.298 C
HETATM   23  C22 UNL     1      13.429  23.652   4.502  1.00  0.00     0.198 C
HETATM   24  O5  UNL     1      13.362  22.264   4.516  1.00  0.00    -0.388 OA
HETATM   25  C23 UNL     1      12.613  21.865   5.621  1.00  0.00     0.198 C
HETATM   26  C24 UNL     1      11.145  22.179   5.328  1.00  0.00     0.298 C
ENDBRANCH  20  21
ENDBRANCH  19  20
ENDBRANCH  17  19
ENDBRANCH  13  14
BRANCH  13  27
HETATM   27  C25 UNL     1       7.788  26.910   5.879  1.00  0.00     0.232 C
HETATM   28  O6  UNL     1       8.504  27.891   6.143  1.00  0.00    -0.273 OA
HETATM   29  N3  UNL     1       7.982  25.713   6.584  1.00  0.00    -0.356 N
ATOM     30  H3  UNL     1       7.390  24.914   6.359  1.00  0.00     0.162 HD
BRANCH  29  31
HETATM   31  C26 UNL     1       8.982  25.560   7.615  1.00  0.00     0.076 C
HETATM   32  C27 UNL     1       9.282  24.081   7.737  1.00  0.00     0.032 C
HETATM   33  C28 UNL     1       8.503  26.123   8.938  1.00  0.00     0.032 C
ENDBRANCH  29  31
ENDBRANCH  13  27
ENDBRANCH   8  13
BRANCH   5  34
HETATM   34  C8  UNL     1       2.818  24.512   4.836  1.00  0.00     0.022 C
BRANCH  34  35
HETATM   35  C9  UNL     1       2.978  23.394   3.905  1.00  0.00    -0.013 C
HETATM   36  C10 UNL     1       3.623  22.137   4.383  1.00  0.00     0.005 C
HETATM   37  C11 UNL     1       3.119  21.032   3.446  1.00  0.00     0.000 C
HETATM   38  C12 UNL     1       1.865  21.556   2.811  1.00  0.00     0.000 C
HETATM   39  C13 UNL     1       1.581  22.843   3.521  1.00  0.00     0.005 C
ENDBRANCH  34  35
ENDBRANCH   5  34
BRANCH   1  40
HETATM   40  C2  UNL     1       1.070  28.050   6.940  1.00  0.00     0.158 C
HETATM   41  C1  UNL     1       1.313  28.240   8.372  1.00  0.00     0.094 C
HETATM   42  O1  UNL     1       0.554  29.019   6.346  1.00  0.00    -0.295 OA
ENDBRANCH   1  40
BRANCH   1  43
HETATM   43  O2  UNL     1       1.240  25.777   7.074  1.00  0.00    -0.381 OA
ATOM     44  H2  UNL     1       1.799  25.105   6.704  1.00  0.00     0.211 HD
ENDBRANCH   1  43
TORSDOF 11
ENDMDL