MODEL 3
REMARK VINA RESULT: -8.900390272      2.497      4.760
REMARK  12 active torsions:
REMARK  status: ('A' for Active; 'I' for Inactive)
REMARK    1  A    between atoms: C3_3  and  O1_4
REMARK    2  A    between atoms: C7_10  and  C8_11
REMARK    3  A    between atoms: C7_10  and  N2_21
REMARK    4  A    between atoms: C8_11  and  C9_12
REMARK       I    between atoms: C9_12  and  N1_14
REMARK    5  A    between atoms: N2_21  and  C16_22
REMARK    6  A    between atoms: C16_22  and  C17_23
REMARK    7  A    between atoms: C19_25  and  C20_26
REMARK    8  A    between atoms: C20_26  and  C21_27
REMARK    9  A    between atoms: C21_27  and  N3_28
REMARK   10  A    between atoms: N3_28  and  C22_30
REMARK   11  A    between atoms: C22_30  and  O4_32
REMARK   12  A    between atoms: O4_32  and  C23_33
ROOT
HETATM    1  C1  UNL     1      14.221  21.459  10.380  1.00  0.00     0.100 C
HETATM    2  C2  UNL     1      14.729  21.142   9.302  1.00  0.00    -0.145 C
HETATM    3  C3  UNL     1      15.376  20.728   8.071  1.00  0.00     0.160 C
HETATM    4  C4  UNL     1      16.826  20.998   8.259  1.00  0.00     0.221 C
HETATM    5  O2  UNL     1      17.063  22.319   8.285  1.00  0.00    -0.387 OA
HETATM    6  C5  UNL     1      16.181  23.149   7.685  1.00  0.00     0.170 C
HETATM    7  C6  UNL     1      15.377  22.598   6.586  1.00  0.00     0.066 C
HETATM    8  C7  UNL     1      14.807  21.194   6.788  1.00  0.00     0.104 C
ENDROOT
BRANCH   3   9
HETATM    9  O1  UNL     1      15.191  19.279   8.155  1.00  0.00    -0.373 OA
ATOM     10  H1  UNL     1      15.543  19.015   7.312  1.00  0.00     0.212 HD
ENDBRANCH   3   9
BRANCH   8  11
HETATM   11  C8  UNL     1      13.331  21.229   6.776  1.00  0.00     0.083 C
BRANCH  11  12
HETATM   12  C9  UNL     1      12.533  22.411   6.971  1.00  0.00     0.242 C
HETATM   13  O3  UNL     1      12.302  22.964   8.052  1.00  0.00    -0.269 OA
HETATM   14  N1  UNL     1      11.931  23.036   5.821  1.00  0.00    -0.349 N
HETATM   15  C10 UNL     1      11.145  24.217   6.124  1.00  0.00     0.126 C
HETATM   16  C15 UNL     1      12.167  22.446   4.521  1.00  0.00     0.126 C
HETATM   17  C11 UNL     1       9.707  23.998   5.648  1.00  0.00     0.020 C
HETATM   18  C12 UNL     1       9.659  24.508   4.217  1.00  0.00     0.002 C
HETATM   19  C13 UNL     1      10.309  23.479   3.316  1.00  0.00     0.002 C
HETATM   20  C14 UNL     1      11.813  23.478   3.454  1.00  0.00     0.020 C
ENDBRANCH  11  12
ENDBRANCH   8  11
BRANCH   8  21
HETATM   21  N2  UNL     1      15.259  20.396   5.656  1.00  0.00    -0.356 N
HETATM   22  C19 UNL     1      16.546  20.358   5.218  1.00  0.00     0.069 C
BRANCH  21  23
HETATM   23  C16 UNL     1      14.297  19.843   4.831  1.00  0.00     0.064 C
BRANCH  23  24
HETATM   24  C17 UNL     1      14.726  19.401   3.455  1.00  0.00     0.040 C
HETATM   25  C18 UNL     1      14.711  17.845   3.398  1.00  0.00     0.010 C
ENDBRANCH  23  24
ENDBRANCH  21  23
BRANCH  22  26
HETATM   26  C20 UNL     1      17.707  19.706   5.848  1.00  0.00     0.089 C
BRANCH  26  27
HETATM   27  C21 UNL     1      18.121  18.354   5.317  1.00  0.00     0.069 C
BRANCH  27  28
HETATM   28  N3  UNL     1      17.482  17.231   5.870  1.00  0.00    -0.341 N
ATOM     29  H3  UNL     1      16.556  16.952   5.547  1.00  0.00     0.167 HD
BRANCH  28  30
HETATM   30  C22 UNL     1      18.157  16.479   6.901  1.00  0.00     0.214 C
HETATM   31  S1  UNL     1      19.453  15.585   6.480  1.00  0.00    -0.033 SA
BRANCH  30  32
HETATM   32  O4  UNL     1      17.739  16.501   8.202  1.00  0.00    -0.321 OA
BRANCH  32  33
HETATM   33  C23 UNL     1      18.052  17.373   9.226  1.00  0.00     0.139 C
HETATM   34  C24 UNL     1      19.119  16.669  10.081  1.00  0.00     0.016 C
HETATM   35  C25 UNL     1      19.715  17.608  11.089  1.00  0.00     0.012 C
HETATM   36  C29 UNL     1      18.491  15.462  10.719  1.00  0.00     0.012 C
HETATM   37  C26 UNL     1      18.598  18.023  12.019  1.00  0.00    -0.013 C
HETATM   38  C27 UNL     1      18.080  16.796  12.737  1.00  0.00     0.009 C
HETATM   39  C32 UNL     1      17.544  18.700  11.207  1.00  0.00     0.012 C
HETATM   40  C28 UNL     1      17.446  15.886  11.734  1.00  0.00    -0.013 C
HETATM   41  C30 UNL     1      16.365  16.600  10.934  1.00  0.00     0.012 C
HETATM   42  C31 UNL     1      16.952  17.748  10.158  1.00  0.00     0.016 C
ENDBRANCH  32  33
ENDBRANCH  30  32
ENDBRANCH  28  30
ENDBRANCH  27  28
ENDBRANCH  26  27
ENDBRANCH  22  26
ENDBRANCH   8  21
TORSDOF 12
ENDMDL