MODEL 2
REMARK VINA RESULT: -8.499435153      1.038      1.196
REMARK  12 active torsions:
REMARK  status: ('A' for Active; 'I' for Inactive)
REMARK    1  A    between atoms: C2_2  and  C3_3
REMARK    2  A    between atoms: C3_3  and  S1_4
REMARK    3  A    between atoms: S1_4  and  C4_6
REMARK    4  A    between atoms: C4_6  and  C5_7
REMARK    5  A    between atoms: C5_7  and  C6_8
REMARK    6  A    between atoms: C5_7  and  N2_18
REMARK       I    between atoms: C6_8  and  N1_10
REMARK    7  A    between atoms: N1_10  and  C7_12
REMARK    8  A    between atoms: C14_21  and  S2_22
REMARK    9  A    between atoms: S2_22  and  C15_23
REMARK   10  A    between atoms: C15_23  and  N3_25
REMARK   11  A    between atoms: N3_25  and  C17_27
REMARK   12  A    between atoms: C24_34  and  C26_36
ROOT
HETATM    1  N2  UNL     1      10.076  25.070   6.039  1.00  0.00    -0.318 N
HETATM    2  C13 UNL     1      11.476  25.156   5.735  1.00  0.00     0.236 C
HETATM    3  O3  UNL     1      12.012  25.619   4.732  1.00  0.00    -0.272 OA
HETATM    4  C14 UNL     1      12.258  24.556   6.899  1.00  0.00     0.149 C
HETATM    5  C23 UNL     1      11.347  25.108   8.003  1.00  0.00     0.067 C
HETATM    6  C24 UNL     1       9.978  24.816   7.453  1.00  0.00     0.122 C
HETATM    7  C25 UNL     1       9.571  23.373   7.756  1.00  0.00     0.050 C
ENDROOT
BRANCH   1   8
HETATM    8  C5  UNL     1       8.982  25.196   5.084  1.00  0.00     0.192 C
BRANCH   8   9
HETATM    9  C4  UNL     1       9.417  25.063   3.649  1.00  0.00     0.143 C
BRANCH   9  10
HETATM   10  S1  UNL     1       8.124  24.834   2.488  1.00  0.00     0.017 S
HETATM   11  O1  UNL     1       7.453  26.293   1.988  1.00  0.00    -0.258 OA
BRANCH  10  12
HETATM   12  C3  UNL     1       6.848  23.773   3.151  1.00  0.00     0.108 C
BRANCH  12  13
HETATM   13  C2  UNL     1       5.487  24.333   2.777  1.00  0.00     0.008 C
HETATM   14  C1  UNL     1       4.426  23.739   3.655  1.00  0.00     0.006 C
ENDBRANCH  12  13
ENDBRANCH  10  12
ENDBRANCH   9  10
ENDBRANCH   8   9
BRANCH   8  15
HETATM   15  C6  UNL     1       8.102  26.342   5.313  1.00  0.00     0.241 C
HETATM   16  O2  UNL     1       8.433  27.567   5.161  1.00  0.00    -0.271 OA
HETATM   17  N1  UNL     1       6.764  26.141   5.739  1.00  0.00    -0.355 N
ATOM     18  H1  UNL     1       6.445  25.181   5.872  1.00  0.00     0.162 HD
BRANCH  17  19
HETATM   19  C7  UNL     1       5.822  27.211   5.998  1.00  0.00     0.084 C
HETATM   20  C8  UNL     1       4.871  27.373   4.849  1.00  0.00     0.025 C
HETATM   21  C9  UNL     1       3.819  28.407   5.214  1.00  0.00     0.002 C
HETATM   22  C10 UNL     1       3.005  27.942   6.377  1.00  0.00     0.000 C
HETATM   23  C11 UNL     1       3.955  27.799   7.564  1.00  0.00     0.002 C
HETATM   24  C12 UNL     1       5.025  26.808   7.246  1.00  0.00     0.025 C
ENDBRANCH  17  19
ENDBRANCH   8  15
ENDBRANCH   1   8
BRANCH   6  25
HETATM   25  C26 UNL     1       9.026  25.735   8.151  1.00  0.00     0.202 C
HETATM   26  O4  UNL     1       9.384  26.927   8.315  1.00  0.00    -0.646 OA
HETATM   27  O5  UNL     1       7.817  25.273   8.585  1.00  0.00    -0.646 OA
ENDBRANCH   6  25
BRANCH   4  28
HETATM   28  S2  UNL     1      12.256  22.804   6.813  1.00  0.00    -0.086 SA
BRANCH  28  29
HETATM   29  C15 UNL     1      13.802  22.008   6.650  1.00  0.00     0.137 C
HETATM   30  S3  UNL     1      14.567  21.491   8.073  1.00  0.00    -0.053 SA
BRANCH  29  31
HETATM   31  N3  UNL     1      14.534  21.686   5.484  1.00  0.00    -0.366 N
HETATM   32  C16 UNL     1      14.930  22.662   4.486  1.00  0.00     0.151 C
BRANCH  31  33
HETATM   33  C17 UNL     1      14.948  20.293   5.307  1.00  0.00     0.085 C
HETATM   34  C18 UNL     1      14.155  19.530   4.302  1.00  0.00     0.025 C
HETATM   35  C19 UNL     1      14.809  19.388   2.955  1.00  0.00     0.002 C
HETATM   36  C20 UNL     1      16.067  18.533   3.110  1.00  0.00     0.000 C
HETATM   37  C21 UNL     1      16.732  18.874   4.439  1.00  0.00     0.002 C
HETATM   38  C22 UNL     1      16.380  20.326   4.752  1.00  0.00     0.025 C
ENDBRANCH  31  33
ENDBRANCH  29  31
ENDBRANCH  28  29
ENDBRANCH   4  28
TORSDOF 12
ENDMDL