MODEL 1
REMARK VINA RESULT: -8.001908899      0.000      0.000
REMARK  11 active torsions:
REMARK  status: ('A' for Active; 'I' for Inactive)
REMARK    1  A    between atoms: C2_2  and  N1_3
REMARK    2  A    between atoms: N1_3  and  C3_4
REMARK       I    between atoms: N1_3  and  C28_36
REMARK    3  A    between atoms: C3_4  and  C4_5
REMARK    4  A    between atoms: C4_5  and  O1_6
REMARK    5  A    between atoms: C4_5  and  C5_8
REMARK    6  A    between atoms: C5_8  and  N2_9
REMARK       I    between atoms: N2_9  and  C6_11
REMARK    7  A    between atoms: C6_11  and  C7_13
REMARK    8  A    between atoms: C7_13  and  C8_14
REMARK    9  A    between atoms: C8_14  and  C9_15
REMARK   10  A    between atoms: C15_21  and  C16_22
REMARK   11  A    between atoms: C28_36  and  C29_38
ROOT
HETATM    1  C9  UNL     1      13.139  23.484   4.131  1.00  0.00     0.006 C
HETATM    2  C10 UNL     1      13.025  22.014   4.568  1.00  0.00    -0.006 C
HETATM    3  C11 UNL     1      13.650  21.068   3.551  1.00  0.00     0.011 C
HETATM    4  C12 UNL     1      11.517  21.785   4.422  1.00  0.00     0.026 C
HETATM    5  C13 UNL     1      11.085  21.454   5.850  1.00  0.00     0.012 C
HETATM    6  C14 UNL     1      11.239  22.575   6.792  1.00  0.00     0.039 C
HETATM    7  C15 UNL     1      11.941  23.808   6.189  1.00  0.00    -0.022 C
HETATM    8  C18 UNL     1      11.822  24.014   4.772  1.00  0.00     0.029 C
HETATM    9  C19 UNL     1      11.273  25.235   4.144  1.00  0.00     0.036 C
HETATM   10  C20 UNL     1       9.884  25.592   4.584  1.00  0.00     0.009 C
HETATM   11  C21 UNL     1       8.924  24.447   4.733  1.00  0.00     0.008 C
HETATM   12  C22 UNL     1       9.458  23.133   4.326  1.00  0.00     0.018 C
HETATM   13  C23 UNL     1       8.638  22.356   3.302  1.00  0.00     0.013 C
HETATM   14  C24 UNL     1      10.892  23.063   3.996  1.00  0.00     0.082 C
HETATM   15  O4  UNL     1      11.184  23.512   2.710  1.00  0.00    -0.368 OA
HETATM   16  C25 UNL     1      11.139  24.884   2.661  1.00  0.00     0.059 C
HETATM   17  C26 UNL     1      12.255  25.534   1.832  1.00  0.00     0.046 C
HETATM   18  C27 UNL     1       9.960  25.445   1.953  1.00  0.00     0.046 C
ENDROOT
BRANCH   1  19
HETATM   19  C8  UNL     1      14.356  24.154   4.545  1.00  0.00     0.015 C
BRANCH  19  20
HETATM   20  C7  UNL     1      15.622  23.491   4.834  1.00  0.00     0.103 C
BRANCH  20  21
HETATM   21  C6  UNL     1      15.785  22.724   6.065  1.00  0.00     0.217 C
HETATM   22  N2  UNL     1      16.522  21.497   6.014  1.00  0.00    -0.359 N
ATOM     23  H2  UNL     1      16.894  21.209   5.110  1.00  0.00     0.162 HD
HETATM   24  O2  UNL     1      15.319  23.078   7.150  1.00  0.00    -0.274 OA
BRANCH  22  25
HETATM   25  C5  UNL     1      16.775  20.643   7.138  1.00  0.00     0.155 C
BRANCH  25  26
HETATM   26  C4  UNL     1      18.214  20.204   7.219  1.00  0.00     0.153 C
BRANCH  26  27
HETATM   27  C3  UNL     1      18.719  19.687   5.921  1.00  0.00     0.159 C
BRANCH  27  28
HETATM   28  N1  UNL     1      18.520  18.299   5.654  1.00  0.00    -0.350 N
HETATM   29  C28 UNL     1      18.181  17.659   4.451  1.00  0.00     0.224 C
HETATM   30  O5  UNL     1      18.022  16.379   4.544  1.00  0.00    -0.273 OA
BRANCH  28  31
HETATM   31  C2  UNL     1      18.683  17.399   6.841  1.00  0.00     0.121 C
HETATM   32  C1  UNL     1      20.048  16.748   6.707  1.00  0.00     0.026 C
ENDBRANCH  28  31
BRANCH  29  33
HETATM   33  C29 UNL     1      17.985  18.224   3.120  1.00  0.00     0.078 C
HETATM   34  C30 UNL     1      16.814  19.229   3.129  1.00  0.00     0.014 C
HETATM   35  C31 UNL     1      15.928  18.131   2.640  1.00  0.00     0.002 C
HETATM   36  C32 UNL     1      17.174  17.418   2.134  1.00  0.00     0.014 C
ENDBRANCH  29  33
ENDBRANCH  27  28
ENDBRANCH  26  27
BRANCH  26  37
HETATM   37  O1  UNL     1      18.926  21.379   7.581  1.00  0.00    -0.392 OA
ATOM     38  H1  UNL     1      19.158  21.346   8.502  1.00  0.00     0.210 HD
ENDBRANCH  26  37
ENDBRANCH  25  26
ENDBRANCH  22  25
ENDBRANCH  20  21
ENDBRANCH  19  20
ENDBRANCH   1  19
BRANCH   7  39
HETATM   39  C16 UNL     1      11.768  24.894   7.173  1.00  0.00     0.148 C
HETATM   40  C17 UNL     1      10.624  25.102   8.100  1.00  0.00     0.096 C
HETATM   41  O3  UNL     1      12.627  25.793   7.323  1.00  0.00    -0.293 OA
ENDBRANCH   7  39
TORSDOF 11
ENDMDL