MODEL 1
REMARK VINA RESULT: -9.615348158      0.000      0.000
REMARK  12 active torsions:
REMARK  status: ('A' for Active; 'I' for Inactive)
REMARK    1  A    between atoms: C1_2  and  C2_3
REMARK       I    between atoms: C1_2  and  N1_10
REMARK    2  A    between atoms: C2_3  and  C3_4
REMARK    3  A    between atoms: N1_10  and  C9_12
REMARK    4  A    between atoms: C9_12  and  C10_13
REMARK    5  A    between atoms: C10_13  and  S1_14
REMARK    6  A    between atoms: S1_14  and  N2_17
REMARK    7  A    between atoms: C13_20  and  C14_21
REMARK    8  A    between atoms: C14_21  and  C15_22
REMARK    9  A    between atoms: C15_22  and  C16_23
REMARK   10  A    between atoms: C16_23  and  C17_25
REMARK   11  A    between atoms: C19_29  and  N4_30
REMARK   12  A    between atoms: N4_30  and  C20_32
ROOT
HETATM    1  N2  UNL     1       9.633  26.433   7.469  1.00  0.00    -0.211 NA
HETATM    2  C11 UNL     1      10.867  26.552   8.226  1.00  0.00     0.107 C
HETATM    3  C12 UNL     1      11.576  25.198   8.276  1.00  0.00     0.020 C
HETATM    4  C13 UNL     1      11.303  24.426   7.003  1.00  0.00    -0.012 C
HETATM    5  C23 UNL     1       9.826  24.109   6.957  1.00  0.00     0.020 C
HETATM    6  C24 UNL     1       9.077  25.147   7.724  1.00  0.00     0.107 C
ENDROOT
BRANCH   1   7
HETATM    7  S1  UNL     1       8.608  27.760   7.706  1.00  0.00     0.213 S
HETATM    8  O2  UNL     1       7.791  27.600   8.969  1.00  0.00    -0.211 OA
HETATM    9  O3  UNL     1       9.509  28.962   8.000  1.00  0.00    -0.211 OA
BRANCH   7  10
HETATM   10  C10 UNL     1       7.625  28.198   6.307  1.00  0.00     0.188 C
BRANCH  10  11
HETATM   11  C9  UNL     1       6.497  27.230   6.027  1.00  0.00     0.047 A
HETATM   12  C25 UNL     1       5.595  27.137   7.242  1.00  0.00     0.032 A
HETATM   13  C26 UNL     1       4.489  27.904   6.567  1.00  0.00     0.005 A
HETATM   14  C27 UNL     1       5.355  27.889   5.301  1.00  0.00     0.032 A
BRANCH  11  15
HETATM   15  N1  UNL     1       6.881  25.992   5.452  1.00  0.00    -0.351 N
HETATM   16  C1  UNL     1       7.200  25.771   4.090  1.00  0.00     0.218 C
HETATM   17  O1  UNL     1       7.134  26.756   3.314  1.00  0.00    -0.274 OA
ATOM     18  H1  UNL     1       6.933  25.186   6.077  1.00  0.00     0.163 HD
BRANCH  16  19
HETATM   19  C2  UNL     1       7.600  24.434   3.584  1.00  0.00     0.107 C
BRANCH  19  20
HETATM   20  C3  UNL     1       8.765  24.405   2.679  1.00  0.00    -0.006 C
HETATM   21  C4  UNL     1       9.132  23.099   2.075  1.00  0.00     0.005 C
HETATM   22  C5  UNL     1       9.856  22.189   3.052  1.00  0.00     0.000 C
HETATM   23  C6  UNL     1      11.173  22.814   3.427  1.00  0.00     0.000 C
HETATM   24  C7  UNL     1      11.240  24.287   3.061  1.00  0.00     0.000 C
HETATM   25  C8  UNL     1       9.960  24.953   3.476  1.00  0.00     0.005 C
ENDBRANCH  19  20
ENDBRANCH  16  19
ENDBRANCH  11  15
ENDBRANCH  10  11
ENDBRANCH   7  10
ENDBRANCH   1   7
BRANCH   4  26
HETATM   26  C14 UNL     1      12.056  23.121   6.998  1.00  0.00     0.012 C
BRANCH  26  27
HETATM   27  C15 UNL     1      13.546  23.274   7.089  1.00  0.00     0.085 C
BRANCH  27  28
HETATM   28  C16 UNL     1      14.120  23.096   5.740  1.00  0.00     0.167 C
HETATM   29  O4  UNL     1      14.303  24.065   5.002  1.00  0.00    -0.292 OA
BRANCH  28  30
HETATM   30  C17 UNL     1      14.463  21.735   5.311  1.00  0.00     0.069 A
HETATM   31  C18 UNL     1      14.878  20.666   6.055  1.00  0.00     0.113 A
HETATM   32  N3  UNL     1      15.125  19.550   5.437  1.00  0.00    -0.345 N
HETATM   33  C19 UNL     1      14.963  19.499   4.114  1.00  0.00     0.145 A
ATOM     34  H3  UNL     1      15.437  18.728   5.954  1.00  0.00     0.167 HD
HETATM   35  S2  UNL     1      14.446  21.081   3.733  1.00  0.00    -0.049 SA
BRANCH  33  36
HETATM   36  N4  UNL     1      15.160  18.468   3.316  1.00  0.00    -0.366 N
ATOM     37  H4  UNL     1      14.598  17.619   3.365  1.00  0.00     0.162 HD
BRANCH  36  38
HETATM   38  C20 UNL     1      16.246  18.639   2.356  1.00  0.00     0.083 A
HETATM   39  C21 UNL     1      17.616  18.524   2.982  1.00  0.00     0.027 A
HETATM   40  C22 UNL     1      17.095  17.498   1.991  1.00  0.00     0.027 A
ENDBRANCH  36  38
ENDBRANCH  33  36
ENDBRANCH  28  30
ENDBRANCH  27  28
ENDBRANCH  26  27
ENDBRANCH   4  26
TORSDOF 12
ENDMDL