MODEL 1
REMARK VINA RESULT: -9.528127341      0.000      0.000
REMARK  10 active torsions:
REMARK  status: ('A' for Active; 'I' for Inactive)
REMARK    1  A    between atoms: C2_2  and  C3_3
REMARK    2  A    between atoms: C3_3  and  C4_4
REMARK    3  A    between atoms: C4_4  and  C5_5
REMARK    4  A    between atoms: C5_5  and  C6_6
REMARK       I    between atoms: C6_6  and  N1_8
REMARK    5  A    between atoms: N1_8  and  C7_9
REMARK    6  A    between atoms: N1_8  and  C12_17
REMARK       I    between atoms: N3_20  and  C15_21
REMARK    7  A    between atoms: C15_21  and  C16_23
REMARK    8  A    between atoms: C18_25  and  C19_26
REMARK    9  A    between atoms: C22_29  and  C23_30
REMARK   10  A    between atoms: C23_30  and  C24_31
ROOT
HETATM    1  C12 UNL     1      11.391  23.018   6.622  1.00  0.00     0.090 C
HETATM    2  C13 UNL     1      11.690  21.801   5.786  1.00  0.00     0.045 C
HETATM    3  C14 UNL     1      13.108  21.305   5.982  1.00  0.00     0.128 C
HETATM    4  N3  UNL     1      14.069  22.338   5.808  1.00  0.00    -0.348 N
HETATM    5  C15 UNL     1      15.230  22.109   5.030  1.00  0.00     0.255 C
HETATM    6  O2  UNL     1      16.106  22.990   4.855  1.00  0.00    -0.267 OA
HETATM    7  C30 UNL     1      13.859  23.612   6.421  1.00  0.00     0.128 C
HETATM    8  C31 UNL     1      12.570  23.711   7.188  1.00  0.00     0.045 C
ENDROOT
BRANCH   5   9
HETATM    9  C16 UNL     1      15.466  20.808   4.377  1.00  0.00     0.054 A
HETATM   10  C17 UNL     1      16.303  19.915   4.996  1.00  0.00     0.028 A
HETATM   11  C18 UNL     1      16.550  18.681   4.426  1.00  0.00    -0.038 A
HETATM   12  C27 UNL     1      15.908  18.416   3.213  1.00  0.00     0.095 A
HETATM   13  N4  UNL     1      15.095  19.322   2.639  1.00  0.00    -0.368 N
HETATM   14  C28 UNL     1      14.853  20.520   3.192  1.00  0.00     0.021 A
ATOM     15  H4  UNL     1      14.646  19.089   1.753  1.00  0.00     0.165 HD
HETATM   16  C29 UNL     1      13.943  21.451   2.481  1.00  0.00     0.069 C
BRANCH  11  17
HETATM   17  C19 UNL     1      17.441  17.669   5.046  1.00  0.00     0.020 C
HETATM   18  C20 UNL     1      18.347  17.095   3.964  1.00  0.00     0.010 C
HETATM   19  C21 UNL     1      19.001  15.859   4.484  1.00  0.00     0.006 C
HETATM   20  C22 UNL     1      19.021  15.932   6.002  1.00  0.00    -0.005 C
HETATM   21  C25 UNL     1      19.379  17.323   6.470  1.00  0.00     0.006 C
HETATM   22  C26 UNL     1      18.316  18.333   6.083  1.00  0.00     0.010 C
BRANCH  20  23
HETATM   23  C23 UNL     1      20.133  15.000   6.515  1.00  0.00     0.117 C
BRANCH  23  24
HETATM   24  C24 UNL     1      19.617  14.176   7.642  1.00  0.00     0.172 C
HETATM   25  O3  UNL     1      20.222  14.247   8.766  1.00  0.00    -0.648 OA
HETATM   26  O4  UNL     1      18.514  13.346   7.514  1.00  0.00    -0.648 OA
ENDBRANCH  23  24
ENDBRANCH  20  23
ENDBRANCH  11  17
ENDBRANCH   5   9
BRANCH   1  27
HETATM   27  N1  UNL     1      10.489  23.829   5.853  1.00  0.00    -0.343 N
HETATM   28  C6  UNL     1       9.624  24.707   6.548  1.00  0.00     0.220 C
HETATM   29  O1  UNL     1       8.790  25.451   5.975  1.00  0.00    -0.273 OA
BRANCH  28  30
HETATM   30  C5  UNL     1       9.654  24.803   8.039  1.00  0.00     0.103 C
BRANCH  30  31
HETATM   31  C4  UNL     1       8.513  25.612   8.570  1.00  0.00     0.009 C
BRANCH  31  32
HETATM   32  C3  UNL     1       8.967  26.431   9.735  1.00  0.00     0.000 C
BRANCH  32  33
HETATM   33  C2  UNL     1       8.684  27.906   9.565  1.00  0.00    -0.005 C
HETATM   34  C1  UNL     1       9.141  28.362   8.184  1.00  0.00     0.005 C
ENDBRANCH  32  33
ENDBRANCH  31  32
ENDBRANCH  30  31
ENDBRANCH  28  30
BRANCH  27  35
HETATM   35  C7  UNL     1      10.419  23.778   4.400  1.00  0.00     0.090 C
HETATM   36  C8  UNL     1       9.044  23.810   3.846  1.00  0.00     0.053 C
HETATM   37  C9  UNL     1       8.635  24.943   2.994  1.00  0.00     0.234 C
HETATM   38  N2  UNL     1       9.635  25.696   2.331  1.00  0.00    -0.075 N
HETATM   39  C10 UNL     1      10.911  25.053   2.311  1.00  0.00     0.234 C
ATOM     40  H22 UNL     1       9.338  25.938   1.386  1.00  0.00     0.277 HD
ATOM     41  H21 UNL     1       9.708  26.631   2.730  1.00  0.00     0.277 HD
HETATM   42  C11 UNL     1      11.303  24.799   3.778  1.00  0.00     0.053 C
ENDBRANCH  27  35
ENDBRANCH   1  27
TORSDOF 10
ENDMDL