MODEL 4
REMARK VINA RESULT: -8.791403250      0.778      1.303
REMARK  12 active torsions:
REMARK  status: ('A' for Active; 'I' for Inactive)
REMARK    1  A    between atoms: C2_2  and  C3_3
REMARK    2  A    between atoms: C3_3  and  S1_4
REMARK    3  A    between atoms: S1_4  and  C4_5
REMARK    4  A    between atoms: C4_5  and  C5_6
REMARK       I    between atoms: C5_6  and  N1_8
REMARK    5  A    between atoms: N1_8  and  C7_10
REMARK    6  A    between atoms: C7_10  and  C8_11
REMARK    7  A    between atoms: C7_10  and  C23_35
REMARK       I    between atoms: C8_11  and  N2_13
REMARK    8  A    between atoms: N2_13  and  C9_15
REMARK    9  A    between atoms: C9_15  and  C10_16
REMARK   10  A    between atoms: C9_15  and  C19_31
REMARK       I    between atoms: C10_16  and  N3_18
REMARK   11  A    between atoms: N3_18  and  C11_20
REMARK   12  A    between atoms: C19_31  and  C21_33
ROOT
HETATM    1  C8  UNL     1      12.470  22.221   5.874  1.00  0.00     0.265 C
HETATM    2  O2  UNL     1      12.619  21.575   6.977  1.00  0.00    -0.266 OA
HETATM    3  N2  UNL     1      13.479  22.004   4.896  1.00  0.00    -0.342 N
ATOM      4  H2  UNL     1      13.413  22.507   4.011  1.00  0.00     0.163 HD
ENDROOT
BRANCH   3   5
HETATM    5  C9  UNL     1      14.590  21.109   5.094  1.00  0.00     0.181 C
BRANCH   5   6
HETATM    6  C10 UNL     1      15.794  21.830   5.585  1.00  0.00     0.246 C
HETATM    7  O3  UNL     1      15.757  23.093   5.791  1.00  0.00    -0.271 OA
HETATM    8  N3  UNL     1      17.029  21.217   5.855  1.00  0.00    -0.305 N
ATOM      9  H3  UNL     1      17.744  21.239   5.128  1.00  0.00     0.171 HD
BRANCH   8  10
HETATM   10  C11 UNL     1      17.318  20.616   6.990  1.00  0.00     0.152 A
HETATM   11  N4  UNL     1      17.709  19.356   7.170  1.00  0.00    -0.335 N
HETATM   12  C12 UNL     1      17.954  18.946   8.400  1.00  0.00     0.051 A
ATOM     13  H4  UNL     1      17.815  18.724   6.376  1.00  0.00     0.168 HD
HETATM   14  C13 UNL     1      18.374  17.652   8.774  1.00  0.00     0.037 A
HETATM   15  C18 UNL     1      17.790  19.848   9.412  1.00  0.00     0.035 A
HETATM   16  C14 UNL     1      18.596  17.346  10.074  1.00  0.00    -0.060 A
HETATM   17  C15 UNL     1      19.042  15.950  10.426  1.00  0.00     0.048 C
HETATM   18  C16 UNL     1      18.437  18.237  11.112  1.00  0.00     0.008 A
HETATM   19  C17 UNL     1      18.027  19.502  10.754  1.00  0.00     0.022 A
HETATM   20  S2  UNL     1      17.291  21.246   8.574  1.00  0.00    -0.052 SA
ENDBRANCH   8  10
ENDBRANCH   5   6
BRANCH   5  21
HETATM   21  C19 UNL     1      14.877  20.177   3.988  1.00  0.00     0.013 C
HETATM   22  C20 UNL     1      14.471  18.763   4.447  1.00  0.00     0.012 C
BRANCH  21  23
HETATM   23  C21 UNL     1      14.243  20.484   2.669  1.00  0.00     0.002 C
HETATM   24  C22 UNL     1      14.973  19.692   1.568  1.00  0.00     0.005 C
ENDBRANCH  21  23
ENDBRANCH   5  21
ENDBRANCH   3   5
BRANCH   1  25
HETATM   25  C7  UNL     1      11.311  23.089   5.763  1.00  0.00     0.086 C
BRANCH  25  26
HETATM   26  N1  UNL     1      11.237  23.877   4.556  1.00  0.00    -0.320 N
HETATM   27  C5  UNL     1      10.427  23.709   3.432  1.00  0.00     0.233 C
HETATM   28  O1  UNL     1       9.574  22.826   3.297  1.00  0.00    -0.272 OA
HETATM   29  C6  UNL     1      12.170  25.055   4.434  1.00  0.00     0.159 C
BRANCH  27  30
HETATM   30  C4  UNL     1      10.563  24.655   2.265  1.00  0.00     0.177 C
BRANCH  30  31
HETATM   31  S1  UNL     1       9.046  25.666   2.194  1.00  0.00    -0.160 SA
BRANCH  31  32
HETATM   32  C3  UNL     1       8.328  25.889   3.824  1.00  0.00     0.074 C
BRANCH  32  33
HETATM   33  C2  UNL     1       8.958  27.093   4.514  1.00  0.00     0.006 C
HETATM   34  C1  UNL     1       8.055  27.556   5.626  1.00  0.00     0.006 C
ENDBRANCH  32  33
ENDBRANCH  31  32
ENDBRANCH  30  31
ENDBRANCH  27  30
ENDBRANCH  25  26
BRANCH  25  35
HETATM   35  C23 UNL     1      10.912  23.852   7.025  1.00  0.00     0.041 C
HETATM   36  C24 UNL     1      11.969  24.808   7.449  1.00  0.00     0.011 C
HETATM   37  C25 UNL     1      11.656  25.411   8.813  1.00  0.00     0.001 C
HETATM   38  C26 UNL     1      10.288  26.066   8.777  1.00  0.00     0.000 C
HETATM   39  C27 UNL     1       9.245  25.082   8.360  1.00  0.00     0.001 C
HETATM   40  C28 UNL     1       9.562  24.465   6.989  1.00  0.00     0.011 C
ENDBRANCH  25  35
ENDBRANCH   1  25
TORSDOF 12
ENDMDL