MODEL 1
REMARK VINA RESULT: -8.196377761      0.000      0.000
REMARK  10 active torsions:
REMARK  status: ('A' for Active; 'I' for Inactive)
REMARK    1  A    between atoms: C3_3  and  N1_4
REMARK    2  A    between atoms: N1_4  and  C4_5
REMARK    3  A    between atoms: N1_4  and  C7_8
REMARK    4  A    between atoms: C4_5  and  C5_6
REMARK    5  A    between atoms: C7_8  and  O1_9
REMARK    6  A    between atoms: N2_14  and  C11_15
REMARK    7  A    between atoms: C11_15  and  C12_16
REMARK    8  A    between atoms: C11_15  and  C23_34
REMARK       I    between atoms: C12_16  and  N3_18
REMARK    9  A    between atoms: N3_18  and  C13_20
REMARK       I    between atoms: N4_23  and  C16_24
REMARK       I    between atoms: C16_24  and  N5_26
REMARK   10  A    between atoms: N5_26  and  C17_28
ROOT
HETATM    1  C11 UNL     1       8.211  26.851   6.000  1.00  0.00     0.353 C
ENDROOT
BRANCH   1   2
HETATM    2  N2  UNL     1       6.896  26.295   5.958  1.00  0.00     0.107 N
HETATM    3  C10 UNL     1       6.312  26.210   4.638  1.00  0.00     0.278 C
HETATM    4  C9  UNL     1       4.809  26.626   4.661  1.00  0.00     0.069 C
HETATM    5  C8  UNL     1       4.829  28.088   4.925  1.00  0.00    -0.026 C
HETATM    6  C7  UNL     1       3.661  28.882   4.740  1.00  0.00     0.144 C
HETATM    7  C28 UNL     1       5.623  28.312   6.207  1.00  0.00     0.069 C
HETATM    8  C27 UNL     1       6.032  27.007   6.860  1.00  0.00     0.278 C
BRANCH   6   9
HETATM    9  N1  UNL     1       2.329  28.818   5.277  1.00  0.00    -0.338 N
BRANCH   9  10
HETATM   10  C3  UNL     1       1.258  28.223   4.592  1.00  0.00     0.088 C
HETATM   11  C2  UNL     1       1.120  26.851   4.171  1.00  0.00    -0.014 C
HETATM   12  C1  UNL     1       1.076  25.713   5.100  1.00  0.00     0.037 C
ENDBRANCH   9  10
BRANCH   9  13
HETATM   13  C4  UNL     1       2.078  29.617   6.477  1.00  0.00     0.130 C
BRANCH  13  14
HETATM   14  C5  UNL     1       2.305  29.081   7.802  1.00  0.00     0.016 C
HETATM   15  C6  UNL     1       2.489  27.657   8.087  1.00  0.00     0.006 C
ENDBRANCH  13  14
ENDBRANCH   9  13
ENDBRANCH   6   9
BRANCH   6  16
HETATM   16  O1  UNL     1       3.795  29.892   3.914  1.00  0.00    -0.346 OA
ATOM     17  H1  UNL     1       4.671  30.258   3.954  1.00  0.00     0.219 HD
ENDBRANCH   6  16
ENDBRANCH   1   2
BRANCH   1  18
HETATM   18  C12 UNL     1       9.289  25.983   5.480  1.00  0.00     0.256 C
HETATM   19  O2  UNL     1       9.610  26.108   4.242  1.00  0.00    -0.271 OA
HETATM   20  N3  UNL     1      10.017  25.024   6.204  1.00  0.00    -0.354 N
ATOM     21  H3  UNL     1       9.803  24.883   7.191  1.00  0.00     0.162 HD
BRANCH  20  22
HETATM   22  C13 UNL     1      11.071  24.220   5.586  1.00  0.00     0.087 C
HETATM   23  C14 UNL     1      12.429  24.630   6.113  1.00  0.00     0.045 C
HETATM   24  C15 UNL     1      13.487  23.925   5.354  1.00  0.00     0.130 C
HETATM   25  N4  UNL     1      13.152  22.615   4.864  1.00  0.00    -0.330 N
HETATM   26  C16 UNL     1      14.186  21.882   4.236  1.00  0.00     0.319 C
HETATM   27  C20 UNL     1      11.851  22.014   4.973  1.00  0.00     0.086 C
HETATM   28  O3  UNL     1      15.320  22.366   4.127  1.00  0.00    -0.247 OA
HETATM   29  N5  UNL     1      13.958  20.590   3.716  1.00  0.00    -0.339 N
ATOM     30  H5  UNL     1      13.028  20.182   3.797  1.00  0.00     0.164 HD
HETATM   31  C21 UNL     1      11.160  22.034   3.611  1.00  0.00     0.032 C
HETATM   32  C22 UNL     1      10.933  22.743   5.932  1.00  0.00     0.050 C
BRANCH  29  33
HETATM   33  C17 UNL     1      15.011  19.820   3.066  1.00  0.00     0.078 C
HETATM   34  C18 UNL     1      15.092  18.414   3.608  1.00  0.00     0.032 C
HETATM   35  C19 UNL     1      14.856  19.787   1.570  1.00  0.00     0.032 C
ENDBRANCH  29  33
ENDBRANCH  20  22
ENDBRANCH   1  18
BRANCH   1  36
HETATM   36  C23 UNL     1       8.521  27.175   7.456  1.00  0.00     0.025 A
HETATM   37  C24 UNL     1       8.993  28.351   7.978  1.00  0.00     0.018 A
HETATM   38  C25 UNL     1       9.206  28.394   9.299  1.00  0.00     0.008 A
HETATM   39  C26 UNL     1       8.935  27.258  10.019  1.00  0.00     0.050 A
HETATM   40  S1  UNL     1       8.393  26.170   8.827  1.00  0.00    -0.104 SA
ENDBRANCH   1  36
TORSDOF 10
ENDMDL