MODEL 3
REMARK VINA RESULT: -9.192356251      2.948      9.826
REMARK  12 active torsions:
REMARK  status: ('A' for Active; 'I' for Inactive)
REMARK    1  A    between atoms: C2_2  and  C3_3
REMARK    2  A    between atoms: C3_3  and  C4_4
REMARK    3  A    between atoms: C4_4  and  C5_5
REMARK       I    between atoms: C5_5  and  N1_7
REMARK    4  A    between atoms: N1_7  and  C6_9
REMARK    5  A    between atoms: C7_14  and  C8_15
REMARK    6  A    between atoms: C8_15  and  C9_16
REMARK    7  A    between atoms: C9_16  and  C10_17
REMARK    8  A    between atoms: C10_17  and  C11_18
REMARK    9  A    between atoms: C11_18  and  C12_19
REMARK   10  A    between atoms: C13_24  and  N6_25
REMARK       I    between atoms: N6_25  and  C14_27
REMARK   11  A    between atoms: C14_27  and  C15_29
REMARK   12  A    between atoms: C15_29  and  N7_32
ROOT
HETATM    1  C12 UNL     1      11.546  25.124   5.169  1.00  0.00     0.037 A
HETATM    2  N4  UNL     1      10.827  25.572   4.124  1.00  0.00    -0.302 N
ATOM      3  H4  UNL     1      11.090  25.280   3.184  1.00  0.00     0.186 HD
HETATM    4  N5  UNL     1       9.792  26.377   4.275  1.00  0.00    -0.284 N
ATOM      5  H5  UNL     1       9.255  26.709   3.473  1.00  0.00     0.188 HD
HETATM    6  C13 UNL     1       9.471  26.747   5.544  1.00  0.00     0.134 A
HETATM    7  C22 UNL     1      10.144  26.339   6.659  1.00  0.00     0.028 A
HETATM    8  C23 UNL     1       9.757  26.750   7.917  1.00  0.00    -0.047 A
HETATM    9  C24 UNL     1       8.628  27.642   8.142  1.00  0.00     0.049 C
HETATM   10  C25 UNL     1      10.540  26.245   8.970  1.00  0.00     0.007 A
HETATM   11  C26 UNL     1      11.598  25.417   8.811  1.00  0.00     0.002 A
HETATM   12  C27 UNL     1      11.955  25.028   7.531  1.00  0.00     0.014 A
HETATM   13  C28 UNL     1      11.234  25.485   6.453  1.00  0.00     0.002 A
ENDROOT
BRANCH   1  14
HETATM   14  C11 UNL     1      12.713  24.265   4.881  1.00  0.00     0.059 C
BRANCH  14  15
HETATM   15  C10 UNL     1      12.420  23.356   3.704  1.00  0.00     0.006 C
BRANCH  15  16
HETATM   16  C9  UNL     1      12.832  21.934   3.948  1.00  0.00     0.007 C
BRANCH  16  17
HETATM   17  C8  UNL     1      14.152  21.621   3.295  1.00  0.00     0.066 C
BRANCH  17  18
HETATM   18  C7  UNL     1      15.165  21.207   4.335  1.00  0.00     0.069 A
HETATM   19  N3  UNL     1      16.060  21.995   4.938  1.00  0.00    -0.296 N
HETATM   20  N2  UNL     1      16.860  21.509   5.784  1.00  0.00    -0.279 N
ATOM     21  H3  UNL     1      16.096  22.989   4.715  1.00  0.00     0.187 HD
HETATM   22  C6  UNL     1      16.803  20.199   6.071  1.00  0.00     0.167 A
ATOM     23  H2  UNL     1      17.545  22.107   6.247  1.00  0.00     0.189 HD
HETATM   24  S1  UNL     1      15.519  19.697   5.044  1.00  0.00    -0.038 SA
BRANCH  22  25
HETATM   25  N1  UNL     1      17.555  19.557   6.914  1.00  0.00    -0.306 N
HETATM   26  C5  UNL     1      17.541  20.102   8.288  1.00  0.00     0.227 C
HETATM   27  O1  UNL     1      18.645  20.467   8.691  1.00  0.00    -0.273 OA
ATOM     28  H1  UNL     1      18.110  18.743   6.649  1.00  0.00     0.171 HD
BRANCH  26  29
HETATM   29  C4  UNL     1      16.248  20.116   8.916  1.00  0.00     0.130 C
BRANCH  29  30
HETATM   30  C3  UNL     1      15.675  21.378   9.388  1.00  0.00    -0.022 C
BRANCH  30  31
HETATM   31  C2  UNL     1      14.936  22.270   8.514  1.00  0.00    -0.034 C
HETATM   32  C1  UNL     1      13.779  21.866   7.708  1.00  0.00     0.036 C
ENDBRANCH  30  31
ENDBRANCH  29  30
ENDBRANCH  26  29
ENDBRANCH  22  25
ENDBRANCH  17  18
ENDBRANCH  16  17
ENDBRANCH  15  16
ENDBRANCH  14  15
ENDBRANCH   1  14
BRANCH   6  33
HETATM   33  N6  UNL     1       8.485  27.531   5.649  1.00  0.00    -0.309 N
HETATM   34  C14 UNL     1       7.410  27.640   4.738  1.00  0.00     0.261 C
HETATM   35  O2  UNL     1       7.701  28.197   3.623  1.00  0.00    -0.270 OA
ATOM     36  H6  UNL     1       8.464  28.142   6.466  1.00  0.00     0.170 HD
BRANCH  34  37
HETATM   37  C15 UNL     1       6.039  27.162   5.007  1.00  0.00     0.232 C
HETATM   38  C16 UNL     1       5.119  28.363   5.126  1.00  0.00     0.059 C
HETATM   39  C17 UNL     1       5.914  26.394   6.304  1.00  0.00     0.059 C
BRANCH  37  40
HETATM   40  N7  UNL     1       5.648  26.283   3.932  1.00  0.00     0.106 N
HETATM   41  C18 UNL     1       6.419  25.091   3.821  1.00  0.00     0.274 C
HETATM   42  C19 UNL     1       5.463  24.063   3.224  1.00  0.00     0.032 C
HETATM   43  C20 UNL     1       4.160  24.417   3.881  1.00  0.00     0.032 C
HETATM   44  C21 UNL     1       4.249  25.915   3.997  1.00  0.00     0.274 C
ENDBRANCH  37  40
ENDBRANCH  34  37
ENDBRANCH   6  33
TORSDOF 12
ENDMDL