MODEL 2
REMARK VINA RESULT: -9.448856279      3.204      8.584
REMARK  11 active torsions:
REMARK  status: ('A' for Active; 'I' for Inactive)
REMARK    1  A    between atoms: C2_2  and  C25_34
REMARK    2  A    between atoms: C3_3  and  C4_4
REMARK    3  A    between atoms: C4_4  and  C5_5
REMARK       I    between atoms: C5_5  and  N1_7
REMARK    4  A    between atoms: N1_7  and  C6_9
REMARK    5  A    between atoms: C6_9  and  C7_10
REMARK    6  A    between atoms: C6_9  and  C13_20
REMARK    7  A    between atoms: C7_10  and  N2_11
REMARK    8  A    between atoms: N2_11  and  S1_13
REMARK    9  A    between atoms: S1_13  and  C9_16
REMARK   10  A    between atoms: C13_20  and  N3_22
REMARK   11  A    between atoms: N3_22  and  C15_24
ROOT
HETATM    1  C6  UNL     1      12.649  23.467   5.005  1.00  0.00     0.124 C
ENDROOT
BRANCH   1   2
HETATM    2  N1  UNL     1      11.451  23.196   4.296  1.00  0.00    -0.353 N
HETATM    3  C5  UNL     1      10.938  23.966   3.211  1.00  0.00     0.221 C
HETATM    4  O1  UNL     1      11.569  24.962   2.818  1.00  0.00    -0.273 OA
ATOM      5  H1  UNL     1      10.911  22.381   4.586  1.00  0.00     0.163 HD
BRANCH   3   6
HETATM    6  C4  UNL     1       9.672  23.632   2.511  1.00  0.00     0.130 C
BRANCH   6   7
HETATM    7  C3  UNL     1       8.489  23.951   3.339  1.00  0.00    -0.009 C
HETATM    8  C2  UNL     1       7.785  25.043   2.994  1.00  0.00    -0.039 C
HETATM    9  C1  UNL     1       8.224  25.852   1.812  1.00  0.00     0.050 C
BRANCH   8  10
HETATM   10  C25 UNL     1       6.626  25.508   3.731  1.00  0.00     0.038 A
HETATM   11  C26 UNL     1       6.561  26.755   4.283  1.00  0.00     0.030 A
HETATM   12  C27 UNL     1       5.419  27.183   4.986  1.00  0.00     0.004 A
HETATM   13  C28 UNL     1       4.351  26.309   5.112  1.00  0.00     0.024 A
HETATM   14  C29 UNL     1       4.463  25.046   4.534  1.00  0.00     0.005 A
HETATM   15  C30 UNL     1       3.322  24.113   4.669  1.00  0.00     0.068 C
HETATM   16  N4  UNL     1       5.574  24.685   3.873  1.00  0.00    -0.360 N
ATOM     17  H4  UNL     1       5.622  23.752   3.464  1.00  0.00     0.166 HD
ENDBRANCH   8  10
ENDBRANCH   6   7
ENDBRANCH   3   6
ENDBRANCH   1   2
BRANCH   1  18
HETATM   18  C7  UNL     1      13.428  22.192   5.417  1.00  0.00     0.161 C
BRANCH  18  19
HETATM   19  N2  UNL     1      14.602  21.965   4.695  1.00  0.00    -0.312 N
HETATM   20  C8  UNL     1      15.352  23.146   4.335  1.00  0.00     0.162 C
BRANCH  19  21
HETATM   21  S1  UNL     1      15.484  20.561   4.827  1.00  0.00     0.235 S
HETATM   22  O2  UNL     1      16.938  20.843   5.074  1.00  0.00    -0.205 OA
HETATM   23  O3  UNL     1      15.013  19.753   6.014  1.00  0.00    -0.205 OA
BRANCH  21  24
HETATM   24  C9  UNL     1      15.431  19.453   3.439  1.00  0.00     0.072 C
HETATM   25  C10 UNL     1      16.776  19.015   2.962  1.00  0.00     0.033 C
HETATM   26  C11 UNL     1      14.683  18.211   3.930  1.00  0.00     0.033 C
HETATM   27  C12 UNL     1      14.650  20.022   2.290  1.00  0.00     0.033 C
ENDBRANCH  21  24
ENDBRANCH  19  21
ENDBRANCH  18  19
ENDBRANCH   1  18
BRANCH   1  28
HETATM   28  C13 UNL     1      12.547  24.286   6.235  1.00  0.00     0.097 C
HETATM   29  C14 UNL     1      13.203  23.484   7.375  1.00  0.00     0.034 C
BRANCH  28  30
HETATM   30  N3  UNL     1      11.293  24.657   6.712  1.00  0.00    -0.411 N
ATOM     31  H3  UNL     1      10.585  23.930   6.813  1.00  0.00     0.154 HD
BRANCH  30  32
HETATM   32  C15 UNL     1      10.947  25.962   7.059  1.00  0.00     0.081 C
HETATM   33  C16 UNL     1       9.605  26.242   6.436  1.00  0.00     0.029 C
HETATM   34  C17 UNL     1       8.729  27.185   7.172  1.00  0.00    -0.013 C
HETATM   35  C18 UNL     1       7.597  26.519   7.925  1.00  0.00     0.005 C
HETATM   36  C24 UNL     1       9.446  28.212   7.999  1.00  0.00     0.005 C
HETATM   37  C19 UNL     1       8.013  25.331   8.713  1.00  0.00     0.000 C
HETATM   38  C20 UNL     1       8.948  25.606   9.844  1.00  0.00     0.000 C
HETATM   39  C21 UNL     1      10.351  25.311   9.430  1.00  0.00     0.007 C
HETATM   40  C22 UNL     1      11.006  26.289   8.530  1.00  0.00     0.008 C
HETATM   41  C23 UNL     1      10.653  27.719   8.710  1.00  0.00     0.007 C
ENDBRANCH  30  32
ENDBRANCH  28  30
ENDBRANCH   1  28
TORSDOF 11
ENDMDL