MODEL 3
REMARK VINA RESULT: -7.705861358      2.098      4.703
REMARK  11 active torsions:
REMARK  status: ('A' for Active; 'I' for Inactive)
REMARK    1  A    between atoms: C2_2  and  C3_3
REMARK    2  A    between atoms: C3_3  and  C4_4
REMARK    3  A    between atoms: C4_4  and  N1_5
REMARK       I    between atoms: N1_5  and  C6_7
REMARK    4  A    between atoms: C6_7  and  C7_9
REMARK       I    between atoms: N2_13  and  C11_14
REMARK       I    between atoms: C11_14  and  N3_16
REMARK    5  A    between atoms: N3_16  and  C12_18
REMARK    6  A    between atoms: C12_18  and  C13_19
REMARK    7  A    between atoms: C12_18  and  C15_21
REMARK    8  A    between atoms: C12_18  and  C27_39
REMARK    9  A    between atoms: C18_24  and  C19_25
REMARK   10  A    between atoms: C19_25  and  N4_27
REMARK   11  A    between atoms: N4_27  and  O3_28
REMARK       I    between atoms: N4_27  and  C21_30
REMARK       I    between atoms: C21_30  and  N5_32
ROOT
HETATM    1  C15 UNL     1       9.245  25.135   4.259  1.00  0.00    -0.009 A
HETATM    2  C16 UNL     1       9.007  25.136   5.643  1.00  0.00     0.012 A
HETATM    3  C17 UNL     1       9.876  24.665   6.597  1.00  0.00     0.010 A
HETATM    4  C18 UNL     1      11.076  24.150   6.256  1.00  0.00    -0.032 A
HETATM    5  C24 UNL     1      11.387  24.120   4.927  1.00  0.00     0.032 A
HETATM    6  C25 UNL     1      10.486  24.607   3.967  1.00  0.00     0.054 A
HETATM    7  C26 UNL     1      11.003  24.714   2.627  1.00  0.00     0.100 C
HETATM    8  N6  UNL     1      11.447  24.823   1.592  1.00  0.00    -0.191 NA
ENDROOT
BRANCH   1   9
HETATM    9  C12 UNL     1       8.255  25.564   3.261  1.00  0.00     0.066 C
BRANCH   9  10
HETATM   10  N3  UNL     1       7.111  26.055   4.067  1.00  0.00    -0.329 N
HETATM   11  C11 UNL     1       6.924  27.230   4.747  1.00  0.00     0.320 C
HETATM   12  N2  UNL     1       5.710  27.510   5.481  1.00  0.00    -0.321 N
HETATM   13  O2  UNL     1       7.760  28.159   4.804  1.00  0.00    -0.247 OA
HETATM   14  C7  UNL     1       4.572  26.631   5.609  1.00  0.00     0.181 C
HETATM   15  C10 UNL     1       5.420  28.713   6.203  1.00  0.00     0.129 C
HETATM   16  C8  UNL     1       4.124  26.947   7.021  1.00  0.00     0.037 C
HETATM   17  C9  UNL     1       4.630  28.297   7.393  1.00  0.00     0.022 C
ATOM     18  H3  UNL     1       6.327  25.405   4.124  1.00  0.00     0.165 HD
BRANCH  14  19
HETATM   19  C6  UNL     1       3.580  26.947   4.576  1.00  0.00     0.242 C
HETATM   20  N1  UNL     1       2.491  26.158   4.164  1.00  0.00    -0.355 N
HETATM   21  C5  UNL     1       1.609  26.654   3.123  1.00  0.00     0.152 C
HETATM   22  O1  UNL     1       3.726  28.058   3.983  1.00  0.00    -0.271 OA
BRANCH  20  23
HETATM   23  C4  UNL     1       2.226  24.878   4.732  1.00  0.00     0.125 C
BRANCH  23  24
HETATM   24  C3  UNL     1       2.474  23.720   3.827  1.00  0.00     0.019 C
BRANCH  24  25
HETATM   25  C2  UNL     1       3.846  23.076   4.057  1.00  0.00    -0.003 C
HETATM   26  C1  UNL     1       3.649  21.591   4.339  1.00  0.00     0.005 C
ENDBRANCH  24  25
ENDBRANCH  23  24
ENDBRANCH  20  23
ENDBRANCH  14  19
ENDBRANCH   9  10
BRANCH   9  27
HETATM   27  C13 UNL     1       8.664  26.856   2.566  1.00  0.00     0.032 C
HETATM   28  C14 UNL     1       8.603  26.668   1.089  1.00  0.00     0.008 C
ENDBRANCH   9  27
BRANCH   9  29
HETATM   29  C27 UNL     1       7.589  24.595   2.375  1.00  0.00     0.010 C
HETATM   30  C28 UNL     1       7.778  23.153   2.965  1.00  0.00     0.012 C
HETATM   31  C29 UNL     1       6.215  24.711   1.858  1.00  0.00     0.012 C
ENDBRANCH   9  29
ENDBRANCH   1   9
BRANCH   4  32
HETATM   32  C19 UNL     1      12.061  23.620   7.219  1.00  0.00     0.148 C
HETATM   33  C20 UNL     1      12.515  24.702   8.169  1.00  0.00     0.040 C
BRANCH  32  34
HETATM   34  N4  UNL     1      13.236  23.106   6.553  1.00  0.00    -0.201 N
HETATM   35  C21 UNL     1      13.342  21.767   6.105  1.00  0.00     0.344 C
HETATM   36  O4  UNL     1      12.330  21.017   6.330  1.00  0.00    -0.245 OA
HETATM   37  N5  UNL     1      14.488  21.258   5.444  1.00  0.00    -0.341 N
HETATM   38  C22 UNL     1      15.637  22.059   5.173  1.00  0.00     0.154 C
HETATM   39  C23 UNL     1      14.472  19.865   5.033  1.00  0.00     0.154 C
BRANCH  34  40
HETATM   40  O3  UNL     1      14.276  23.935   6.352  1.00  0.00    -0.283 OA
ATOM     41  H3  UNL     1      15.042  23.602   5.899  1.00  0.00     0.245 HD
ENDBRANCH  34  40
ENDBRANCH  32  34
ENDBRANCH   4  32
TORSDOF 11
ENDMDL