MODEL 4
REMARK VINA RESULT: -8.666862899      2.598      5.715
REMARK  12 active torsions:
REMARK  status: ('A' for Active; 'I' for Inactive)
REMARK    1  A    between atoms: C2_2  and  O1_3
REMARK    2  A    between atoms: O1_3  and  C3_4
REMARK    3  A    between atoms: C3_4  and  C4_6
REMARK    4  A    between atoms: N1_14  and  C12_15
REMARK    5  A    between atoms: C12_15  and  C13_16
REMARK    6  A    between atoms: C20_24  and  C21_25
REMARK    7  A    between atoms: C21_25  and  C22_26
REMARK       I    between atoms: C22_26  and  N2_28
REMARK    8  A    between atoms: N2_28  and  C23_30
REMARK    9  A    between atoms: C23_30  and  C24_31
REMARK   10  A    between atoms: C24_31  and  N3_32
REMARK   11  A    between atoms: C29_37  and  C30_38
REMARK   12  A    between atoms: C30_38  and  O5_39
ROOT
HETATM    1  C4  UNL     1       9.455  25.294   5.644  1.00  0.00     0.091 C
HETATM    2  C5  UNL     1       9.226  24.541   6.931  1.00  0.00     0.026 C
HETATM    3  C6  UNL     1      10.095  24.841   8.088  1.00  0.00     0.002 C
HETATM    4  C7  UNL     1      11.542  24.463   7.962  1.00  0.00     0.000 C
HETATM    5  C8  UNL     1      12.434  25.677   7.799  1.00  0.00     0.004 C
HETATM    6  C9  UNL     1      12.720  26.005   6.373  1.00  0.00     0.029 C
HETATM    7  C10 UNL     1      11.978  25.164   5.408  1.00  0.00    -0.000 C
HETATM    8  C11 UNL     1      10.732  24.843   5.072  1.00  0.00     0.029 C
HETATM    9  N1  UNL     1      10.903  23.907   4.000  1.00  0.00    -0.320 N
HETATM   10  C19 UNL     1       9.679  23.655   3.306  1.00  0.00     0.228 C
HETATM   11  O3  UNL     1       9.751  23.043   2.180  1.00  0.00    -0.273 OA
HETATM   12  C20 UNL     1       8.328  24.021   3.735  1.00  0.00     0.088 C
HETATM   13  C31 UNL     1       8.245  25.077   4.741  1.00  0.00     0.040 C
ENDROOT
BRANCH  12  14
HETATM   14  C21 UNL     1       7.547  24.387   2.459  1.00  0.00     0.117 C
BRANCH  14  15
HETATM   15  C22 UNL     1       6.166  24.831   2.723  1.00  0.00     0.218 C
HETATM   16  O4  UNL     1       5.761  25.925   2.264  1.00  0.00    -0.274 OA
HETATM   17  N2  UNL     1       5.351  23.977   3.499  1.00  0.00    -0.359 N
ATOM     18  H2  UNL     1       5.736  23.097   3.843  1.00  0.00     0.162 HD
BRANCH  17  19
HETATM   19  C23 UNL     1       3.999  24.321   3.813  1.00  0.00     0.152 C
BRANCH  19  20
HETATM   20  C24 UNL     1       3.925  25.038   5.128  1.00  0.00     0.292 C
BRANCH  20  21
HETATM   21  N3  UNL     1       4.337  26.415   4.943  1.00  0.00     0.096 N
HETATM   22  C25 UNL     1       3.186  27.298   5.106  1.00  0.00     0.273 C
HETATM   23  C26 UNL     1       2.693  27.293   6.523  1.00  0.00     0.030 C
HETATM   24  C27 UNL     1       3.789  27.487   7.524  1.00  0.00     0.004 C
HETATM   25  C28 UNL     1       5.003  26.647   7.251  1.00  0.00     0.038 C
HETATM   26  C29 UNL     1       5.421  26.784   5.794  1.00  0.00     0.246 C
BRANCH  26  27
HETATM   27  C30 UNL     1       5.813  28.231   5.549  1.00  0.00     0.199 C
BRANCH  27  28
HETATM   28  O5  UNL     1       6.527  28.280   4.332  1.00  0.00    -0.399 OA
ATOM     29  H5  UNL     1       7.420  28.533   4.533  1.00  0.00     0.209 HD
ENDBRANCH  27  28
ENDBRANCH  26  27
ENDBRANCH  20  21
ENDBRANCH  19  20
ENDBRANCH  17  19
ENDBRANCH  14  15
ENDBRANCH  12  14
BRANCH   9  30
HETATM   30  C12 UNL     1      12.137  23.262   3.663  1.00  0.00     0.136 C
BRANCH  30  31
HETATM   31  C13 UNL     1      12.243  21.785   3.863  1.00  0.00     0.004 C
HETATM   32  C14 UNL     1      11.939  21.521   5.336  1.00  0.00     0.006 C
HETATM   33  C15 UNL     1      13.122  21.756   6.224  1.00  0.00     0.000 C
HETATM   34  C16 UNL     1      14.201  20.759   5.778  1.00  0.00     0.000 C
HETATM   35  C17 UNL     1      14.628  21.198   4.412  1.00  0.00     0.000 C
HETATM   36  C18 UNL     1      13.514  21.203   3.409  1.00  0.00     0.006 C
ENDBRANCH  30  31
ENDBRANCH   9  30
BRANCH   1  37
HETATM   37  C3  UNL     1       9.428  26.760   5.867  1.00  0.00     0.273 C
HETATM   38  O2  UNL     1       9.271  27.562   4.941  1.00  0.00    -0.264 OA
BRANCH  37  39
HETATM   39  O1  UNL     1       9.591  27.243   7.151  1.00  0.00    -0.321 OA
BRANCH  39  40
HETATM   40  C2  UNL     1       8.706  28.180   7.690  1.00  0.00     0.174 C
HETATM   41  C1  UNL     1       8.137  27.857   9.026  1.00  0.00     0.034 C
ENDBRANCH  39  40
ENDBRANCH  37  39
ENDBRANCH   1  37
TORSDOF 12
ENDMDL