MODEL 3
REMARK VINA RESULT: -6.091657133      6.392      8.796
REMARK  12 active torsions:
REMARK  status: ('A' for Active; 'I' for Inactive)
REMARK    1  A    between atoms: N1_2  and  C2_3
REMARK    2  A    between atoms: N1_2  and  C15_32
REMARK    3  A    between atoms: C2_3  and  C3_4
REMARK    4  A    between atoms: C3_4  and  O1_5
REMARK    5  A    between atoms: C6_10  and  C7_11
REMARK    6  A    between atoms: C7_11  and  N2_12
REMARK       I    between atoms: N2_12  and  C8_14
REMARK    7  A    between atoms: C8_14  and  C9_16
REMARK    8  A    between atoms: C10_18  and  C11_19
REMARK    9  A    between atoms: C11_19  and  O4_20
REMARK   10  A    between atoms: C12_22  and  O5_23
REMARK   11  A    between atoms: C13_25  and  O6_26
REMARK   12  A    between atoms: C14_28  and  O7_29
ROOT
HETATM    1  N2  UNL     1      53.451  14.401  23.833  1.00  0.00    -0.356 N
ATOM      2  H2  UNL     1      53.896  15.289  24.063  1.00  0.00     0.162 HD
HETATM    3  C8  UNL     1      53.792  13.874  22.562  1.00  0.00     0.249 C
HETATM    4  O2  UNL     1      53.360  12.792  22.146  1.00  0.00    -0.271 OA
ENDROOT
BRANCH   1   5
HETATM    5  C7  UNL     1      52.591  13.890  24.828  1.00  0.00     0.155 C
BRANCH   5   6
HETATM    6  C6  UNL     1      52.449  14.676  26.076  1.00  0.00     0.152 C
HETATM    7  C5  UNL     1      51.323  14.367  26.947  1.00  0.00     0.107 C
HETATM    8  S1  UNL     1      51.303  15.736  28.208  1.00  0.00    -0.161 SA
HETATM    9  C4  UNL     1      53.043  16.005  28.591  1.00  0.00     0.144 C
HETATM   10  C3  UNL     1      53.816  14.869  27.985  1.00  0.00     0.197 C
HETATM   11  O8  UNL     1      53.715  14.732  26.657  1.00  0.00    -0.345 OA
BRANCH  10  12
HETATM   12  C2  UNL     1      55.286  14.899  28.389  1.00  0.00     0.341 C
BRANCH  12  13
HETATM   13  N1  UNL     1      56.199  14.519  27.368  1.00  0.00     0.094 N
HETATM   14  C1  UNL     1      57.008  13.396  27.765  1.00  0.00     0.310 C
BRANCH  13  15
HETATM   15  C15 UNL     1      57.015  15.681  27.043  1.00  0.00     0.222 C
HETATM   16  C16 UNL     1      56.594  16.377  25.792  1.00  0.00     0.036 C
HETATM   17  C17 UNL     1      57.431  17.659  25.694  1.00  0.00     0.002 C
HETATM   18  C18 UNL     1      58.836  17.245  25.348  1.00  0.00     0.000 C
HETATM   19  C19 UNL     1      59.118  15.810  25.666  1.00  0.00     0.002 C
HETATM   20  C20 UNL     1      58.475  15.334  26.930  1.00  0.00     0.036 C
ENDBRANCH  13  15
ENDBRANCH  12  13
ENDBRANCH  10  12
BRANCH  10  21
HETATM   21  O1  UNL     1      53.318  13.697  28.614  1.00  0.00    -0.363 OA
ATOM     22  H1  UNL     1      52.752  14.032  29.298  1.00  0.00     0.213 HD
ENDBRANCH  10  21
ENDBRANCH   5   6
ENDBRANCH   1   5
BRANCH   3  23
HETATM   23  C9  UNL     1      54.718  14.693  21.729  1.00  0.00     0.245 C
HETATM   24  O3  UNL     1      55.901  14.029  21.431  1.00  0.00    -0.364 OA
HETATM   25  C10 UNL     1      56.830  14.963  21.008  1.00  0.00     0.177 C
HETATM   26  C12 UNL     1      56.381  15.959  20.018  1.00  0.00     0.180 C
HETATM   27  C13 UNL     1      54.931  16.238  19.892  1.00  0.00     0.181 C
HETATM   28  C14 UNL     1      54.137  15.041  20.367  1.00  0.00     0.187 C
BRANCH  25  29
HETATM   29  C11 UNL     1      57.483  15.574  22.242  1.00  0.00     0.198 C
BRANCH  29  30
HETATM   30  O4  UNL     1      58.815  15.847  21.903  1.00  0.00    -0.398 OA
ATOM     31  H4  UNL     1      59.153  16.436  22.567  1.00  0.00     0.209 HD
ENDBRANCH  29  30
ENDBRANCH  25  29
BRANCH  26  32
HETATM   32  O5  UNL     1      57.067  17.167  20.321  1.00  0.00    -0.390 OA
ATOM     33  H5  UNL     1      56.623  17.857  19.843  1.00  0.00     0.210 HD
ENDBRANCH  26  32
BRANCH  27  34
HETATM   34  O6  UNL     1      54.524  17.315  20.713  1.00  0.00    -0.390 OA
ATOM     35  H6  UNL     1      53.670  17.650  20.465  1.00  0.00     0.210 HD
ENDBRANCH  27  34
BRANCH  28  36
HETATM   36  O7  UNL     1      52.783  15.248  20.375  1.00  0.00    -0.390 OA
ATOM     37  H7  UNL     1      52.504  16.006  19.875  1.00  0.00     0.210 HD
ENDBRANCH  28  36
ENDBRANCH   3  23
TORSDOF 12
ENDMDL