MODEL 4
REMARK VINA RESULT: -6.561238679      2.938      5.338
REMARK  14 active torsions:
REMARK  status: ('A' for Active; 'I' for Inactive)
REMARK    1  A    between atoms: O1_2  and  C2_3
REMARK    2  A    between atoms: C2_3  and  C3_5
REMARK    3  A    between atoms: C4_6  and  C5_7
REMARK    4  A    between atoms: C6_8  and  C8_10
REMARK    5  A    between atoms: C8_10  and  C9_11
REMARK    6  A    between atoms: C8_10  and  O9_35
REMARK    7  A    between atoms: C10_12  and  C11_13
REMARK    8  A    between atoms: C15_17  and  O3_18
REMARK    9  A    between atoms: C16_20  and  O4_21
REMARK   10  A    between atoms: O4_21  and  C17_22
REMARK   11  A    between atoms: C20_26  and  O6_27
REMARK   12  A    between atoms: C21_29  and  O7_30
REMARK   13  A    between atoms: C22_32  and  O8_33
REMARK   14  A    between atoms: O9_35  and  N1_36
ROOT
HETATM    1  C11 UNL     1      55.055  14.897  21.659  1.00  0.00     0.040 C
HETATM    2  C12 UNL     1      55.454  14.840  20.170  1.00  0.00     0.018 C
HETATM    3  C13 UNL     1      56.218  16.168  20.084  1.00  0.00     0.013 C
HETATM    4  C14 UNL     1      55.182  17.240  19.824  1.00  0.00     0.012 C
HETATM    5  C15 UNL     1      56.774  16.410  21.476  1.00  0.00     0.151 C
HETATM    6  C16 UNL     1      56.470  15.094  22.226  1.00  0.00     0.161 C
ENDROOT
BRANCH   1   7
HETATM    7  C10 UNL     1      54.393  13.695  22.105  1.00  0.00    -0.021 C
HETATM    8  C9  UNL     1      53.974  13.352  23.281  1.00  0.00     0.008 C
BRANCH   8   9
HETATM    9  C8  UNL     1      54.033  14.080  24.564  1.00  0.00     0.203 C
BRANCH   9  10
HETATM   10  C6  UNL     1      52.712  14.139  25.244  1.00  0.00    -0.049 C
HETATM   11  C5  UNL     1      52.645  14.628  26.462  1.00  0.00     0.006 C
HETATM   12  C7  UNL     1      51.500  13.660  24.569  1.00  0.00     0.046 C
BRANCH  11  13
HETATM   13  C4  UNL     1      51.340  14.676  27.112  1.00  0.00     0.006 C
HETATM   14  C3  UNL     1      51.132  15.460  28.177  1.00  0.00     0.082 C
BRANCH  14  15
HETATM   15  C2  UNL     1      49.855  15.533  28.844  1.00  0.00     0.282 C
HETATM   16  O2  UNL     1      49.507  14.664  29.676  1.00  0.00    -0.260 OA
BRANCH  15  17
HETATM   17  O1  UNL     1      48.995  16.574  28.568  1.00  0.00    -0.323 OA
HETATM   18  C1  UNL     1      49.456  17.835  28.188  1.00  0.00     0.213 C
ENDBRANCH  15  17
ENDBRANCH  14  15
ENDBRANCH  11  13
ENDBRANCH   9  10
BRANCH   9  19
HETATM   19  O9  UNL     1      54.954  13.610  25.472  1.00  0.00    -0.274 OA
BRANCH  19  20
HETATM   20  N1  UNL     1      55.944  14.480  25.625  1.00  0.00    -0.310 N
ATOM     21  H12 UNL     1      55.820  15.493  25.606  1.00  0.00     0.184 HD
ATOM     22  H11 UNL     1      56.831  13.995  25.761  1.00  0.00     0.184 HD
ENDBRANCH  19  20
ENDBRANCH   9  19
ENDBRANCH   8   9
ENDBRANCH   1   7
BRANCH   6  23
HETATM   23  O4  UNL     1      57.298  14.087  21.805  1.00  0.00    -0.350 OA
BRANCH  23  24
HETATM   24  C17 UNL     1      58.098  13.543  22.784  1.00  0.00     0.292 C
HETATM   25  O5  UNL     1      59.413  13.503  22.316  1.00  0.00    -0.351 OA
HETATM   26  C18 UNL     1      59.552  12.655  21.225  1.00  0.00     0.152 C
HETATM   27  C19 UNL     1      61.011  12.785  20.770  1.00  0.00     0.042 C
HETATM   28  C20 UNL     1      59.304  11.217  21.551  1.00  0.00     0.178 C
HETATM   29  C21 UNL     1      58.794  11.147  22.981  1.00  0.00     0.183 C
HETATM   30  C22 UNL     1      57.669  12.154  23.094  1.00  0.00     0.204 C
BRANCH  28  31
HETATM   31  O6  UNL     1      60.445  10.436  21.382  1.00  0.00    -0.390 OA
ATOM     32  H6  UNL     1      60.476   9.710  21.994  1.00  0.00     0.210 HD
ENDBRANCH  28  31
BRANCH  29  33
HETATM   33  O7  UNL     1      59.815  11.363  23.876  1.00  0.00    -0.390 OA
ATOM     34  H7  UNL     1      59.479  11.429  24.762  1.00  0.00     0.210 HD
ENDBRANCH  29  33
BRANCH  30  35
HETATM   35  O8  UNL     1      57.093  12.029  24.360  1.00  0.00    -0.388 OA
ATOM     36  H8  UNL     1      57.727  12.084  25.065  1.00  0.00     0.210 HD
ENDBRANCH  30  35
ENDBRANCH  23  24
ENDBRANCH   6  23
BRANCH   5  37
HETATM   37  O3  UNL     1      58.115  16.695  21.480  1.00  0.00    -0.393 OA
ATOM     38  H3  UNL     1      58.641  16.016  21.885  1.00  0.00     0.210 HD
ENDBRANCH   5  37
TORSDOF 14
ENDMDL