MODEL 3
REMARK VINA RESULT: -5.658758909      1.068      2.128
REMARK  15 active torsions:
REMARK  status: ('A' for Active; 'I' for Inactive)
REMARK    1  A    between atoms: C2_2  and  C3_3
REMARK    2  A    between atoms: C2_2  and  C10_20
REMARK    3  A    between atoms: C3_3  and  O1_4
REMARK    4  A    between atoms: O1_4  and  C4_5
REMARK    5  A    between atoms: C5_7  and  C6_8
REMARK    6  A    between atoms: C6_8  and  O3_9
REMARK    7  A    between atoms: C7_11  and  O4_12
REMARK    8  A    between atoms: C8_14  and  O5_15
REMARK    9  A    between atoms: C9_17  and  O6_18
REMARK   10  A    between atoms: C11_22  and  C12_23
REMARK   11  A    between atoms: C12_23  and  O8_24
REMARK   12  A    between atoms: C14_27  and  N1_28
REMARK   13  A    between atoms: C19_36  and  N2_37
REMARK   14  A    between atoms: N2_37  and  N3_39
REMARK   15  A    between atoms: N3_39  and  N4_40
ROOT
HETATM    1  C10 UNL     1      56.078  13.604  21.389  1.00  0.00     0.296 C
HETATM    2  O7  UNL     1      54.723  13.786  21.261  1.00  0.00    -0.339 OA
HETATM    3  C11 UNL     1      54.334  14.813  22.076  1.00  0.00     0.140 C
HETATM    4  C13 UNL     1      53.397  14.368  23.201  1.00  0.00     0.084 C
HETATM    5  C14 UNL     1      54.287  14.241  24.348  1.00  0.00     0.135 C
HETATM    6  C15 UNL     1      53.796  14.565  25.702  1.00  0.00     0.039 C
HETATM    7  C16 UNL     1      55.117  14.924  26.404  1.00  0.00     0.003 C
HETATM    8  C17 UNL     1      56.078  15.339  25.276  1.00  0.00     0.012 C
HETATM    9  C18 UNL     1      55.172  15.490  24.141  1.00  0.00     0.083 C
HETATM   10  C19 UNL     1      55.614  15.302  22.773  1.00  0.00     0.202 C
HETATM   11  O9  UNL     1      56.490  14.290  22.520  1.00  0.00    -0.321 OA
ENDROOT
BRANCH   1  12
HETATM   12  C2  UNL     1      56.854  13.957  20.174  1.00  0.00    -0.011 C
HETATM   13  C1  UNL     1      56.431  14.826  19.272  1.00  0.00     0.021 C
BRANCH  12  14
HETATM   14  C3  UNL     1      58.168  13.292  19.975  1.00  0.00     0.209 C
BRANCH  14  15
HETATM   15  O1  UNL     1      59.226  14.161  20.021  1.00  0.00    -0.354 OA
BRANCH  15  16
HETATM   16  C4  UNL     1      59.521  14.522  21.329  1.00  0.00     0.291 C
HETATM   17  O2  UNL     1      60.582  15.392  21.426  1.00  0.00    -0.348 OA
HETATM   18  C5  UNL     1      61.824  14.845  21.328  1.00  0.00     0.179 C
HETATM   19  C7  UNL     1      62.085  13.662  22.201  1.00  0.00     0.180 C
HETATM   20  C8  UNL     1      61.019  12.627  22.016  1.00  0.00     0.183 C
HETATM   21  C9  UNL     1      59.686  13.278  22.166  1.00  0.00     0.204 C
BRANCH  18  22
HETATM   22  C6  UNL     1      62.244  14.533  19.909  1.00  0.00     0.198 C
BRANCH  22  23
HETATM   23  O3  UNL     1      61.850  15.608  19.086  1.00  0.00    -0.398 OA
ATOM     24  H3  UNL     1      62.109  16.417  19.512  1.00  0.00     0.209 HD
ENDBRANCH  22  23
ENDBRANCH  18  22
BRANCH  19  25
HETATM   25  O4  UNL     1      63.365  13.176  21.895  1.00  0.00    -0.390 OA
ATOM     26  H4  UNL     1      63.261  12.336  21.462  1.00  0.00     0.210 HD
ENDBRANCH  19  25
BRANCH  20  27
HETATM   27  O5  UNL     1      61.149  11.902  20.832  1.00  0.00    -0.390 OA
ATOM     28  H5  UNL     1      61.004  12.425  20.051  1.00  0.00     0.210 HD
ENDBRANCH  20  27
BRANCH  21  29
HETATM   29  O6  UNL     1      59.434  13.533  23.508  1.00  0.00    -0.388 OA
ATOM     30  H6  UNL     1      60.174  13.290  24.052  1.00  0.00     0.210 HD
ENDBRANCH  21  29
ENDBRANCH  15  16
ENDBRANCH  14  15
ENDBRANCH  12  14
ENDBRANCH   1  12
BRANCH   3  31
HETATM   31  C12 UNL     1      53.658  15.941  21.344  1.00  0.00     0.207 C
BRANCH  31  32
HETATM   32  O8  UNL     1      52.855  15.365  20.360  1.00  0.00    -0.398 OA
ATOM     33  H8  UNL     1      52.154  15.979  20.180  1.00  0.00     0.209 HD
ENDBRANCH  31  32
ENDBRANCH   3  31
BRANCH  10  34
HETATM   34  N2  UNL     1      55.968  16.558  22.161  1.00  0.00    -0.213 N
ATOM     35  H2  UNL     1      55.239  17.107  21.706  1.00  0.00     0.200 HD
BRANCH  34  36
HETATM   36  N3  UNL     1      57.108  16.986  22.167  1.00  0.00    -0.245 NA
BRANCH  36  37
HETATM   37  N4  UNL     1      58.313  17.150  22.389  1.00  0.00    -0.261 N
ATOM     38  H42 UNL     1      58.309  18.128  22.098  1.00  0.00     0.193 HD
ATOM     39  H41 UNL     1      59.288  17.009  22.650  1.00  0.00     0.193 HD
ENDBRANCH  36  37
ENDBRANCH  34  36
ENDBRANCH  10  34
BRANCH   5  40
HETATM   40  N1  UNL     1      55.079  13.043  24.405  1.00  0.00    -0.070 N
ATOM     41  H13 UNL     1      54.495  12.256  24.689  1.00  0.00     0.275 HD
ATOM     42  H12 UNL     1      55.334  12.752  23.462  1.00  0.00     0.275 HD
ATOM     43  H11 UNL     1      55.913  13.083  24.992  1.00  0.00     0.275 HD
ENDBRANCH   5  40
TORSDOF 15
ENDMDL