MODEL 3
REMARK VINA RESULT: -5.746433293      5.386      9.011
REMARK  11 active torsions:
REMARK  status: ('A' for Active; 'I' for Inactive)
REMARK    1  A    between atoms: C1_2  and  C2_3
REMARK    2  A    between atoms: C1_2  and  C12_14
REMARK    3  A    between atoms: C2_3  and  C3_4
REMARK    4  A    between atoms: C3_4  and  C4_5
REMARK    5  A    between atoms: C4_5  and  C5_6
REMARK    6  A    between atoms: C5_6  and  C6_7
REMARK    7  A    between atoms: C6_7  and  N1_8
REMARK       I    between atoms: N3_22  and  C17_23
REMARK    8  A    between atoms: C17_23  and  C18_25
REMARK    9  A    between atoms: C18_25  and  O3_26
REMARK   10  A    between atoms: C20_32  and  O4_33
REMARK   11  A    between atoms: C21_35  and  O5_36
ROOT
HETATM    1  C12 UNL     1      53.346  13.074  23.125  1.00  0.00     0.195 C
HETATM    2  C13 UNL     1      54.672  12.658  23.754  1.00  0.00     0.077 C
HETATM    3  C14 UNL     1      55.586  13.730  23.260  1.00  0.00     0.237 C
HETATM    4  N2  UNL     1      56.534  14.222  24.204  1.00  0.00    -0.065 N
ATOM      5  H21 UNL     1      57.127  13.487  24.590  1.00  0.00     0.277 HD
ATOM      6  H22 UNL     1      56.103  14.520  25.080  1.00  0.00     0.277 HD
HETATM    7  C15 UNL     1      57.297  15.287  23.552  1.00  0.00     0.253 C
HETATM    8  C16 UNL     1      56.352  16.424  23.152  1.00  0.00     0.156 C
HETATM    9  N3  UNL     1      55.279  15.881  22.335  1.00  0.00    -0.318 N
HETATM   10  C17 UNL     1      54.970  16.277  21.024  1.00  0.00     0.288 C
HETATM   11  O2  UNL     1      53.970  15.675  20.494  1.00  0.00    -0.268 OA
HETATM   12  C22 UNL     1      54.550  14.852  23.056  1.00  0.00     0.257 C
HETATM   13  O6  UNL     1      53.598  14.199  22.346  1.00  0.00    -0.352 OA
ENDROOT
BRANCH  10  14
HETATM   14  C18 UNL     1      55.647  17.277  20.212  1.00  0.00     0.334 C
HETATM   15  N4  UNL     1      55.568  17.018  18.791  1.00  0.00    -0.028 N
HETATM   16  C19 UNL     1      55.666  18.277  18.121  1.00  0.00     0.271 C
ATOM     17  H42 UNL     1      56.262  16.341  18.471  1.00  0.00     0.281 HD
ATOM     18  H41 UNL     1      54.736  16.490  18.528  1.00  0.00     0.281 HD
HETATM   19  C20 UNL     1      55.612  19.379  19.121  1.00  0.00     0.178 C
HETATM   20  C21 UNL     1      55.147  18.696  20.393  1.00  0.00     0.221 C
BRANCH  14  21
HETATM   21  O3  UNL     1      57.019  17.338  20.525  1.00  0.00    -0.356 OA
ATOM     22  H3  UNL     1      57.539  17.503  19.747  1.00  0.00     0.213 HD
ENDBRANCH  14  21
BRANCH  19  23
HETATM   23  O4  UNL     1      54.745  20.402  18.744  1.00  0.00    -0.391 OA
ATOM     24  H4  UNL     1      55.163  21.047  18.185  1.00  0.00     0.210 HD
ENDBRANCH  19  23
BRANCH  20  25
HETATM   25  O5  UNL     1      55.821  19.356  21.450  1.00  0.00    -0.387 OA
ATOM     26  H5  UNL     1      55.269  19.438  22.220  1.00  0.00     0.210 HD
ENDBRANCH  20  25
ENDBRANCH  10  14
BRANCH   1  27
HETATM   27  C1  UNL     1      52.329  13.411  24.138  1.00  0.00     0.155 C
HETATM   28  O1  UNL     1      51.207  12.962  23.985  1.00  0.00    -0.295 OA
BRANCH  27  29
HETATM   29  C2  UNL     1      52.625  14.269  25.324  1.00  0.00     0.081 C
BRANCH  29  30
HETATM   30  C3  UNL     1      51.465  14.414  26.255  1.00  0.00     0.007 C
BRANCH  30  31
HETATM   31  C4  UNL     1      51.864  14.413  27.685  1.00  0.00     0.002 C
BRANCH  31  32
HETATM   32  C5  UNL     1      50.776  14.878  28.615  1.00  0.00     0.030 C
BRANCH  32  33
HETATM   33  C6  UNL     1      50.240  16.232  28.228  1.00  0.00     0.272 C
BRANCH  33  34
HETATM   34  N1  UNL     1      49.924  17.099  29.309  1.00  0.00     0.088 N
HETATM   35  C7  UNL     1      51.171  17.597  29.865  1.00  0.00     0.272 C
HETATM   36  C8  UNL     1      51.842  18.557  28.944  1.00  0.00     0.030 C
HETATM   37  C9  UNL     1      50.970  19.657  28.433  1.00  0.00     0.003 C
HETATM   38  C10 UNL     1      49.657  19.095  27.918  1.00  0.00     0.030 C
HETATM   39  C11 UNL     1      49.040  18.155  28.934  1.00  0.00     0.272 C
ENDBRANCH  33  34
ENDBRANCH  32  33
ENDBRANCH  31  32
ENDBRANCH  30  31
ENDBRANCH  29  30
ENDBRANCH  27  29
ENDBRANCH   1  27
TORSDOF 11
ENDMDL