MODEL 5
REMARK VINA RESULT: -6.904502363      2.770      3.062
REMARK  9 active torsions:
REMARK  status: ('A' for Active; 'I' for Inactive)
REMARK    1  A    between atoms: C2_2  and  N1_3
REMARK    2  A    between atoms: N1_3  and  C3_6
REMARK    3  A    between atoms: C3_6  and  C4_7
REMARK    4  A    between atoms: C4_7  and  C5_9
REMARK    5  A    between atoms: C5_9  and  N2_10
REMARK    6  A    between atoms: C5_9  and  N4_16
REMARK    7  A    between atoms: N2_10  and  O2_12
REMARK    8  A    between atoms: O2_12  and  C6_13
REMARK       I    between atoms: N4_16  and  C7_18
REMARK    9  A    between atoms: C7_18  and  C8_20
ROOT
HETATM    1  N4  UNL     1      57.089  15.799  21.913  1.00  0.00    -0.307 N
ATOM      2  H4  UNL     1      58.025  15.499  21.640  1.00  0.00     0.170 HD
HETATM    3  C7  UNL     1      56.986  15.604  23.275  1.00  0.00     0.245 C
HETATM    4  O4  UNL     1      56.050  15.961  24.001  1.00  0.00    -0.271 OA
ENDROOT
BRANCH   3   5
HETATM    5  C8  UNL     1      58.115  14.864  24.025  1.00  0.00     0.169 C
HETATM    6  C9  UNL     1      58.472  13.760  23.101  1.00  0.00     0.034 C
HETATM    7  C10 UNL     1      57.493  12.577  23.383  1.00  0.00     0.002 C
HETATM    8  C11 UNL     1      58.057  11.624  24.368  1.00  0.00     0.002 C
HETATM    9  C12 UNL     1      57.098  11.122  25.402  1.00  0.00     0.026 C
HETATM   10  C13 UNL     1      57.312  11.811  26.758  1.00  0.00     0.167 C
HETATM   11  O5  UNL     1      58.657  11.708  27.131  1.00  0.00    -0.391 OA
HETATM   12  C14 UNL     1      58.891  10.618  27.946  1.00  0.00     0.169 C
HETATM   13  C15 UNL     1      60.333  10.584  28.359  1.00  0.00     0.052 C
HETATM   14  C16 UNL     1      61.100  11.833  28.039  1.00  0.00     0.169 C
HETATM   15  O6  UNL     1      61.959  11.691  26.964  1.00  0.00    -0.389 OA
HETATM   16  C17 UNL     1      62.746  12.838  26.846  1.00  0.00     0.193 C
HETATM   17  C18 UNL     1      62.949  13.278  25.435  1.00  0.00     0.193 C
HETATM   18  O7  UNL     1      62.435  14.569  25.170  1.00  0.00    -0.387 OA
HETATM   19  C19 UNL     1      61.021  14.493  25.193  1.00  0.00     0.186 C
HETATM   20  C20 UNL     1      60.411  15.484  24.281  1.00  0.00     0.141 C
HETATM   21  N5  UNL     1      59.009  15.728  24.590  1.00  0.00    -0.407 N
ATOM     22  H5  UNL     1      58.713  16.496  25.191  1.00  0.00     0.154 HD
ENDBRANCH   3   5
BRANCH   1  23
HETATM   23  C5  UNL     1      56.454  16.228  20.771  1.00  0.00     0.176 C
BRANCH  23  24
HETATM   24  C4  UNL     1      55.298  15.570  20.151  1.00  0.00     0.220 C
HETATM   25  O1  UNL     1      55.592  14.808  19.174  1.00  0.00    -0.287 OA
BRANCH  24  26
HETATM   26  C3  UNL     1      53.879  15.607  20.448  1.00  0.00     0.319 C
BRANCH  26  27
HETATM   27  N1  UNL     1      53.695  15.222  21.888  1.00  0.00    -0.069 N
ATOM     28  H12 UNL     1      52.821  15.570  22.281  1.00  0.00     0.277 HD
ATOM     29  H11 UNL     1      54.331  15.716  22.514  1.00  0.00     0.277 HD
BRANCH  27  30
HETATM   30  C2  UNL     1      53.817  13.805  21.981  1.00  0.00     0.228 C
HETATM   31  C1  UNL     1      53.777  13.351  23.415  1.00  0.00     0.034 C
ENDBRANCH  27  30
ENDBRANCH  26  27
ENDBRANCH  24  26
ENDBRANCH  23  24
BRANCH  23  32
HETATM   32  N2  UNL     1      56.310  17.657  20.802  1.00  0.00    -0.237 N
ATOM     33  H2  UNL     1      56.005  18.115  21.661  1.00  0.00     0.197 HD
BRANCH  32  34
HETATM   34  O2  UNL     1      56.567  18.381  19.733  1.00  0.00    -0.182 OA
BRANCH  34  35
HETATM   35  C6  UNL     1      55.581  19.339  19.360  1.00  0.00     0.394 C
HETATM   36  N3  UNL     1      55.391  19.678  17.996  1.00  0.00    -0.031 NA
HETATM   37  O3  UNL     1      54.877  19.879  20.251  1.00  0.00    -0.240 OA
ENDBRANCH  34  35
ENDBRANCH  32  34
ENDBRANCH  23  32
ENDBRANCH   1  23
TORSDOF 9
ENDMDL