MODEL 2
REMARK VINA RESULT: -5.745523831      1.187      1.991
REMARK  13 active torsions:
REMARK  status: ('A' for Active; 'I' for Inactive)
REMARK    1  A    between atoms: O1_1  and  C1_3
REMARK    2  A    between atoms: C1_3  and  C2_4
REMARK    3  A    between atoms: C3_6  and  O3_7
REMARK    4  A    between atoms: O3_7  and  C4_8
REMARK    5  A    between atoms: C5_10  and  C6_11
REMARK    6  A    between atoms: C6_11  and  O5_12
REMARK    7  A    between atoms: C7_14  and  O6_15
REMARK    8  A    between atoms: C8_17  and  O7_18
REMARK    9  A    between atoms: C9_20  and  O8_21
REMARK   10  A    between atoms: C10_23  and  O9_24
REMARK   11  A    between atoms: O9_24  and  C11_25
REMARK   12  A    between atoms: C11_25  and  C12_26
REMARK   13  A    between atoms: C22_36  and  O10_37
ROOT
HETATM    1  C2  UNL     1      53.285  14.888  26.632  1.00  0.00     0.177 C
HETATM    2  O2  UNL     1      53.621  13.936  25.683  1.00  0.00    -0.349 OA
HETATM    3  C3  UNL     1      54.775  14.377  24.951  1.00  0.00     0.292 C
HETATM    4  C10 UNL     1      55.921  14.328  25.912  1.00  0.00     0.179 C
HETATM    5  C21 UNL     1      55.645  15.519  26.879  1.00  0.00     0.071 C
HETATM    6  C22 UNL     1      54.383  15.144  27.616  1.00  0.00     0.151 C
ENDROOT
BRANCH   3   7
HETATM    7  O3  UNL     1      54.923  13.513  23.903  1.00  0.00    -0.326 OA
BRANCH   7   8
HETATM    8  C4  UNL     1      55.058  14.183  22.678  1.00  0.00     0.294 C
HETATM    9  O4  UNL     1      54.867  15.547  22.996  1.00  0.00    -0.348 OA
HETATM   10  C5  UNL     1      55.337  16.354  21.961  1.00  0.00     0.179 C
HETATM   11  C7  UNL     1      55.442  15.611  20.658  1.00  0.00     0.180 C
HETATM   12  C8  UNL     1      54.243  14.747  20.451  1.00  0.00     0.183 C
HETATM   13  C9  UNL     1      54.139  13.766  21.602  1.00  0.00     0.204 C
BRANCH  10  14
HETATM   14  C6  UNL     1      56.656  16.994  22.299  1.00  0.00     0.198 C
BRANCH  14  15
HETATM   15  O5  UNL     1      57.647  16.669  21.379  1.00  0.00    -0.398 OA
ATOM     16  H5  UNL     1      58.040  17.441  20.988  1.00  0.00     0.209 HD
ENDBRANCH  14  15
ENDBRANCH  10  14
BRANCH  11  17
HETATM   17  O6  UNL     1      55.506  16.503  19.573  1.00  0.00    -0.390 OA
ATOM     18  H6  UNL     1      56.179  16.240  18.956  1.00  0.00     0.210 HD
ENDBRANCH  11  17
BRANCH  12  19
HETATM   19  O7  UNL     1      53.126  15.585  20.442  1.00  0.00    -0.390 OA
ATOM     20  H7  UNL     1      53.207  16.168  21.187  1.00  0.00     0.210 HD
ENDBRANCH  12  19
BRANCH  13  21
HETATM   21  O8  UNL     1      52.794  13.787  21.985  1.00  0.00    -0.388 OA
ATOM     22  H8  UNL     1      52.195  13.681  21.256  1.00  0.00     0.210 HD
ENDBRANCH  13  21
ENDBRANCH   7   8
ENDBRANCH   3   7
BRANCH   4  23
HETATM   23  O9  UNL     1      57.073  14.242  25.466  1.00  0.00    -0.380 OA
BRANCH  23  24
HETATM   24  C11 UNL     1      58.223  14.175  25.008  1.00  0.00     0.173 C
BRANCH  24  25
HETATM   25  C12 UNL     1      58.717  12.736  24.835  1.00  0.00     0.018 C
HETATM   26  C13 UNL     1      60.105  12.695  24.206  1.00  0.00    -0.007 C
HETATM   27  C14 UNL     1      60.270  11.213  24.006  1.00  0.00     0.010 C
HETATM   28  C19 UNL     1      59.798  13.304  22.855  1.00  0.00     0.010 C
HETATM   29  C15 UNL     1      58.875  10.771  23.611  1.00  0.00    -0.009 C
HETATM   30  C16 UNL     1      58.904  10.451  22.133  1.00  0.00     0.005 C
HETATM   31  C20 UNL     1      57.997  12.022  23.713  1.00  0.00     0.000 C
HETATM   32  C17 UNL     1      58.581  11.743  21.419  1.00  0.00     0.005 C
HETATM   33  C18 UNL     1      58.410  12.778  22.507  1.00  0.00    -0.009 C
ENDBRANCH  24  25
ENDBRANCH  23  24
ENDBRANCH   4  23
BRANCH   1  34
HETATM   34  C1  UNL     1      52.012  14.471  27.297  1.00  0.00     0.198 C
BRANCH  34  35
HETATM   35  O1  UNL     1      50.964  14.475  26.358  1.00  0.00    -0.398 OA
ATOM     36  H1  UNL     1      50.225  13.988  26.702  1.00  0.00     0.209 HD
ENDBRANCH  34  35
ENDBRANCH   1  34
BRANCH   6  37
HETATM   37  O10 UNL     1      54.680  14.004  28.379  1.00  0.00    -0.393 OA
ATOM     38  H10 UNL     1      55.558  13.682  28.210  1.00  0.00     0.210 HD
ENDBRANCH   6  37
TORSDOF 13
ENDMDL