MODEL 3
REMARK VINA RESULT: -5.681743109      3.280      5.329
REMARK  13 active torsions:
REMARK  status: ('A' for Active; 'I' for Inactive)
REMARK    1  A    between atoms: C2_2  and  C3_3
REMARK    2  A    between atoms: C3_3  and  N1_4
REMARK    3  A    between atoms: N1_4  and  C4_7
REMARK    4  A    between atoms: C6_9  and  C7_10
REMARK    5  A    between atoms: C7_10  and  O1_11
REMARK    6  A    between atoms: C10_16  and  C11_17
REMARK    7  A    between atoms: C13_19  and  O3_20
REMARK    8  A    between atoms: O3_20  and  C14_21
REMARK    9  A    between atoms: C15_23  and  C16_24
REMARK   10  A    between atoms: C16_24  and  N2_25
REMARK   11  A    between atoms: C17_29  and  O5_30
REMARK   12  A    between atoms: C18_32  and  O6_33
REMARK   13  A    between atoms: C19_35  and  O7_36
ROOT
HETATM    1  C4  UNL     1      57.354  14.799  26.559  1.00  0.00     0.237 C
HETATM    2  C5  UNL     1      57.246  15.734  25.373  1.00  0.00     0.082 C
HETATM    3  C6  UNL     1      57.360  14.473  24.513  1.00  0.00     0.007 C
HETATM    4  C8  UNL     1      56.022  13.852  24.441  1.00  0.00     0.084 C
HETATM    5  C9  UNL     1      55.364  13.906  25.794  1.00  0.00     0.271 C
HETATM    6  O2  UNL     1      54.385  14.874  25.749  1.00  0.00    -0.353 OA
HETATM    7  C10 UNL     1      53.840  14.837  24.467  1.00  0.00     0.154 C
HETATM    8  C13 UNL     1      55.028  14.526  23.556  1.00  0.00     0.163 C
HETATM    9  O8  UNL     1      56.187  14.145  26.843  1.00  0.00    -0.322 OA
HETATM   10  C20 UNL     1      58.179  13.892  25.660  1.00  0.00     0.021 C
HETATM   11  C21 UNL     1      58.027  12.435  25.924  1.00  0.00     0.020 C
HETATM   12  C22 UNL     1      59.636  14.284  25.593  1.00  0.00     0.020 C
ENDROOT
BRANCH   8  13
HETATM   13  O3  UNL     1      54.486  13.659  22.580  1.00  0.00    -0.350 OA
BRANCH  13  14
HETATM   14  C14 UNL     1      54.552  14.182  21.295  1.00  0.00     0.292 C
HETATM   15  O4  UNL     1      55.894  14.304  20.872  1.00  0.00    -0.349 OA
HETATM   16  C15 UNL     1      55.833  14.781  19.558  1.00  0.00     0.181 C
HETATM   17  C17 UNL     1      55.498  16.264  19.578  1.00  0.00     0.180 C
HETATM   18  C18 UNL     1      54.730  16.614  20.840  1.00  0.00     0.183 C
HETATM   19  C19 UNL     1      53.816  15.474  21.250  1.00  0.00     0.204 C
BRANCH  16  20
HETATM   20  C16 UNL     1      57.108  14.496  18.805  1.00  0.00     0.264 C
BRANCH  20  21
HETATM   21  N2  UNL     1      57.761  13.369  19.467  1.00  0.00    -0.077 N
ATOM     22  H23 UNL     1      57.393  13.187  20.401  1.00  0.00     0.274 HD
ATOM     23  H22 UNL     1      57.519  12.469  19.052  1.00  0.00     0.274 HD
ATOM     24  H21 UNL     1      58.764  13.554  19.462  1.00  0.00     0.274 HD
ENDBRANCH  20  21
ENDBRANCH  16  20
BRANCH  17  25
HETATM   25  O5  UNL     1      56.699  16.967  19.617  1.00  0.00    -0.390 OA
ATOM     26  H5  UNL     1      56.915  17.116  20.530  1.00  0.00     0.210 HD
ENDBRANCH  17  25
BRANCH  18  27
HETATM   27  O6  UNL     1      55.622  16.918  21.835  1.00  0.00    -0.390 OA
ATOM     28  H6  UNL     1      55.330  16.515  22.644  1.00  0.00     0.210 HD
ENDBRANCH  18  27
BRANCH  19  29
HETATM   29  O7  UNL     1      52.764  15.422  20.332  1.00  0.00    -0.388 OA
ATOM     30  H7  UNL     1      52.717  16.222  19.821  1.00  0.00     0.210 HD
ENDBRANCH  19  29
ENDBRANCH  13  14
ENDBRANCH   8  13
BRANCH   7  31
HETATM   31  C11 UNL     1      52.843  13.695  24.420  1.00  0.00     0.030 C
HETATM   32  C12 UNL     1      51.611  14.069  25.219  1.00  0.00     0.007 C
ENDBRANCH   7  31
BRANCH   3  33
HETATM   33  C7  UNL     1      58.186  14.632  23.290  1.00  0.00     0.175 C
BRANCH  33  34
HETATM   34  O1  UNL     1      58.091  13.550  22.405  1.00  0.00    -0.400 OA
ATOM     35  H1  UNL     1      57.770  12.754  22.811  1.00  0.00     0.209 HD
ENDBRANCH  33  34
ENDBRANCH   3  33
BRANCH   1  36
HETATM   36  N1  UNL     1      58.039  15.407  27.659  1.00  0.00    -0.039 N
ATOM     37  H12 UNL     1      58.560  16.246  27.400  1.00  0.00     0.281 HD
ATOM     38  H11 UNL     1      58.836  14.865  27.991  1.00  0.00     0.281 HD
BRANCH  36  39
HETATM   39  C3  UNL     1      57.019  15.646  28.693  1.00  0.00     0.262 C
BRANCH  39  40
HETATM   40  C2  UNL     1      56.670  17.069  28.733  1.00  0.00    -0.010 C
HETATM   41  C1  UNL     1      55.499  17.470  28.259  1.00  0.00     0.008 C
ENDBRANCH  39  40
ENDBRANCH  36  39
ENDBRANCH   1  36
TORSDOF 13
ENDMDL