MODEL 1
REMARK VINA RESULT: -6.194842581      0.000      0.000
REMARK  11 active torsions:
REMARK  status: ('A' for Active; 'I' for Inactive)
REMARK    1  A    between atoms: C4_6  and  C5_7
REMARK    2  A    between atoms: C5_7  and  N1_8
REMARK    3  A    between atoms: N1_8  and  C6_10
REMARK    4  A    between atoms: C7_11  and  O3_12
REMARK    5  A    between atoms: C8_14  and  C9_15
REMARK    6  A    between atoms: C9_15  and  N2_16
REMARK    7  A    between atoms: N2_16  and  C10_18
REMARK    8  A    between atoms: C15_23  and  O4_24
REMARK    9  A    between atoms: C16_27  and  C17_28
REMARK   10  A    between atoms: C21_33  and  O7_34
REMARK   11  A    between atoms: C22_36  and  O8_37
ROOT
HETATM    1  C6  UNL     1      57.992  12.618  22.019  1.00  0.00     0.139 C
HETATM    2  C7  UNL     1      57.092  12.724  23.207  1.00  0.00     0.173 C
HETATM    3  C8  UNL     1      57.187  14.003  23.985  1.00  0.00     0.170 C
HETATM    4  O5  UNL     1      58.455  14.464  24.162  1.00  0.00    -0.371 OA
HETATM    5  C16 UNL     1      59.497  13.706  23.678  1.00  0.00     0.181 C
HETATM    6  C21 UNL     1      59.185  13.489  22.189  1.00  0.00     0.174 C
ENDROOT
BRANCH   1   7
HETATM    7  N1  UNL     1      57.366  12.633  20.748  1.00  0.00    -0.410 N
ATOM      8  H1  UNL     1      56.917  11.807  20.352  1.00  0.00     0.153 HD
BRANCH   7   9
HETATM    9  C5  UNL     1      57.405  13.888  20.055  1.00  0.00     0.149 C
BRANCH   9  10
HETATM   10  C4  UNL     1      56.292  14.837  20.453  1.00  0.00     0.172 C
HETATM   11  O2  UNL     1      55.269  14.987  19.553  1.00  0.00    -0.357 OA
HETATM   12  C3  UNL     1      54.221  15.606  20.283  1.00  0.00     0.339 C
HETATM   13  O1  UNL     1      54.681  16.291  21.400  1.00  0.00    -0.359 OA
HETATM   14  C2  UNL     1      55.772  17.123  21.125  1.00  0.00     0.151 C
HETATM   15  C1  UNL     1      55.422  18.184  20.104  1.00  0.00     0.042 C
HETATM   16  C22 UNL     1      56.899  16.248  20.625  1.00  0.00     0.177 C
BRANCH  16  17
HETATM   17  O8  UNL     1      57.905  16.243  21.569  1.00  0.00    -0.390 OA
ATOM     18  H8  UNL     1      58.248  15.360  21.643  1.00  0.00     0.210 HD
ENDBRANCH  16  17
ENDBRANCH   9  10
ENDBRANCH   7   9
ENDBRANCH   1   7
BRANCH   2  19
HETATM   19  O3  UNL     1      57.325  11.662  24.113  1.00  0.00    -0.391 OA
ATOM     20  H3  UNL     1      56.735  11.714  24.855  1.00  0.00     0.210 HD
ENDBRANCH   2  19
BRANCH   6  21
HETATM   21  O7  UNL     1      60.302  12.816  21.683  1.00  0.00    -0.391 OA
ATOM     22  H7  UNL     1      60.669  12.279  22.375  1.00  0.00     0.210 HD
ENDBRANCH   6  21
BRANCH   3  23
HETATM   23  C9  UNL     1      56.610  13.724  25.384  1.00  0.00     0.149 C
BRANCH  23  24
HETATM   24  N2  UNL     1      55.264  13.361  25.259  1.00  0.00    -0.412 N
ATOM     25  H2  UNL     1      54.977  12.406  25.043  1.00  0.00     0.153 HD
BRANCH  24  26
HETATM   26  C10 UNL     1      54.287  14.447  25.461  1.00  0.00     0.105 C
HETATM   27  C11 UNL     1      54.192  14.845  26.885  1.00  0.00     0.027 C
HETATM   28  C12 UNL     1      52.854  15.249  27.396  1.00  0.00     0.002 C
HETATM   29  C13 UNL     1      51.843  14.217  26.902  1.00  0.00     0.003 C
HETATM   30  C14 UNL     1      51.763  14.430  25.427  1.00  0.00     0.034 C
HETATM   31  C15 UNL     1      53.056  14.200  24.706  1.00  0.00     0.140 C
BRANCH  31  32
HETATM   32  O4  UNL     1      52.958  15.008  23.542  1.00  0.00    -0.394 OA
ATOM     33  H4  UNL     1      52.070  15.300  23.373  1.00  0.00     0.210 HD
ENDBRANCH  31  32
ENDBRANCH  24  26
ENDBRANCH  23  24
ENDBRANCH   3  23
BRANCH   5  34
HETATM   34  C17 UNL     1      60.747  14.601  23.663  1.00  0.00     0.153 C
HETATM   35  C18 UNL     1      60.764  15.481  24.874  1.00  0.00     0.036 C
HETATM   36  C19 UNL     1      61.312  16.794  24.279  1.00  0.00     0.029 C
HETATM   37  C20 UNL     1      61.811  16.309  22.938  1.00  0.00     0.168 C
HETATM   38  O6  UNL     1      60.729  15.473  22.566  1.00  0.00    -0.383 OA
ENDBRANCH   5  34
TORSDOF 11
ENDMDL