MODEL 4
REMARK VINA RESULT: -6.531254538      2.478      5.799
REMARK  13 active torsions:
REMARK  status: ('A' for Active; 'I' for Inactive)
REMARK    1  A    between atoms: C2_2  and  C3_3
REMARK    2  A    between atoms: C3_3  and  O1_4
REMARK    3  A    between atoms: O1_4  and  C4_5
REMARK    4  A    between atoms: C5_6  and  O2_7
REMARK    5  A    between atoms: C6_9  and  O3_10
REMARK    6  A    between atoms: C7_12  and  O4_13
REMARK    7  A    between atoms: C8_15  and  O5_16
REMARK    8  A    between atoms: O5_16  and  C9_17
REMARK    9  A    between atoms: C16_24  and  O6_25
REMARK   10  A    between atoms: C17_27  and  O7_28
REMARK   11  A    between atoms: O7_28  and  C18_29
REMARK   12  A    between atoms: C21_33  and  O9_34
REMARK   13  A    between atoms: C22_36  and  O10_37
ROOT
HETATM    1  C4  UNL     1      56.342  14.152  21.232  1.00  0.00     0.126 C
HETATM    2  C5  UNL     1      56.280  14.973  19.972  1.00  0.00     0.187 C
HETATM    3  C6  UNL     1      55.280  16.083  20.213  1.00  0.00     0.181 C
HETATM    4  C7  UNL     1      56.013  17.042  21.150  1.00  0.00     0.179 C
HETATM    5  C8  UNL     1      56.550  16.416  22.373  1.00  0.00     0.163 C
HETATM    6  C15 UNL     1      56.833  14.985  22.402  1.00  0.00     0.088 C
HETATM    7  C16 UNL     1      58.243  14.531  22.182  1.00  0.00     0.160 C
HETATM    8  C17 UNL     1      57.659  13.422  21.285  1.00  0.00     0.192 C
ENDROOT
BRANCH   8   9
HETATM    9  O7  UNL     1      57.714  12.247  22.009  1.00  0.00    -0.348 OA
BRANCH   9  10
HETATM   10  C18 UNL     1      58.668  11.416  21.425  1.00  0.00     0.292 C
HETATM   11  O8  UNL     1      59.740  12.157  20.952  1.00  0.00    -0.351 OA
HETATM   12  C19 UNL     1      60.898  11.684  21.497  1.00  0.00     0.152 C
HETATM   13  C20 UNL     1      62.078  11.808  20.582  1.00  0.00     0.042 C
HETATM   14  C21 UNL     1      60.639  10.261  21.944  1.00  0.00     0.180 C
HETATM   15  C22 UNL     1      59.180  10.341  22.336  1.00  0.00     0.204 C
BRANCH  14  16
HETATM   16  O9  UNL     1      60.719   9.373  20.864  1.00  0.00    -0.390 OA
ATOM     17  H9  UNL     1      60.125   8.640  20.981  1.00  0.00     0.210 HD
ENDBRANCH  14  16
BRANCH  15  18
HETATM   18  O10 UNL     1      58.527   9.128  22.121  1.00  0.00    -0.388 OA
ATOM     19  H10 UNL     1      58.061   8.837  22.896  1.00  0.00     0.210 HD
ENDBRANCH  15  18
ENDBRANCH   9  10
ENDBRANCH   8   9
BRANCH   1  20
HETATM   20  O1  UNL     1      55.206  13.504  21.529  1.00  0.00    -0.370 OA
BRANCH  20  21
HETATM   21  C3  UNL     1      54.760  13.303  22.775  1.00  0.00     0.195 C
BRANCH  21  22
HETATM   22  C2  UNL     1      53.273  12.949  22.784  1.00  0.00    -0.011 C
HETATM   23  C1  UNL     1      52.525  13.317  23.800  1.00  0.00     0.009 C
ENDBRANCH  21  22
ENDBRANCH  20  21
ENDBRANCH   1  20
BRANCH   7  24
HETATM   24  O6  UNL     1      59.092  15.369  21.507  1.00  0.00    -0.392 OA
ATOM     25  H6  UNL     1      59.417  16.138  21.961  1.00  0.00     0.210 HD
ENDBRANCH   7  24
BRANCH   2  26
HETATM   26  O2  UNL     1      55.961  14.259  18.867  1.00  0.00    -0.390 OA
ATOM     27  H2  UNL     1      55.564  14.777  18.175  1.00  0.00     0.210 HD
ENDBRANCH   2  26
BRANCH   3  28
HETATM   28  O3  UNL     1      54.132  15.618  20.838  1.00  0.00    -0.390 OA
ATOM     29  H3  UNL     1      53.535  16.325  21.052  1.00  0.00     0.210 HD
ENDBRANCH   3  28
BRANCH   5  30
HETATM   30  O5  UNL     1      57.750  17.101  22.688  1.00  0.00    -0.377 OA
BRANCH  30  31
HETATM   31  C9  UNL     1      57.816  17.485  24.010  1.00  0.00     0.122 C
HETATM   32  C10 UNL     1      59.167  17.242  24.628  1.00  0.00     0.032 C
HETATM   33  C11 UNL     1      59.112  16.397  25.868  1.00  0.00     0.002 C
HETATM   34  C12 UNL     1      58.146  16.934  26.893  1.00  0.00     0.000 C
HETATM   35  C13 UNL     1      56.840  17.369  26.251  1.00  0.00     0.002 C
HETATM   36  C14 UNL     1      56.793  16.750  24.869  1.00  0.00     0.032 C
ENDBRANCH  30  31
ENDBRANCH   5  30
BRANCH   4  37
HETATM   37  O4  UNL     1      57.080  17.560  20.384  1.00  0.00    -0.390 OA
ATOM     38  H4  UNL     1      57.803  17.647  20.994  1.00  0.00     0.210 HD
ENDBRANCH   4  37
TORSDOF 13
ENDMDL