MODEL 1
REMARK VINA RESULT: -6.673223885      0.000      0.000
REMARK  10 active torsions:
REMARK  status: ('A' for Active; 'I' for Inactive)
REMARK    1  A    between atoms: C2_2  and  N1_3
REMARK    2  A    between atoms: N1_3  and  C3_5
REMARK    3  A    between atoms: C4_6  and  O1_7
REMARK    4  A    between atoms: C5_9  and  O2_10
REMARK    5  A    between atoms: C9_15  and  O3_16
REMARK    6  A    between atoms: C11_18  and  O4_19
REMARK    7  A    between atoms: O4_19  and  C12_20
REMARK    8  A    between atoms: C14_22  and  N2_23
REMARK       I    between atoms: N2_23  and  C15_25
REMARK       I    between atoms: C15_25  and  N3_27
REMARK    9  A    between atoms: N3_27  and  N4_29
REMARK   10  A    between atoms: C16_32  and  O8_33
ROOT
HETATM    1  O4  UNL     1      54.784  14.236  25.219  1.00  0.00    -0.347 OA
ENDROOT
BRANCH   1   2
HETATM    2  C11 UNL     1      55.181  14.756  26.429  1.00  0.00     0.202 C
HETATM    3  C3  UNL     1      55.905  13.758  27.216  1.00  0.00     0.049 C
HETATM    4  C4  UNL     1      56.013  13.958  28.706  1.00  0.00     0.195 C
HETATM    5  C5  UNL     1      54.866  14.635  29.344  1.00  0.00     0.163 C
HETATM    6  C6  UNL     1      54.157  15.670  28.516  1.00  0.00     0.010 C
HETATM    7  C7  UNL     1      52.821  16.000  29.142  1.00  0.00     0.020 C
HETATM    8  C8  UNL     1      55.031  16.899  28.473  1.00  0.00     0.020 C
HETATM    9  C9  UNL     1      53.855  15.160  27.116  1.00  0.00     0.166 C
BRANCH   3  10
HETATM   10  N1  UNL     1      57.053  13.242  26.620  1.00  0.00    -0.372 N
ATOM     11  H1  UNL     1      57.872  13.848  26.571  1.00  0.00     0.164 HD
BRANCH  10  12
HETATM   12  C2  UNL     1      57.164  11.968  26.088  1.00  0.00     0.056 C
HETATM   13  C1  UNL     1      57.036  11.717  24.617  1.00  0.00     0.054 C
ENDBRANCH  10  12
ENDBRANCH   3  10
BRANCH   4  14
HETATM   14  O1  UNL     1      56.095  12.657  29.266  1.00  0.00    -0.387 OA
ATOM     15  H1  UNL     1      56.841  12.674  29.854  1.00  0.00     0.210 HD
ENDBRANCH   4  14
BRANCH   5  16
HETATM   16  O2  UNL     1      55.358  15.335  30.477  1.00  0.00    -0.392 OA
ATOM     17  H2  UNL     1      54.863  15.041  31.234  1.00  0.00     0.210 HD
ENDBRANCH   5  16
BRANCH   9  18
HETATM   18  O3  UNL     1      52.898  14.211  27.093  1.00  0.00    -0.387 OA
HETATM   19  C10 UNL     1      51.777  14.363  26.369  1.00  0.00     0.202 C
ENDBRANCH   9  18
ENDBRANCH   1   2
BRANCH   1  20
HETATM   20  C12 UNL     1      54.892  15.101  24.135  1.00  0.00     0.263 C
HETATM   21  C13 UNL     1      56.219  15.217  23.512  1.00  0.00     0.088 C
HETATM   22  C14 UNL     1      56.122  15.302  22.018  1.00  0.00     0.122 C
HETATM   23  C16 UNL     1      55.308  14.158  21.460  1.00  0.00     0.169 C
HETATM   24  C17 UNL     1      54.146  13.841  22.378  1.00  0.00     0.151 C
HETATM   25  C18 UNL     1      52.897  13.471  21.648  1.00  0.00     0.042 C
HETATM   26  O9  UNL     1      53.894  14.924  23.217  1.00  0.00    -0.354 OA
BRANCH  22  27
HETATM   27  N2  UNL     1      55.571  16.588  21.649  1.00  0.00    -0.334 N
HETATM   28  C15 UNL     1      55.873  17.277  20.453  1.00  0.00     0.339 C
HETATM   29  O5  UNL     1      56.667  16.757  19.640  1.00  0.00    -0.245 OA
HETATM   30  N3  UNL     1      55.302  18.532  20.151  1.00  0.00    -0.191 N
ATOM     31  H3  UNL     1      54.655  18.932  20.830  1.00  0.00     0.198 HD
ATOM     32  H2  UNL     1      54.919  17.028  22.299  1.00  0.00     0.164 HD
BRANCH  30  33
HETATM   33  N4  UNL     1      55.556  19.262  18.997  1.00  0.00    -0.035 N
HETATM   34  O6  UNL     1      56.171  20.356  19.085  1.00  0.00    -0.516 OA
HETATM   35  O7  UNL     1      55.181  18.879  17.725  1.00  0.00    -0.516 OA
ENDBRANCH  30  33
ENDBRANCH  22  27
BRANCH  23  36
HETATM   36  O8  UNL     1      54.808  14.547  20.226  1.00  0.00    -0.391 OA
ATOM     37  H8  UNL     1      53.863  14.607  20.296  1.00  0.00     0.210 HD
ENDBRANCH  23  36
ENDBRANCH   1  20
TORSDOF 10
ENDMDL