MODEL 5
REMARK VINA RESULT: -5.994571683      2.349      4.437
REMARK  9 active torsions:
REMARK  status: ('A' for Active; 'I' for Inactive)
REMARK    1  A    between atoms: O1_2  and  C2_3
REMARK    2  A    between atoms: C2_3  and  C4_5
REMARK    3  A    between atoms: C4_5  and  C5_6
REMARK    4  A    between atoms: C5_6  and  C6_7
REMARK    5  A    between atoms: C6_7  and  N1_8
REMARK    6  A    between atoms: N1_8  and  C7_10
REMARK    7  A    between atoms: C7_10  and  C9_12
REMARK    8  A    between atoms: C9_12  and  N2_13
REMARK    9  A    between atoms: N2_13  and  C10_15
ROOT
HETATM    1  C7  UNL     1      24.899  65.057  -4.267  1.00  0.00     0.090 C
HETATM    2  C8  UNL     1      23.980  64.609  -3.115  1.00  0.00     0.033 C
ENDROOT
BRANCH   1   3
HETATM    3  N1  UNL     1      24.859  66.482  -4.263  1.00  0.00    -0.416 N
ATOM      4  H1  UNL     1      25.597  67.031  -4.705  1.00  0.00     0.153 HD
BRANCH   3   5
HETATM    5  C6  UNL     1      23.766  67.111  -3.628  1.00  0.00     0.114 C
BRANCH   5   6
HETATM    6  C5  UNL     1      22.720  67.706  -4.519  1.00  0.00     0.022 C
BRANCH   6   7
HETATM    7  C4  UNL     1      23.005  69.196  -4.581  1.00  0.00     0.033 C
BRANCH   7   8
HETATM    8  C2  UNL     1      21.901  70.045  -4.024  1.00  0.00     0.116 C
HETATM    9  C3  UNL     1      21.875  71.357  -4.749  1.00  0.00     0.039 C
BRANCH   8  10
HETATM   10  O1  UNL     1      22.227  70.303  -2.679  1.00  0.00    -0.391 OA
HETATM   11  C1  UNL     1      21.115  70.147  -1.857  1.00  0.00     0.202 C
ENDBRANCH   8  10
ENDBRANCH   7   8
ENDBRANCH   6   7
ENDBRANCH   5   6
ENDBRANCH   3   5
ENDBRANCH   1   3
BRANCH   1  12
HETATM   12  C9  UNL     1      24.259  64.539  -5.526  1.00  0.00     0.144 C
BRANCH  12  13
HETATM   13  N2  UNL     1      24.669  65.204  -6.725  1.00  0.00    -0.388 N
ATOM     14  H2  UNL     1      25.665  65.169  -6.945  1.00  0.00     0.159 HD
BRANCH  13  15
HETATM   15  C10 UNL     1      23.854  65.901  -7.633  1.00  0.00     0.028 A
HETATM   16  C11 UNL     1      23.951  67.289  -7.764  1.00  0.00     0.029 A
HETATM   17  C12 UNL     1      23.180  68.011  -8.644  1.00  0.00     0.002 A
HETATM   18  C13 UNL     1      22.270  67.353  -9.438  1.00  0.00     0.000 A
HETATM   19  C14 UNL     1      22.137  65.985  -9.345  1.00  0.00     0.002 A
HETATM   20  C15 UNL     1      22.938  65.279  -8.437  1.00  0.00     0.029 A
ENDBRANCH  13  15
ENDBRANCH  12  13
ENDBRANCH   1  12
TORSDOF 9
ENDMDL