MODEL 2
REMARK VINA RESULT: -6.734953009      1.555      2.659
REMARK  9 active torsions:
REMARK  status: ('A' for Active; 'I' for Inactive)
REMARK    1  A    between atoms: C2_2  and  C4_4
REMARK    2  A    between atoms: C4_4  and  C5_5
REMARK    3  A    between atoms: C5_5  and  C6_6
REMARK    4  A    between atoms: C6_6  and  N1_8
REMARK    5  A    between atoms: N1_8  and  C8_10
REMARK    6  A    between atoms: C8_10  and  C9_11
REMARK    7  A    between atoms: C9_11  and  C11_13
REMARK    8  A    between atoms: C11_13  and  O1_14
REMARK    9  A    between atoms: O1_14  and  C12_15
ROOT
HETATM    1  C9  UNL     1      23.729  67.147  -3.689  1.00  0.00     0.044 C
HETATM    2  C10 UNL     1      22.924  65.841  -3.708  1.00  0.00     0.017 C
ENDROOT
BRANCH   1   3
HETATM    3  C8  UNL     1      23.846  67.616  -5.105  1.00  0.00     0.062 C
BRANCH   3   4
HETATM    4  N1  UNL     1      22.698  67.695  -5.884  1.00  0.00    -0.398 N
ATOM      5  H1  UNL     1      21.927  67.055  -5.696  1.00  0.00     0.159 HD
BRANCH   4   6
HETATM    6  C6  UNL     1      22.568  68.632  -6.924  1.00  0.00     0.076 C
HETATM    7  C7  UNL     1      23.718  69.571  -7.158  1.00  0.00     0.032 C
BRANCH   6   8
HETATM    8  C5  UNL     1      22.176  67.948  -8.243  1.00  0.00     0.025 C
BRANCH   8   9
HETATM    9  C4  UNL     1      23.416  67.692  -9.043  1.00  0.00     0.006 C
BRANCH   9  10
HETATM   10  C2  UNL     1      23.725  66.218  -9.162  1.00  0.00    -0.023 C
HETATM   11  C1  UNL     1      24.651  65.711  -8.108  1.00  0.00     0.009 C
HETATM   12  C3  UNL     1      22.447  65.407  -9.216  1.00  0.00     0.009 C
ENDBRANCH   9  10
ENDBRANCH   8   9
ENDBRANCH   6   8
ENDBRANCH   4   6
ENDBRANCH   3   4
ENDBRANCH   1   3
BRANCH   1  13
HETATM   13  C11 UNL     1      22.901  68.099  -2.846  1.00  0.00     0.185 C
BRANCH  13  14
HETATM   14  O1  UNL     1      22.922  69.372  -3.457  1.00  0.00    -0.348 OA
BRANCH  14  15
HETATM   15  C12 UNL     1      21.779  70.198  -3.404  1.00  0.00     0.102 A
HETATM   16  C13 UNL     1      20.849  70.338  -2.407  1.00  0.00     0.145 A
HETATM   17  N2  UNL     1      19.959  71.244  -2.832  1.00  0.00    -0.309 N
HETATM   18  N3  UNL     1      20.275  71.676  -4.029  1.00  0.00    -0.309 N
ATOM     19  H2  UNL     1      19.147  71.555  -2.298  1.00  0.00     0.186 HD
HETATM   20  C14 UNL     1      21.393  71.056  -4.422  1.00  0.00     0.145 A
ATOM     21  H3  UNL     1      19.756  72.368  -4.570  1.00  0.00     0.186 HD
ENDBRANCH  14  15
ENDBRANCH  13  14
ENDBRANCH   1  13
TORSDOF 9
ENDMDL