MODEL 4
REMARK VINA RESULT: -6.271748724      1.645      2.094
REMARK  8 active torsions:
REMARK  status: ('A' for Active; 'I' for Inactive)
REMARK    1  A    between atoms: C4_4  and  C5_5
REMARK    2  A    between atoms: C5_5  and  N1_6
REMARK    3  A    between atoms: N1_6  and  C6_9
REMARK    4  A    between atoms: C6_9  and  C7_10
REMARK    5  A    between atoms: C7_10  and  C8_11
REMARK    6  A    between atoms: C8_11  and  N2_12
REMARK    7  A    between atoms: N2_12  and  C9_15
REMARK    8  A    between atoms: C9_15  and  C10_16
ROOT
HETATM    1  C6  UNL     1      22.630  70.666  -6.111  1.00  0.00     0.234 C
ENDROOT
BRANCH   1   2
HETATM    2  N1  UNL     1      22.532  70.116  -7.443  1.00  0.00    -0.071 N
ATOM      3  H12 UNL     1      22.480  70.825  -8.176  1.00  0.00     0.277 HD
ATOM      4  H11 UNL     1      21.633  69.675  -7.638  1.00  0.00     0.277 HD
BRANCH   2   5
HETATM    5  C5  UNL     1      23.679  69.207  -7.582  1.00  0.00     0.270 C
BRANCH   5   6
HETATM    6  C4  UNL     1      23.308  67.881  -8.090  1.00  0.00    -0.033 A
HETATM    7  C3  UNL     1      22.159  67.787  -8.839  1.00  0.00     0.009 A
HETATM    8  C2  UNL     1      21.741  66.581  -9.393  1.00  0.00     0.001 A
HETATM    9  C1  UNL     1      22.498  65.442  -9.188  1.00  0.00     0.000 A
HETATM   10  C15 UNL     1      23.646  65.533  -8.438  1.00  0.00     0.001 A
HETATM   11  C14 UNL     1      24.054  66.741  -7.889  1.00  0.00     0.009 A
ENDBRANCH   5   6
ENDBRANCH   2   5
ENDBRANCH   1   2
BRANCH   1  12
HETATM   12  C7  UNL     1      21.729  69.955  -5.130  1.00  0.00     0.055 C
BRANCH  12  13
HETATM   13  C8  UNL     1      22.589  69.241  -4.144  1.00  0.00     0.234 C
BRANCH  13  14
HETATM   14  N2  UNL     1      22.573  67.830  -4.369  1.00  0.00    -0.069 N
ATOM     15  H22 UNL     1      21.617  67.475  -4.390  1.00  0.00     0.277 HD
ATOM     16  H21 UNL     1      22.854  67.610  -5.324  1.00  0.00     0.277 HD
BRANCH  14  17
HETATM   17  C9  UNL     1      23.370  67.101  -3.418  1.00  0.00     0.296 C
BRANCH  17  18
HETATM   18  C10 UNL     1      23.773  65.833  -4.116  1.00  0.00     0.078 A
HETATM   19  C11 UNL     1      23.112  64.691  -4.416  1.00  0.00     0.036 A
HETATM   20  C12 UNL     1      23.993  63.838  -5.082  1.00  0.00     0.027 A
HETATM   21  C13 UNL     1      25.176  64.526  -5.150  1.00  0.00     0.142 A
HETATM   22  O1  UNL     1      25.019  65.681  -4.581  1.00  0.00    -0.325 OA
ENDBRANCH  17  18
ENDBRANCH  14  17
ENDBRANCH  13  14
ENDBRANCH  12  13
ENDBRANCH   1  12
TORSDOF 8
ENDMDL