MODEL 5
REMARK VINA RESULT: -5.892995256      0.969      1.561
REMARK  8 active torsions:
REMARK  status: ('A' for Active; 'I' for Inactive)
REMARK    1  A    between atoms: S1_2  and  C2_3
REMARK    2  A    between atoms: C2_3  and  C3_4
REMARK    3  A    between atoms: C3_4  and  C4_5
REMARK    4  A    between atoms: C4_5  and  N1_6
REMARK    5  A    between atoms: N1_6  and  C5_8
REMARK    6  A    between atoms: C5_8  and  C7_10
REMARK    7  A    between atoms: N2_11  and  C8_13
REMARK    8  A    between atoms: C8_13  and  C9_14
ROOT
HETATM    1  C7  UNL     1      22.353  70.269  -5.671  1.00  0.00     0.080 C
HETATM    2  N2  UNL     1      22.300  69.631  -6.861  1.00  0.00    -0.400 N
ATOM      3  H2  UNL     1      21.393  69.606  -7.328  1.00  0.00     0.158 HD
ENDROOT
BRANCH   1   4
HETATM    4  C5  UNL     1      22.581  69.592  -4.348  1.00  0.00     0.114 C
HETATM    5  C6  UNL     1      21.856  70.125  -3.173  1.00  0.00     0.038 C
BRANCH   4   6
HETATM    6  N1  UNL     1      22.196  68.212  -4.572  1.00  0.00    -0.394 N
ATOM      7  H1  UNL     1      21.336  68.001  -5.079  1.00  0.00     0.159 HD
BRANCH   6   8
HETATM    8  C4  UNL     1      22.989  67.177  -4.101  1.00  0.00     0.057 C
BRANCH   8   9
HETATM    9  C3  UNL     1      24.425  67.052  -4.432  1.00  0.00     0.054 C
BRANCH   9  10
HETATM   10  C2  UNL     1      24.842  65.572  -4.484  1.00  0.00     0.078 C
BRANCH  10  11
HETATM   11  S1  UNL     1      23.537  64.533  -3.743  1.00  0.00    -0.173 SA
HETATM   12  C1  UNL     1      24.082  64.086  -2.053  1.00  0.00     0.089 C
ENDBRANCH  10  11
ENDBRANCH   9  10
ENDBRANCH   8   9
ENDBRANCH   6   8
ENDBRANCH   4   6
ENDBRANCH   1   4
BRANCH   2  13
HETATM   13  C8  UNL     1      23.346  69.012  -7.505  1.00  0.00     0.123 C
BRANCH  13  14
HETATM   14  C9  UNL     1      23.004  67.564  -7.931  1.00  0.00     0.003 C
HETATM   15  C10 UNL     1      22.270  67.540  -9.221  1.00  0.00     0.006 C
HETATM   16  C11 UNL     1      21.796  66.149  -9.489  1.00  0.00     0.000 C
HETATM   17  C12 UNL     1      22.900  65.123  -9.417  1.00  0.00     0.000 C
HETATM   18  C13 UNL     1      23.753  65.273  -8.182  1.00  0.00     0.000 C
HETATM   19  C14 UNL     1      24.218  66.707  -8.031  1.00  0.00     0.006 C
ENDBRANCH  13  14
ENDBRANCH   2  13
TORSDOF 8
ENDMDL