MODEL 3
REMARK VINA RESULT: -5.822301257      1.197      3.763
REMARK  11 active torsions:
REMARK  status: ('A' for Active; 'I' for Inactive)
REMARK    1  A    between atoms: C2_2  and  C3_3
REMARK    2  A    between atoms: C3_3  and  C4_4
REMARK    3  A    between atoms: C4_4  and  C5_5
REMARK    4  A    between atoms: C5_5  and  C6_6
REMARK    5  A    between atoms: C7_7  and  C8_8
REMARK    6  A    between atoms: C8_8  and  C9_9
REMARK    7  A    between atoms: C10_11  and  C11_12
REMARK    8  A    between atoms: C11_12  and  O2_13
REMARK    9  A    between atoms: C11_12  and  C12_15
REMARK   10  A    between atoms: C12_15  and  O3_16
REMARK   11  A    between atoms: C12_15  and  C13_18
ROOT
HETATM    1  C9  UNL     1      23.005  69.046  -4.950  1.00  0.00     0.157 A
HETATM    2  O1  UNL     1      21.767  69.562  -5.502  1.00  0.00    -0.372 OA
HETATM    3  C10 UNL     1      22.923  69.560  -6.305  1.00  0.00     0.182 A
ENDROOT
BRANCH   3   4
HETATM    4  C11 UNL     1      23.026  68.687  -7.505  1.00  0.00     0.178 C
BRANCH   4   5
HETATM    5  O2  UNL     1      24.028  69.147  -8.376  1.00  0.00    -0.390 OA
ATOM      6  H2  UNL     1      23.655  69.429  -9.203  1.00  0.00     0.210 HD
ENDBRANCH   4   5
BRANCH   4   7
HETATM    7  C12 UNL     1      21.709  68.514  -8.228  1.00  0.00     0.152 C
BRANCH   7   8
HETATM    8  O3  UNL     1      21.331  69.777  -8.684  1.00  0.00    -0.393 OA
ATOM      9  H3  UNL     1      20.471  69.953  -8.322  1.00  0.00     0.210 HD
ENDBRANCH   7   8
BRANCH   7  10
HETATM   10  C13 UNL     1      21.810  67.611  -9.424  1.00  0.00     0.009 C
HETATM   11  C14 UNL     1      22.237  66.218  -9.100  1.00  0.00     0.012 C
HETATM   12  C15 UNL     1      20.435  67.541 -10.056  1.00  0.00     0.012 C
ENDBRANCH   7  10
ENDBRANCH   4   7
ENDBRANCH   3   4
BRANCH   1  13
HETATM   13  C8  UNL     1      22.832  67.605  -4.564  1.00  0.00     0.061 C
BRANCH  13  14
HETATM   14  C7  UNL     1      23.309  67.356  -3.190  1.00  0.00    -0.028 C
HETATM   15  C6  UNL     1      23.197  66.218  -2.565  1.00  0.00    -0.031 C
BRANCH  15  16
HETATM   16  C5  UNL     1      22.574  65.021  -3.158  1.00  0.00     0.027 C
BRANCH  16  17
HETATM   17  C4  UNL     1      23.666  64.043  -3.529  1.00  0.00     0.007 C
BRANCH  17  18
HETATM   18  C3  UNL     1      23.737  63.895  -5.019  1.00  0.00     0.026 C
BRANCH  18  19
HETATM   19  C2  UNL     1      24.919  64.615  -5.532  1.00  0.00    -0.037 C
HETATM   20  C1  UNL     1      24.836  65.287  -6.666  1.00  0.00     0.007 C
ENDBRANCH  18  19
ENDBRANCH  17  18
ENDBRANCH  16  17
ENDBRANCH  15  16
ENDBRANCH  13  14
ENDBRANCH   1  13
TORSDOF 11
ENDMDL