MODEL 1
REMARK VINA RESULT: -6.661125332      0.000      0.000
REMARK  11 active torsions:
REMARK  status: ('A' for Active; 'I' for Inactive)
REMARK    1  A    between atoms: C2_2  and  C3_3
REMARK    2  A    between atoms: C3_3  and  C4_4
REMARK    3  A    between atoms: C4_4  and  C5_5
REMARK    4  A    between atoms: C6_6  and  C7_7
REMARK    5  A    between atoms: C7_7  and  O1_8
REMARK    6  A    between atoms: O1_8  and  C8_9
REMARK    7  A    between atoms: C8_9  and  C9_10
REMARK    8  A    between atoms: C9_10  and  C10_11
REMARK    9  A    between atoms: C10_11  and  C11_12
REMARK   10  A    between atoms: C11_12  and  O2_13
REMARK   11  A    between atoms: N1_15  and  O3_17
ROOT
HETATM    1  C9  UNL     1      22.677  69.605  -6.003  1.00  0.00     0.009 A
HETATM    2  C12 UNL     1      22.469  68.315  -5.364  1.00  0.00    -0.018 A
HETATM    3  C13 UNL     1      23.728  68.073  -5.092  1.00  0.00    -0.029 A
HETATM    4  C14 UNL     1      24.124  69.347  -5.703  1.00  0.00     0.043 A
ENDROOT
BRANCH   1   5
HETATM    5  C8  UNL     1      22.487  69.644  -7.531  1.00  0.00     0.182 C
BRANCH   5   6
HETATM    6  O1  UNL     1      21.446  68.857  -7.924  1.00  0.00    -0.386 OA
BRANCH   6   7
HETATM    7  C7  UNL     1      21.717  68.335  -9.201  1.00  0.00     0.194 C
BRANCH   7   8
HETATM    8  C6  UNL     1      21.721  66.882  -9.282  1.00  0.00    -0.005 C
HETATM    9  C5  UNL     1      22.727  66.093  -9.065  1.00  0.00    -0.028 C
BRANCH   9  10
HETATM   10  C4  UNL     1      24.068  66.530  -8.689  1.00  0.00     0.030 C
BRANCH  10  11
HETATM   11  C3  UNL     1      24.691  65.630  -7.630  1.00  0.00     0.030 C
BRANCH  11  12
HETATM   12  C2  UNL     1      23.644  64.937  -6.832  1.00  0.00    -0.037 C
HETATM   13  C1  UNL     1      23.904  64.383  -5.657  1.00  0.00     0.007 C
ENDBRANCH  11  12
ENDBRANCH  10  11
ENDBRANCH   9  10
ENDBRANCH   7   8
ENDBRANCH   6   7
ENDBRANCH   5   6
ENDBRANCH   1   5
BRANCH   1  14
HETATM   14  C10 UNL     1      22.063  70.799  -5.378  1.00  0.00     0.102 C
BRANCH  14  15
HETATM   15  C11 UNL     1      21.409  70.651  -4.086  1.00  0.00     0.136 C
HETATM   16  N1  UNL     1      20.121  70.628  -3.934  1.00  0.00    -0.251 N
ATOM     17  H1  UNL     1      19.499  70.717  -4.738  1.00  0.00     0.196 HD
BRANCH  15  18
HETATM   18  O2  UNL     1      22.169  70.523  -2.935  1.00  0.00    -0.348 OA
ATOM     19  H2  UNL     1      22.790  69.808  -2.851  1.00  0.00     0.219 HD
ENDBRANCH  15  18
BRANCH  16  20
HETATM   20  O3  UNL     1      19.617  70.484  -2.675  1.00  0.00    -0.288 OA
ATOM     21  H3  UNL     1      19.590  69.614  -2.295  1.00  0.00     0.244 HD
ENDBRANCH  16  20
ENDBRANCH  14  15
ENDBRANCH   1  14
TORSDOF 11
ENDMDL