MODEL 4
REMARK VINA RESULT: -5.803248990      2.968      4.392
REMARK  10 active torsions:
REMARK  status: ('A' for Active; 'I' for Inactive)
REMARK    1  A    between atoms: O1_2  and  C2_3
REMARK    2  A    between atoms: C2_3  and  C3_4
REMARK    3  A    between atoms: C2_3  and  C5_10
REMARK    4  A    between atoms: C3_4  and  C4_5
REMARK    5  A    between atoms: C4_5  and  N1_6
REMARK    6  A    between atoms: C5_10  and  C6_11
REMARK    7  A    between atoms: C6_11  and  C7_12
REMARK    8  A    between atoms: C6_11  and  C9_15
REMARK    9  A    between atoms: C7_12  and  C8_13
REMARK   10  A    between atoms: C9_15  and  C10_16
ROOT
HETATM    1  C5  UNL     1      24.556  67.171  -4.483  1.00  0.00     0.036 C
ENDROOT
BRANCH   1   2
HETATM    2  C2  UNL     1      24.355  65.946  -3.691  1.00  0.00     0.122 C
BRANCH   2   3
HETATM    3  O1  UNL     1      23.254  65.208  -4.119  1.00  0.00    -0.391 OA
HETATM    4  C1  UNL     1      23.663  64.096  -4.873  1.00  0.00     0.202 C
ENDBRANCH   2   3
BRANCH   2   5
HETATM    5  C3  UNL     1      24.042  66.404  -2.234  1.00  0.00     0.059 C
BRANCH   5   6
HETATM    6  C4  UNL     1      24.049  65.280  -1.250  1.00  0.00     0.232 C
BRANCH   6   7
HETATM    7  N1  UNL     1      22.620  64.879  -1.134  1.00  0.00    -0.079 N
ATOM      8  H13 UNL     1      22.059  65.095  -1.958  1.00  0.00     0.274 HD
ATOM      9  H12 UNL     1      22.468  63.870  -1.155  1.00  0.00     0.274 HD
ATOM     10  H11 UNL     1      22.296  65.331  -0.279  1.00  0.00     0.274 HD
ENDBRANCH   6   7
ENDBRANCH   5   6
ENDBRANCH   2   5
ENDBRANCH   1   2
BRANCH   1  11
HETATM   11  C6  UNL     1      23.414  67.871  -5.097  1.00  0.00    -0.011 C
BRANCH  11  12
HETATM   12  C7  UNL     1      23.090  69.252  -4.624  1.00  0.00     0.015 C
BRANCH  12  13
HETATM   13  C8  UNL     1      21.866  69.833  -5.342  1.00  0.00     0.086 C
HETATM   14  S1  UNL     1      21.043  70.931  -4.147  1.00  0.00    -0.098 SA
ENDBRANCH  12  13
ENDBRANCH  11  12
BRANCH  11  15
HETATM   15  C9  UNL     1      23.634  67.980  -6.613  1.00  0.00     0.009 C
BRANCH  15  16
HETATM   16  C10 UNL     1      22.926  66.923  -7.391  1.00  0.00    -0.014 C
HETATM   17  C11 UNL     1      22.173  67.480  -8.581  1.00  0.00     0.005 C
HETATM   18  C12 UNL     1      22.086  66.286  -9.494  1.00  0.00     0.000 C
HETATM   19  C13 UNL     1      23.285  65.421  -9.201  1.00  0.00     0.000 C
HETATM   20  C14 UNL     1      24.033  66.146  -8.129  1.00  0.00     0.005 C
ENDBRANCH  15  16
ENDBRANCH  11  15
ENDBRANCH   1  11
TORSDOF 10
ENDMDL