MODEL 1
REMARK VINA RESULT: -6.066839875      0.000      0.000
REMARK  3 active torsions:
REMARK  status: ('A' for Active; 'I' for Inactive)
REMARK    1  A    between atoms: C4_7  and  C5_8
REMARK    2  A    between atoms: C5_8  and  N2_9
REMARK    3  A    between atoms: N2_9  and  C6_12
ROOT
HETATM    1  C5  UNL     1       9.633 -51.096  36.719  1.00  0.00     0.239 C
ENDROOT
BRANCH   1   2
HETATM    2  C4  UNL     1      10.109 -51.315  35.313  1.00  0.00     0.037 C
HETATM    3  C3  UNL     1      11.506 -51.824  35.202  1.00  0.00     0.238 C
HETATM    4  N1  UNL     1      12.427 -50.780  34.762  1.00  0.00    -0.075 N
HETATM    5  C2  UNL     1      12.125 -50.608  33.343  1.00  0.00     0.232 C
ATOM      6  H12 UNL     1      13.407 -50.978  34.960  1.00  0.00     0.277 HD
ATOM      7  H11 UNL     1      12.373 -49.920  35.308  1.00  0.00     0.277 HD
HETATM    8  C1  UNL     1      10.758 -49.990  33.269  1.00  0.00     0.028 C
HETATM    9  C11 UNL     1      10.018 -50.004  34.575  1.00  0.00     0.009 C
ENDBRANCH   1   2
BRANCH   1  10
HETATM   10  N2  UNL     1       9.851 -49.731  37.164  1.00  0.00    -0.070 N
ATOM     11  H22 UNL     1      10.686 -49.653  37.744  1.00  0.00     0.277 HD
ATOM     12  H21 UNL     1      10.140 -49.126  36.396  1.00  0.00     0.277 HD
BRANCH  10  13
HETATM   13  C6  UNL     1       8.687 -49.216  37.837  1.00  0.00     0.185 C
HETATM   14  C7  UNL     1       8.076 -50.400  38.581  1.00  0.00     0.033 C
HETATM   15  C8  UNL     1       6.688 -49.915  38.895  1.00  0.00     0.002 C
HETATM   16  C9  UNL     1       6.361 -48.889  37.828  1.00  0.00     0.002 C
HETATM   17  C10 UNL     1       7.567 -48.851  36.897  1.00  0.00     0.033 C
ENDBRANCH  10  13
ENDBRANCH   1  10
TORSDOF 3
ENDMDL