MODEL 4
REMARK VINA RESULT: -5.760452994      1.338      1.509
REMARK  3 active torsions:
REMARK  status: ('A' for Active; 'I' for Inactive)
REMARK    1  A    between atoms: N1_2  and  C2_5
REMARK    2  A    between atoms: C5_8  and  C6_9
REMARK    3  A    between atoms: C6_9  and  C7_10
ROOT
HETATM    1  C2  UNL     1       7.205 -49.425  37.442  1.00  0.00     0.185 C
HETATM    2  C3  UNL     1       7.638 -50.606  38.309  1.00  0.00     0.033 C
HETATM    3  C4  UNL     1       9.146 -50.542  38.145  1.00  0.00     0.007 C
HETATM    4  C5  UNL     1       9.258 -50.361  36.661  1.00  0.00    -0.010 C
HETATM    5  C11 UNL     1       8.284 -49.226  36.421  1.00  0.00     0.037 C
ENDROOT
BRANCH   4   6
HETATM    6  C6  UNL     1      10.634 -49.968  36.201  1.00  0.00     0.037 C
BRANCH   6   7
HETATM    7  C7  UNL     1      11.303 -51.036  35.371  1.00  0.00     0.186 C
HETATM    8  C8  UNL     1      10.505 -51.408  34.162  1.00  0.00     0.034 C
HETATM    9  C9  UNL     1      11.241 -50.775  33.005  1.00  0.00     0.029 C
HETATM   10  C10 UNL     1      12.574 -50.357  33.543  1.00  0.00     0.233 C
HETATM   11  N2  UNL     1      12.578 -50.541  34.954  1.00  0.00    -0.071 N
ATOM     12  H22 UNL     1      12.845 -49.692  35.453  1.00  0.00     0.277 HD
ATOM     13  H21 UNL     1      13.344 -51.138  35.264  1.00  0.00     0.277 HD
ENDBRANCH   6   7
ENDBRANCH   4   6
BRANCH   1  14
HETATM   14  N1  UNL     1       7.083 -48.304  38.360  1.00  0.00    -0.075 N
HETATM   15  C1  UNL     1       6.142 -48.652  39.405  1.00  0.00     0.267 C
ATOM     16  H12 UNL     1       6.833 -47.437  37.884  1.00  0.00     0.277 HD
ATOM     17  H11 UNL     1       7.985 -48.006  38.732  1.00  0.00     0.277 HD
ENDBRANCH   1  14
TORSDOF 3
ENDMDL