MODEL 1
REMARK VINA RESULT: -5.514495129      0.000      0.000
REMARK  3 active torsions:
REMARK  status: ('A' for Active; 'I' for Inactive)
REMARK    1  A    between atoms: C2_2  and  N1_3
REMARK    2  A    between atoms: N1_3  and  C3_5
REMARK    3  A    between atoms: C3_5  and  C4_6
ROOT
HETATM    1  C4  UNL     1       7.970 -49.862  36.406  1.00  0.00     0.009 C
HETATM    2  C5  UNL     1       8.673 -49.439  35.148  1.00  0.00     0.009 C
HETATM    3  C6  UNL     1       9.843 -48.513  35.466  1.00  0.00     0.033 C
HETATM    4  C7  UNL     1      10.749 -49.125  36.489  1.00  0.00     0.186 C
HETATM    5  C8  UNL     1       9.975 -49.228  37.787  1.00  0.00     0.039 C
HETATM    6  C9  UNL     1       8.969 -50.317  37.421  1.00  0.00     0.019 C
HETATM    7  C10 UNL     1       9.913 -51.293  36.731  1.00  0.00     0.237 C
HETATM    8  N2  UNL     1      11.004 -50.523  36.184  1.00  0.00    -0.070 N
ATOM      9  H21 UNL     1      11.917 -50.842  36.510  1.00  0.00     0.277 HD
ATOM     10  H22 UNL     1      11.150 -50.693  35.189  1.00  0.00     0.277 HD
ENDROOT
BRANCH   1  11
HETATM   11  C3  UNL     1       7.105 -48.810  36.996  1.00  0.00     0.118 C
BRANCH  11  12
HETATM   12  N1  UNL     1       6.020 -49.239  37.803  1.00  0.00    -0.421 N
ATOM     13  H1  UNL     1       5.237 -49.763  37.412  1.00  0.00     0.153 HD
BRANCH  12  14
HETATM   14  C2  UNL     1       6.078 -48.903  39.187  1.00  0.00     0.109 C
HETATM   15  C1  UNL     1       6.943 -47.642  39.289  1.00  0.00     0.026 C
ENDBRANCH  12  14
ENDBRANCH  11  12
ENDBRANCH   1  11
TORSDOF 3
ENDMDL