MODEL 1
REMARK VINA RESULT: -6.099890632      0.000      0.000
REMARK  4 active torsions:
REMARK  status: ('A' for Active; 'I' for Inactive)
REMARK    1  A    between atoms: C4_4  and  C5_5
REMARK    2  A    between atoms: C5_5  and  C6_6
REMARK    3  A    between atoms: C6_6  and  N1_7
REMARK    4  A    between atoms: N1_7  and  C7_9
ROOT
HETATM    1  N1  UNL     1      10.316 -51.172  36.299  1.00  0.00    -0.396 N
ATOM      2  H1  UNL     1      10.206 -51.935  36.967  1.00  0.00     0.155 HD
ENDROOT
BRANCH   1   3
HETATM    3  C6  UNL     1      10.439 -49.819  36.721  1.00  0.00     0.116 C
BRANCH   3   4
HETATM    4  C5  UNL     1       9.563 -49.503  37.878  1.00  0.00     0.024 C
BRANCH   4   5
HETATM    5  C4  UNL     1       8.112 -49.820  37.663  1.00  0.00    -0.013 C
HETATM    6  C3  UNL     1       7.352 -50.253  38.868  1.00  0.00     0.005 C
HETATM    7  C2  UNL     1       6.174 -49.245  38.943  1.00  0.00     0.000 C
HETATM    8  C1  UNL     1       5.927 -49.040  37.449  1.00  0.00     0.000 C
HETATM    9  C11 UNL     1       7.365 -48.695  37.007  1.00  0.00     0.005 C
ENDBRANCH   4   5
ENDBRANCH   3   4
ENDBRANCH   1   3
BRANCH   1  10
HETATM   10  C7  UNL     1      10.355 -51.403  34.912  1.00  0.00     0.279 C
HETATM   11  C8  UNL     1       9.439 -50.439  34.153  1.00  0.00     0.055 C
HETATM   12  C9  UNL     1      10.294 -49.915  33.043  1.00  0.00     0.031 C
HETATM   13  C10 UNL     1      11.562 -50.751  33.029  1.00  0.00     0.235 C
HETATM   14  N2  UNL     1      11.664 -51.274  34.361  1.00  0.00    -0.055 N
ATOM     15  H22 UNL     1      12.281 -50.716  34.951  1.00  0.00     0.279 HD
ATOM     16  H21 UNL     1      12.188 -52.149  34.396  1.00  0.00     0.279 HD
ENDBRANCH   1  10
TORSDOF 4
ENDMDL