MODEL 3
REMARK VINA RESULT: -5.487304766      0.987      1.160
REMARK  3 active torsions:
REMARK  status: ('A' for Active; 'I' for Inactive)
REMARK    1  A    between atoms: C2_2  and  C3_3
REMARK    2  A    between atoms: C3_3  and  C4_4
REMARK    3  A    between atoms: C11_14  and  N2_15
ROOT
HETATM    1  C4  UNL     1       9.115 -49.126  37.776  1.00  0.00     0.222 C
HETATM    2  N1  UNL     1       9.231 -50.316  38.604  1.00  0.00    -0.068 N
ATOM      3  H11 UNL     1       8.695 -50.291  39.471  1.00  0.00     0.277 HD
ATOM      4  H12 UNL     1      10.138 -50.441  39.053  1.00  0.00     0.277 HD
HETATM    5  C5  UNL     1       8.857 -51.363  37.692  1.00  0.00     0.240 C
HETATM    6  C6  UNL     1       9.390 -50.968  36.324  1.00  0.00     0.049 C
HETATM    7  C7  UNL     1      10.664 -51.762  36.111  1.00  0.00     0.009 C
HETATM    8  C8  UNL     1      11.325 -51.271  34.847  1.00  0.00     0.001 C
HETATM    9  C9  UNL     1      11.585 -49.795  34.960  1.00  0.00     0.002 C
HETATM   10  C10 UNL     1      11.150 -49.253  36.308  1.00  0.00     0.041 C
HETATM   11  C11 UNL     1       9.682 -49.514  36.429  1.00  0.00     0.157 C
ENDROOT
BRANCH  11  12
HETATM   12  N2  UNL     1       9.003 -48.707  35.432  1.00  0.00    -0.068 N
ATOM     13  H23 UNL     1       8.346 -49.242  34.863  1.00  0.00     0.275 HD
ATOM     14  H22 UNL     1       8.327 -48.058  35.835  1.00  0.00     0.275 HD
ATOM     15  H21 UNL     1       9.724 -48.243  34.880  1.00  0.00     0.275 HD
ENDBRANCH  11  12
BRANCH   1  16
HETATM   16  C3  UNL     1       7.635 -48.876  37.572  1.00  0.00     0.035 C
BRANCH  16  17
HETATM   17  C2  UNL     1       7.003 -48.156  38.734  1.00  0.00    -0.002 C
HETATM   18  C1  UNL     1       5.959 -49.036  39.370  1.00  0.00     0.005 C
ENDBRANCH  16  17
ENDBRANCH   1  16
TORSDOF 3
ENDMDL