MODEL 4
REMARK VINA RESULT: -5.381676221      1.840      2.481
REMARK  5 active torsions:
REMARK  status: ('A' for Active; 'I' for Inactive)
REMARK    1  A    between atoms: C2_2  and  C3_3
REMARK    2  A    between atoms: C3_3  and  C4_4
REMARK    3  A    between atoms: C4_4  and  C5_5
REMARK    4  A    between atoms: C5_5  and  C6_6
REMARK    5  A    between atoms: C9_11  and  C10_12
ROOT
HETATM    1  C6  UNL     1       8.565 -49.635  35.784  1.00  0.00     0.092 C
HETATM    2  C7  UNL     1       9.485 -50.729  36.350  1.00  0.00     0.076 C
HETATM    3  N1  UNL     1      10.839 -50.497  36.428  1.00  0.00    -0.380 N
ATOM      4  H1  UNL     1      11.345 -50.860  37.237  1.00  0.00     0.164 HD
HETATM    5  C8  UNL     1      11.561 -49.792  35.461  1.00  0.00     0.071 C
HETATM    6  C9  UNL     1      10.625 -49.058  34.501  1.00  0.00     0.087 C
HETATM    7  C11 UNL     1       9.511 -48.517  35.300  1.00  0.00     0.038 C
ENDROOT
BRANCH   1   8
HETATM    8  C5  UNL     1       7.535 -49.243  36.480  1.00  0.00    -0.162 C
BRANCH   8   9
HETATM    9  C4  UNL     1       6.406 -48.811  37.242  1.00  0.00     0.160 C
BRANCH   9  10
HETATM   10  C3  UNL     1       6.772 -48.303  38.504  1.00  0.00    -0.172 C
BRANCH  10  11
HETATM   11  C2  UNL     1       7.115 -47.780  39.594  1.00  0.00     0.076 C
HETATM   12  C1  UNL     1       7.258 -46.325  39.808  1.00  0.00     0.017 C
ENDBRANCH  10  11
ENDBRANCH   9  10
ENDBRANCH   8   9
ENDBRANCH   1   8
BRANCH   6  13
HETATM   13  C10 UNL     1      10.325 -49.860  33.315  1.00  0.00     0.241 C
HETATM   14  O1  UNL     1      10.374 -49.457  32.141  1.00  0.00    -0.306 OA
ENDBRANCH   6  13
TORSDOF 5
ENDMDL