MODEL 5
REMARK VINA RESULT: -5.842269612      1.822      5.461
REMARK  4 active torsions:
REMARK  status: ('A' for Active; 'I' for Inactive)
REMARK    1  A    between atoms: N1_1  and  C1_5
REMARK    2  A    between atoms: C4_8  and  N2_9
REMARK    3  A    between atoms: N2_9  and  C5_11
REMARK    4  A    between atoms: C5_11  and  C6_12
ROOT
HETATM    1  C1  UNL     1       6.566 -49.729  38.230  1.00  0.00     0.185 C
HETATM    2  C2  UNL     1       7.659 -50.524  38.909  1.00  0.00     0.035 C
HETATM    3  C3  UNL     1       8.767 -50.588  37.881  1.00  0.00     0.027 C
HETATM    4  C4  UNL     1       8.357 -49.731  36.730  1.00  0.00     0.078 C
HETATM    5  C11 UNL     1       7.392 -48.758  37.417  1.00  0.00     0.057 C
ENDROOT
BRANCH   4   6
HETATM    6  N2  UNL     1       9.369 -48.959  36.133  1.00  0.00    -0.417 N
ATOM      7  H2  UNL     1       9.134 -48.088  35.657  1.00  0.00     0.153 HD
BRANCH   6   8
HETATM    8  C5  UNL     1      10.695 -49.383  36.192  1.00  0.00     0.118 C
BRANCH   8   9
HETATM    9  C6  UNL     1      10.953 -50.311  34.999  1.00  0.00     0.003 C
HETATM   10  C7  UNL     1      10.307 -49.774  33.743  1.00  0.00     0.006 C
HETATM   11  C8  UNL     1      11.006 -50.622  32.672  1.00  0.00     0.000 C
HETATM   12  C9  UNL     1      12.432 -50.717  33.173  1.00  0.00     0.000 C
HETATM   13  C10 UNL     1      12.415 -50.297  34.621  1.00  0.00     0.006 C
ENDBRANCH   8   9
ENDBRANCH   6   8
ENDBRANCH   4   6
BRANCH   1  14
HETATM   14  N1  UNL     1       5.739 -49.016  39.179  1.00  0.00    -0.075 N
ATOM     15  H13 UNL     1       4.748 -49.167  38.992  1.00  0.00     0.274 HD
ATOM     16  H12 UNL     1       5.794 -49.438  40.106  1.00  0.00     0.274 HD
ATOM     17  H11 UNL     1       5.961 -48.021  39.213  1.00  0.00     0.274 HD
ENDBRANCH   1  14
TORSDOF 4
ENDMDL