MODEL 3
REMARK VINA RESULT: -6.151941070      0.956      2.380
REMARK  3 active torsions:
REMARK  status: ('A' for Active; 'I' for Inactive)
REMARK    1  A    between atoms: C2_2  and  C3_3
REMARK    2  A    between atoms: C3_3  and  C4_4
REMARK    3  A    between atoms: C4_4  and  C5_5
ROOT
HETATM    1  C5  UNL     1       9.783 -49.760  36.932  1.00  0.00    -0.010 C
HETATM    2  C6  UNL     1       9.717 -51.248  36.636  1.00  0.00     0.039 C
HETATM    3  C7  UNL     1      10.780 -51.676  35.649  1.00  0.00     0.211 C
HETATM    4  C8  UNL     1      10.112 -51.853  34.286  1.00  0.00     0.265 C
HETATM    5  N1  UNL     1       9.202 -50.735  34.134  1.00  0.00    -0.067 N
ATOM      6  H11 UNL     1       8.342 -50.872  34.665  1.00  0.00     0.277 HD
ATOM      7  H12 UNL     1       8.800 -50.699  33.198  1.00  0.00     0.277 HD
HETATM    8  C9  UNL     1       9.852 -49.509  34.483  1.00  0.00     0.211 C
HETATM    9  C10 UNL     1      11.370 -49.635  34.524  1.00  0.00     0.265 C
HETATM   10  N2  UNL     1      11.717 -50.593  35.518  1.00  0.00    -0.067 N
ATOM     11  H21 UNL     1      12.657 -50.953  35.352  1.00  0.00     0.277 HD
ATOM     12  H22 UNL     1      11.861 -50.136  36.418  1.00  0.00     0.277 HD
HETATM   13  C11 UNL     1       9.301 -48.953  35.757  1.00  0.00     0.039 C
ENDROOT
BRANCH   1  14
HETATM   14  C4  UNL     1       9.049 -49.442  38.207  1.00  0.00     0.005 C
BRANCH  14  15
HETATM   15  C3  UNL     1       8.021 -50.483  38.567  1.00  0.00     0.000 C
BRANCH  15  16
HETATM   16  C2  UNL     1       6.654 -49.923  38.271  1.00  0.00    -0.005 C
HETATM   17  C1  UNL     1       6.241 -48.853  39.239  1.00  0.00     0.005 C
ENDBRANCH  15  16
ENDBRANCH  14  15
ENDBRANCH   1  14
TORSDOF 3
ENDMDL