MODEL 1
REMARK VINA RESULT: -6.305868186      0.000      0.000
REMARK  3 active torsions:
REMARK  status: ('A' for Active; 'I' for Inactive)
REMARK    1  A    between atoms: N1_2  and  C2_5
REMARK    2  A    between atoms: C2_5  and  C3_6
REMARK    3  A    between atoms: C3_6  and  C4_7
ROOT
HETATM    1  C4  UNL     1       9.395 -50.941  36.734  1.00  0.00     0.018 C
HETATM    2  C5  UNL     1       9.384 -51.596  38.116  1.00  0.00     0.009 C
HETATM    3  C6  UNL     1       7.976 -51.339  38.656  1.00  0.00     0.033 C
HETATM    4  C7  UNL     1       7.789 -49.867  38.844  1.00  0.00     0.186 C
HETATM    5  C8  UNL     1       6.458 -49.426  38.282  1.00  0.00     0.033 C
HETATM    6  C9  UNL     1       6.760 -48.471  37.122  1.00  0.00     0.004 C
HETATM    7  C10 UNL     1       7.743 -49.135  36.197  1.00  0.00     0.033 C
HETATM    8  C11 UNL     1       9.041 -49.490  36.860  1.00  0.00     0.190 C
HETATM    9  N2  UNL     1       8.906 -49.145  38.279  1.00  0.00    -0.066 N
ATOM     10  H21 UNL     1       9.770 -49.302  38.798  1.00  0.00     0.278 HD
ATOM     11  H22 UNL     1       8.829 -48.139  38.426  1.00  0.00     0.278 HD
ENDROOT
BRANCH   1  12
HETATM   12  C3  UNL     1      10.682 -51.202  35.999  1.00  0.00     0.034 C
BRANCH  12  13
HETATM   13  C2  UNL     1      11.383 -49.954  35.567  1.00  0.00     0.232 C
BRANCH  13  14
HETATM   14  N1  UNL     1      12.677 -50.274  35.008  1.00  0.00    -0.079 N
HETATM   15  C1  UNL     1      12.664 -50.556  33.603  1.00  0.00     0.266 C
ATOM     16  H12 UNL     1      13.104 -51.044  35.521  1.00  0.00     0.276 HD
ATOM     17  H11 UNL     1      13.346 -49.532  35.216  1.00  0.00     0.276 HD
ENDBRANCH  13  14
ENDBRANCH  12  13
ENDBRANCH   1  12
TORSDOF 3
ENDMDL