MODEL 1
REMARK VINA RESULT: -5.601362394      0.000      0.000
REMARK  3 active torsions:
REMARK  status: ('A' for Active; 'I' for Inactive)
REMARK    1  A    between atoms: C1_1  and  C7_10
REMARK    2  A    between atoms: C2_2  and  C3_3
REMARK    3  A    between atoms: C7_10  and  N2_11
ROOT
HETATM    1  C1  UNL     1       9.244 -49.219  35.721  1.00  0.00    -0.001 C
HETATM    2  C2  UNL     1       9.274 -50.061  34.700  1.00  0.00    -0.023 C
ENDROOT
BRANCH   2   3
HETATM    3  C3  UNL     1      10.560 -50.479  34.049  1.00  0.00     0.035 C
HETATM    4  C4  UNL     1      10.617 -51.997  34.017  1.00  0.00     0.037 C
HETATM    5  C5  UNL     1      11.852 -52.385  34.779  1.00  0.00     0.233 C
HETATM    6  N1  UNL     1      12.691 -51.210  34.810  1.00  0.00    -0.074 N
HETATM    7  C6  UNL     1      11.742 -50.095  34.881  1.00  0.00     0.240 C
ATOM      8  H12 UNL     1      13.389 -51.213  35.553  1.00  0.00     0.277 HD
ATOM      9  H11 UNL     1      13.353 -51.147  34.036  1.00  0.00     0.277 HD
ENDBRANCH   2   3
BRANCH   1  10
HETATM   10  C7  UNL     1       7.981 -48.802  36.369  1.00  0.00     0.299 C
BRANCH  10  11
HETATM   11  N2  UNL     1       8.086 -49.105  37.789  1.00  0.00     0.091 N
HETATM   12  C8  UNL     1       7.119 -50.107  38.184  1.00  0.00     0.273 C
HETATM   13  C9  UNL     1       7.839 -51.110  39.023  1.00  0.00     0.032 C
HETATM   14  C10 UNL     1       9.210 -51.133  38.376  1.00  0.00     0.032 C
HETATM   15  C11 UNL     1       9.400 -49.639  38.106  1.00  0.00     0.273 C
ENDBRANCH  10  11
ENDBRANCH   1  10
TORSDOF 3
ENDMDL