MODEL 1
REMARK VINA RESULT: -4.872843869      0.000      0.000
REMARK  5 active torsions:
REMARK  status: ('A' for Active; 'I' for Inactive)
REMARK    1  A    between atoms: C2_2  and  N1_3
REMARK    2  A    between atoms: N1_3  and  C3_6
REMARK    3  A    between atoms: C3_6  and  C4_7
REMARK    4  A    between atoms: C5_14  and  C6_15
REMARK    5  A    between atoms: C6_15  and  N5_16
ROOT
HETATM    1  C4  UNL     1       9.423  -1.406  18.311  1.00  0.00     0.078 A
HETATM    2  N2  UNL     1      10.565  -0.680  18.579  1.00  0.00    -0.287 N
ATOM      3  H2  UNL     1      11.455  -0.767  18.087  1.00  0.00     0.188 HD
HETATM    4  N3  UNL     1      10.325   0.110  19.537  1.00  0.00    -0.242 N
ATOM      5  H3  UNL     1      11.000   0.762  19.939  1.00  0.00     0.208 HD
HETATM    6  N4  UNL     1       9.060  -0.029  19.948  1.00  0.00    -0.287 N
ATOM      7  H4  UNL     1       8.610   0.490  20.701  1.00  0.00     0.188 HD
HETATM    8  C5  UNL     1       8.485  -0.987  19.181  1.00  0.00     0.078 A
ENDROOT
BRANCH   1   9
HETATM    9  C3  UNL     1       9.192  -2.253  17.135  1.00  0.00     0.292 C
BRANCH   9  10
HETATM   10  N1  UNL     1       9.838  -1.757  15.952  1.00  0.00    -0.070 N
ATOM     11  H12 UNL     1      10.643  -2.325  15.690  1.00  0.00     0.277 HD
ATOM     12  H11 UNL     1      10.325  -0.877  16.122  1.00  0.00     0.277 HD
BRANCH  10  13
HETATM   13  C2  UNL     1       8.871  -1.646  14.865  1.00  0.00     0.228 C
HETATM   14  C1  UNL     1       9.631  -0.665  13.913  1.00  0.00     0.034 C
ENDBRANCH  10  13
ENDBRANCH   9  10
ENDBRANCH   1   9
BRANCH   8  15
HETATM   15  C6  UNL     1       7.125  -1.555  19.407  1.00  0.00     0.290 C
BRANCH  15  16
HETATM   16  N5  UNL     1       6.727  -1.254  20.785  1.00  0.00    -0.074 N
ATOM     17  H53 UNL     1       7.200  -0.432  21.161  1.00  0.00     0.274 HD
ATOM     18  H52 UNL     1       5.771  -0.904  20.851  1.00  0.00     0.274 HD
ATOM     19  H51 UNL     1       6.880  -2.089  21.350  1.00  0.00     0.274 HD
ENDBRANCH  15  16
ENDBRANCH   8  15
TORSDOF 5
ENDMDL