MODEL 1
REMARK VINA RESULT: -3.778173261      0.000      0.000
REMARK  5 active torsions:
REMARK  status: ('A' for Active; 'I' for Inactive)
REMARK    1  A    between atoms: N1_1  and  C1_5
REMARK    2  A    between atoms: C1_5  and  N2_6
REMARK    3  A    between atoms: C1_5  and  C2_10
REMARK    4  A    between atoms: C2_10  and  N3_11
REMARK    5  A    between atoms: C2_10  and  C3_15
ROOT
HETATM    1  C2  UNL     1       9.543  -2.090  16.526  1.00  0.00     0.245 C
ENDROOT
BRANCH   1   2
HETATM    2  C1  UNL     1       9.028  -1.722  15.183  1.00  0.00     0.408 C
BRANCH   2   3
HETATM    3  N1  UNL     1       8.862  -2.843  14.295  1.00  0.00    -0.048 N
ATOM      4  H13 UNL     1       8.125  -3.486  14.587  1.00  0.00     0.276 HD
ATOM      5  H12 UNL     1       8.457  -2.590  13.393  1.00  0.00     0.276 HD
ATOM      6  H11 UNL     1       9.778  -3.285  14.217  1.00  0.00     0.276 HD
ENDBRANCH   2   3
BRANCH   2   7
HETATM    7  N2  UNL     1      10.028  -0.845  14.557  1.00  0.00    -0.048 N
ATOM      8  H23 UNL     1      10.838  -0.667  15.151  1.00  0.00     0.276 HD
ATOM      9  H22 UNL     1      10.531  -1.287  13.788  1.00  0.00     0.276 HD
ATOM     10  H21 UNL     1       9.534   0.004  14.283  1.00  0.00     0.276 HD
ENDBRANCH   2   7
ENDBRANCH   1   2
BRANCH   1  11
HETATM   11  N3  UNL     1       9.530  -3.532  16.663  1.00  0.00    -0.071 N
ATOM     12  H33 UNL     1      10.354  -3.882  17.152  1.00  0.00     0.274 HD
ATOM     13  H32 UNL     1       8.823  -3.851  17.325  1.00  0.00     0.274 HD
ATOM     14  H31 UNL     1       9.416  -3.955  15.742  1.00  0.00     0.274 HD
ENDBRANCH   1  11
BRANCH   1  15
HETATM   15  C3  UNL     1       8.858  -1.459  17.682  1.00  0.00     0.023 C
HETATM   16  C4  UNL     1       9.812  -0.997  18.759  1.00  0.00     0.034 C
HETATM   17  C5  UNL     1       9.023  -0.013  19.623  1.00  0.00     0.232 C
HETATM   18  N4  UNL     1       8.010  -0.806  20.291  1.00  0.00    -0.075 N
HETATM   19  C6  UNL     1       7.100  -1.399  19.347  1.00  0.00     0.232 C
ATOM     20  H42 UNL     1       8.427  -1.509  20.900  1.00  0.00     0.277 HD
ATOM     21  H41 UNL     1       7.513  -0.261  20.996  1.00  0.00     0.277 HD
HETATM   22  C7  UNL     1       7.819  -2.313  18.347  1.00  0.00     0.034 C
ENDBRANCH   1  15
TORSDOF 5
ENDMDL