MODEL 1
REMARK VINA RESULT: -4.564653991      0.000      0.000
REMARK  4 active torsions:
REMARK  status: ('A' for Active; 'I' for Inactive)
REMARK    1  A    between atoms: N1_2  and  C2_5
REMARK    2  A    between atoms: C2_5  and  C3_6
REMARK    3  A    between atoms: C3_6  and  N2_7
REMARK    4  A    between atoms: C5_11  and  N4_12
ROOT
HETATM    1  N2  UNL     1       8.606  -1.476  18.439  1.00  0.00    -0.271 N
HETATM    2  C4  UNL     1       9.836  -0.960  18.467  1.00  0.00     0.218 A
HETATM    3  N3  UNL     1       9.888  -0.124  19.514  1.00  0.00    -0.185 N
ATOM      4  H3  UNL     1      10.695   0.428  19.806  1.00  0.00     0.185 HD
HETATM    5  C5  UNL     1       8.686  -0.144  20.106  1.00  0.00     0.691 A
HETATM    6  N5  UNL     1       7.901  -0.990  19.423  1.00  0.00    -0.129 N
ATOM      7  H5  UNL     1       6.929  -1.212  19.635  1.00  0.00     0.206 HD
ENDROOT
BRANCH   1   8
HETATM    8  C3  UNL     1       8.091  -2.432  17.469  1.00  0.00     0.177 C
BRANCH   8   9
HETATM    9  C2  UNL     1       9.217  -2.856  16.591  1.00  0.00     0.253 C
BRANCH   9  10
HETATM   10  N1  UNL     1       8.919  -2.900  15.186  1.00  0.00    -0.077 N
HETATM   11  C1  UNL     1       8.872  -1.562  14.685  1.00  0.00     0.267 C
ATOM     12  H12 UNL     1       8.066  -3.422  14.984  1.00  0.00     0.276 HD
ATOM     13  H11 UNL     1       9.571  -3.488  14.667  1.00  0.00     0.276 HD
ENDBRANCH   9  10
ENDBRANCH   8   9
ENDBRANCH   1   8
BRANCH   5  14
HETATM   14  N4  UNL     1       8.323   0.534  21.162  1.00  0.00    -0.233 N
ATOM     15  H42 UNL     1       7.719   1.356  21.154  1.00  0.00     0.174 HD
ATOM     16  H41 UNL     1       8.586   0.345  22.128  1.00  0.00     0.174 HD
ENDBRANCH   5  14
TORSDOF 4
ENDMDL