MODEL 2
REMARK VINA RESULT: -4.720025835      1.184      4.590
REMARK  4 active torsions:
REMARK  status: ('A' for Active; 'I' for Inactive)
REMARK    1  A    between atoms: N1_2  and  C2_5
REMARK    2  A    between atoms: C2_5  and  N2_6
REMARK    3  A    between atoms: C2_5  and  C3_10
REMARK    4  A    between atoms: N2_6  and  N3_7
ROOT
HETATM    1  C2  UNL     1       9.084  -0.910  18.644  1.00  0.00     0.348 C
ENDROOT
BRANCH   1   2
HETATM    2  N1  UNL     1       8.487  -2.085  18.058  1.00  0.00    -0.054 N
HETATM    3  C1  UNL     1       9.007  -2.226  16.713  1.00  0.00     0.269 C
ATOM      4  H12 UNL     1       7.467  -2.066  18.087  1.00  0.00     0.279 HD
ATOM      5  H11 UNL     1       8.624  -2.922  18.624  1.00  0.00     0.279 HD
ENDBRANCH   1   2
BRANCH   1   6
HETATM    6  N2  UNL     1      10.463  -1.158  19.028  1.00  0.00    -0.108 NA
BRANCH   6   7
HETATM    7  N3  UNL     1      11.310  -0.118  18.675  1.00  0.00    -0.346 N
ATOM      8  H32 UNL     1      12.222  -0.269  18.244  1.00  0.00     0.172 HD
ATOM      9  H31 UNL     1      10.918   0.798  18.895  1.00  0.00     0.172 HD
ENDBRANCH   6   7
ENDBRANCH   1   6
BRANCH   1  10
HETATM   10  C3  UNL     1       8.338  -0.462  19.850  1.00  0.00     0.088 A
HETATM   11  C4  UNL     1       7.179  -1.027  20.357  1.00  0.00     0.137 A
HETATM   12  N4  UNL     1       6.789  -0.358  21.459  1.00  0.00    -0.289 N
HETATM   13  C5  UNL     1       5.628  -0.637  22.278  1.00  0.00     0.174 C
HETATM   14  N5  UNL     1       7.680   0.600  21.641  1.00  0.00    -0.021 NA
HETATM   15  N6  UNL     1       8.615   0.552  20.686  1.00  0.00    -0.283 N
ATOM     16  H6  UNL     1       9.411   1.185  20.605  1.00  0.00     0.184 HD
ENDBRANCH   1  10
TORSDOF 4
ENDMDL