MODEL 5
REMARK VINA RESULT: -4.510784054      2.543      4.007
REMARK  3 active torsions:
REMARK  status: ('A' for Active; 'I' for Inactive)
REMARK    1  A    between atoms: C2_2  and  N1_3
REMARK    2  A    between atoms: C2_2  and  C5_13
REMARK    3  A    between atoms: N1_3  and  C3_5
ROOT
HETATM    1  N1  UNL     1       8.324   0.607  20.936  1.00  0.00    -0.214 N
ATOM      2  H1  UNL     1       8.365   1.626  20.969  1.00  0.00     0.178 HD
ENDROOT
BRANCH   1   3
HETATM    3  C2  UNL     1       7.632  -0.134  21.958  1.00  0.00     0.159 C
HETATM    4  C1  UNL     1       7.889   0.533  23.285  1.00  0.00     0.040 C
BRANCH   3   5
HETATM    5  C5  UNL     1       6.190  -0.236  21.729  1.00  0.00     0.109 C
HETATM    6  N5  UNL     1       5.383   0.422  22.480  1.00  0.00    -0.389 N
ATOM      7  H52 UNL     1       5.806   0.996  23.210  1.00  0.00     0.157 HD
ATOM      8  H51 UNL     1       4.378   0.351  22.320  1.00  0.00     0.157 HD
HETATM    9  N6  UNL     1       5.601  -1.034  20.712  1.00  0.00    -0.086 NA
ENDBRANCH   3   5
ENDBRANCH   1   3
BRANCH   1  10
HETATM   10  C3  UNL     1       8.949  -0.109  19.879  1.00  0.00     0.694 A
HETATM   11  N2  UNL     1       8.358  -1.037  19.063  1.00  0.00    -0.185 N
HETATM   12  C4  UNL     1       9.274  -1.496  18.197  1.00  0.00     0.215 A
ATOM     13  H2  UNL     1       7.382  -1.330  19.106  1.00  0.00     0.185 HD
HETATM   14  N3  UNL     1      10.428  -0.882  18.446  1.00  0.00    -0.281 N
HETATM   15  N4  UNL     1      10.226  -0.065  19.439  1.00  0.00    -0.131 N
ATOM     16  H3  UNL     1      11.308  -1.024  17.950  1.00  0.00     0.188 HD
ATOM     17  H4  UNL     1      10.946   0.537  19.838  1.00  0.00     0.205 HD
ENDBRANCH   1  10
TORSDOF 3
ENDMDL