MODEL 1
REMARK VINA RESULT: -4.558877446      0.000      0.000
REMARK  5 active torsions:
REMARK  status: ('A' for Active; 'I' for Inactive)
REMARK    1  A    between atoms: N1_1  and  C1_4
REMARK    2  A    between atoms: N3_8  and  C3_9
REMARK    3  A    between atoms: C3_9  and  C4_10
REMARK    4  A    between atoms: C4_10  and  C5_11
REMARK    5  A    between atoms: C5_11  and  N4_12
ROOT
HETATM    1  C1  UNL     1       8.459  -0.100  20.412  1.00  0.00     0.691 A
HETATM    2  N2  UNL     1       9.637   0.014  19.776  1.00  0.00    -0.185 N
ATOM      3  H2  UNL     1      10.420   0.602  20.061  1.00  0.00     0.185 HD
HETATM    4  C2  UNL     1       9.597  -0.783  18.698  1.00  0.00     0.218 A
HETATM    5  N3  UNL     1       8.403  -1.407  18.639  1.00  0.00    -0.273 N
HETATM    6  N5  UNL     1       7.732  -0.972  19.694  1.00  0.00    -0.129 N
ATOM      7  H5  UNL     1       6.784  -1.263  19.931  1.00  0.00     0.206 HD
ENDROOT
BRANCH   5   8
HETATM    8  C3  UNL     1       8.000  -2.339  17.620  1.00  0.00     0.152 C
BRANCH   8   9
HETATM    9  C4  UNL     1       9.120  -2.690  16.674  1.00  0.00     0.049 C
BRANCH   9  10
HETATM   10  C5  UNL     1       8.781  -2.024  15.335  1.00  0.00     0.231 C
BRANCH  10  11
HETATM   11  N4  UNL     1       9.909  -1.189  14.979  1.00  0.00    -0.079 N
ATOM     12  H43 UNL     1      10.714  -1.322  15.590  1.00  0.00     0.274 HD
ATOM     13  H42 UNL     1      10.358  -1.472  14.108  1.00  0.00     0.274 HD
ATOM     14  H41 UNL     1       9.574  -0.226  14.961  1.00  0.00     0.274 HD
ENDBRANCH  10  11
ENDBRANCH   9  10
ENDBRANCH   8   9
ENDBRANCH   5   8
BRANCH   1  15
HETATM   15  N1  UNL     1       8.100   0.518  21.511  1.00  0.00    -0.233 N
ATOM     16  H12 UNL     1       7.787   1.485  21.602  1.00  0.00     0.174 HD
ATOM     17  H11 UNL     1       8.078   0.124  22.451  1.00  0.00     0.174 HD
ENDBRANCH   1  15
TORSDOF 5
ENDMDL