MODEL 5
REMARK VINA RESULT: -4.611554621      1.399      5.694
REMARK  4 active torsions:
REMARK  status: ('A' for Active; 'I' for Inactive)
REMARK    1  A    between atoms: C2_2  and  N1_3
REMARK    2  A    between atoms: C2_2  and  N2_7
REMARK    3  A    between atoms: N2_7  and  N3_9
REMARK    4  A    between atoms: C3_11  and  C4_12
ROOT
HETATM    1  N3  UNL     1       9.388  -1.315  18.015  1.00  0.00    -0.311 N
ATOM      2  H3  UNL     1       9.986  -0.695  18.560  1.00  0.00     0.185 HD
HETATM    3  C3  UNL     1       8.244  -1.571  18.494  1.00  0.00     0.156 C
ENDROOT
BRANCH   1   4
HETATM    4  N2  UNL     1       9.904  -1.792  16.829  1.00  0.00    -0.307 N
ATOM      5  H2  UNL     1      10.829  -2.221  16.860  1.00  0.00     0.182 HD
BRANCH   4   6
HETATM    6  C2  UNL     1       9.249  -1.734  15.558  1.00  0.00     0.292 C
HETATM    7  C1  UNL     1       8.842  -3.106  15.082  1.00  0.00     0.064 C
BRANCH   6   8
HETATM    8  N1  UNL     1      10.007  -1.014  14.551  1.00  0.00    -0.058 N
ATOM      9  H13 UNL     1      10.993  -1.274  14.572  1.00  0.00     0.276 HD
ATOM     10  H12 UNL     1       9.776  -1.338  13.611  1.00  0.00     0.276 HD
ATOM     11  H11 UNL     1       9.888  -0.004  14.635  1.00  0.00     0.276 HD
ENDBRANCH   6   8
ENDBRANCH   4   6
ENDBRANCH   1   4
BRANCH   3  12
HETATM   12  C4  UNL     1       7.891  -0.950  19.788  1.00  0.00     0.138 A
HETATM   13  N4  UNL     1       8.547   0.047  20.411  1.00  0.00    -0.335 N
HETATM   14  C5  UNL     1       7.912   0.328  21.558  1.00  0.00     0.199 A
ATOM     15  H4  UNL     1       9.388   0.512  20.067  1.00  0.00     0.168 HD
HETATM   16  N5  UNL     1       6.856  -0.496  21.654  1.00  0.00    -0.295 N
HETATM   17  N6  UNL     1       6.855  -1.260  20.582  1.00  0.00    -0.283 N
ATOM     18  H5  UNL     1       6.179  -0.525  22.417  1.00  0.00     0.187 HD
ATOM     19  H6  UNL     1       6.165  -1.984  20.383  1.00  0.00     0.188 HD
ENDBRANCH   3  12
TORSDOF 4
ENDMDL