MODEL 3
REMARK VINA RESULT: -4.219599855      2.206      3.159
REMARK  5 active torsions:
REMARK  status: ('A' for Active; 'I' for Inactive)
REMARK    1  A    between atoms: N1_1  and  N2_4
REMARK    2  A    between atoms: C1_6  and  N3_7
REMARK    3  A    between atoms: N3_7  and  N4_9
REMARK    4  A    between atoms: N4_9  and  C2_11
REMARK    5  A    between atoms: N6_16  and  N7_18
ROOT
HETATM    1  C2  UNL     1       7.140   0.018  22.834  1.00  0.00     0.124 C
HETATM    2  C3  UNL     1       5.685  -0.180  23.189  1.00  0.00     0.148 C
HETATM    3  N5  UNL     1       5.161   1.181  23.116  1.00  0.00    -0.377 N
ATOM      4  H5  UNL     1       4.257   1.480  22.748  1.00  0.00     0.160 HD
HETATM    5  C4  UNL     1       6.183   1.997  23.671  1.00  0.00     0.093 C
HETATM    6  N6  UNL     1       5.993   3.172  24.201  1.00  0.00    -0.296 N
ATOM      7  H6  UNL     1       5.051   3.561  24.235  1.00  0.00     0.187 HD
HETATM    8  C5  UNL     1       7.499   1.298  23.550  1.00  0.00     0.105 C
ENDROOT
BRANCH   1   9
HETATM    9  N4  UNL     1       7.273   0.109  21.435  1.00  0.00    -0.329 N
ATOM     10  H4  UNL     1       6.499  -0.142  20.820  1.00  0.00     0.180 HD
BRANCH   9  11
HETATM   11  N3  UNL     1       8.448   0.537  20.927  1.00  0.00    -0.299 N
ATOM     12  H3  UNL     1       8.933   1.335  21.338  1.00  0.00     0.187 HD
BRANCH  11  13
HETATM   13  C1  UNL     1       9.001  -0.156  19.798  1.00  0.00     0.212 C
HETATM   14  N2  UNL     1      10.243  -0.101  19.535  1.00  0.00    -0.301 N
ATOM     15  H2  UNL     1      10.857   0.446  20.139  1.00  0.00     0.187 HD
BRANCH  14  16
HETATM   16  N1  UNL     1      10.780  -0.767  18.449  1.00  0.00    -0.344 N
ATOM     17  H12 UNL     1      10.154  -1.322  17.866  1.00  0.00     0.176 HD
ATOM     18  H11 UNL     1      11.774  -0.710  18.229  1.00  0.00     0.176 HD
ENDBRANCH  14  16
ENDBRANCH  11  13
ENDBRANCH   9  11
ENDBRANCH   1   9
BRANCH   6  19
HETATM   19  N7  UNL     1       7.052   3.902  24.720  1.00  0.00    -0.344 N
ATOM     20  H72 UNL     1       7.958   3.842  24.255  1.00  0.00     0.176 HD
ATOM     21  H71 UNL     1       6.933   4.487  25.547  1.00  0.00     0.176 HD
ENDBRANCH   6  19
TORSDOF 5
ENDMDL