MODEL 1
REMARK VINA RESULT: -7.930642297      0.000      0.000
REMARK  11 active torsions:
REMARK  status: ('A' for Active; 'I' for Inactive)
REMARK    1  A    between atoms: C1_2  and  C2_4
REMARK    2  A    between atoms: C4_6  and  C5_7
REMARK    3  A    between atoms: C8_11  and  O3_12
REMARK    4  A    between atoms: C9_14  and  O4_15
REMARK    5  A    between atoms: N2_17  and  O5_18
REMARK    6  A    between atoms: N4_22  and  C10_23
REMARK    7  A    between atoms: C10_23  and  C11_24
REMARK    8  A    between atoms: C11_24  and  O6_25
REMARK    9  A    between atoms: O6_25  and  C12_26
REMARK   10  A    between atoms: C13_29  and  N6_30
REMARK   11  A    between atoms: C13_29  and  N7_34
ROOT
HETATM    1  C2  UNL     1      14.803  -3.322  -6.288  1.00  0.00     0.118 A
HETATM    2  C3  UNL     1      13.873  -3.730  -5.345  1.00  0.00     0.070 A
HETATM    3  C4  UNL     1      13.875  -2.779  -4.350  1.00  0.00     0.080 A
HETATM    4  N3  UNL     1      14.788  -1.827  -4.696  1.00  0.00    -0.296 N
ATOM      5  H3  UNL     1      15.008  -0.995  -4.148  1.00  0.00     0.187 HD
HETATM    6  N4  UNL     1      15.351  -2.151  -5.866  1.00  0.00    -0.285 N
ENDROOT
BRANCH   6   7
HETATM    7  C10 UNL     1      16.358  -1.355  -6.530  1.00  0.00     0.176 C
BRANCH   7   8
HETATM    8  C11 UNL     1      17.754  -1.822  -6.192  1.00  0.00     0.200 C
BRANCH   8   9
HETATM    9  O6  UNL     1      17.870  -2.188  -4.831  1.00  0.00    -0.320 OA
BRANCH   9  10
HETATM   10  C12 UNL     1      18.413  -3.447  -4.529  1.00  0.00     0.235 C
HETATM   11  N5  UNL     1      19.274  -3.602  -3.602  1.00  0.00    -0.285 N
HETATM   12  C13 UNL     1      19.633  -5.016  -3.543  1.00  0.00     0.428 C
ATOM     13  H5  UNL     1      19.647  -2.866  -3.004  1.00  0.00     0.169 HD
HETATM   14  N8  UNL     1      19.178  -5.583  -4.797  1.00  0.00    -0.051 NA
HETATM   15  N9  UNL     1      18.149  -4.693  -5.127  1.00  0.00    -0.263 N
ATOM     16  H9  UNL     1      17.339  -4.913  -5.707  1.00  0.00     0.186 HD
BRANCH  12  17
HETATM   17  N6  UNL     1      21.053  -5.157  -3.375  1.00  0.00    -0.011 N
ATOM     18  H63 UNL     1      21.538  -5.234  -4.269  1.00  0.00     0.281 HD
ATOM     19  H62 UNL     1      21.486  -4.295  -3.045  1.00  0.00     0.281 HD
ATOM     20  H61 UNL     1      21.257  -5.946  -2.761  1.00  0.00     0.281 HD
ENDBRANCH  12  17
BRANCH  12  21
HETATM   21  N7  UNL     1      18.921  -5.577  -2.410  1.00  0.00    -0.074 N
HETATM   22  O7  UNL     1      19.212  -6.669  -1.889  1.00  0.00    -0.532 OA
HETATM   23  O8  UNL     1      17.872  -4.835  -1.912  1.00  0.00    -0.532 OA
ENDBRANCH  12  21
ENDBRANCH   9  10
ENDBRANCH   8   9
ENDBRANCH   7   8
ENDBRANCH   6   7
BRANCH   1  24
HETATM   24  C1  UNL     1      15.118  -4.046  -7.504  1.00  0.00     0.283 C
HETATM   25  N1  UNL     1      14.131  -4.146  -8.514  1.00  0.00    -0.056 NA
HETATM   26  O1  UNL     1      16.226  -4.588  -7.706  1.00  0.00    -0.269 OA
ENDBRANCH   1  24
BRANCH   3  27
HETATM   27  C5  UNL     1      13.044  -2.811  -3.160  1.00  0.00     0.097 A
HETATM   28  C6  UNL     1      12.675  -4.013  -2.606  1.00  0.00     0.092 A
HETATM   29  C7  UNL     1      11.878  -4.023  -1.465  1.00  0.00     0.211 A
HETATM   30  O2  UNL     1      11.531  -5.107  -0.946  1.00  0.00    -0.285 OA
HETATM   31  C8  UNL     1      11.456  -2.845  -0.883  1.00  0.00     0.170 A
HETATM   32  C9  UNL     1      11.856  -1.663  -1.479  1.00  0.00     0.205 A
HETATM   33  N2  UNL     1      12.629  -1.674  -2.586  1.00  0.00    -0.197 N
BRANCH  31  34
HETATM   34  O3  UNL     1      10.659  -2.834   0.260  1.00  0.00    -0.354 OA
ATOM     35  H3  UNL     1       9.711  -2.866   0.210  1.00  0.00     0.218 HD
ENDBRANCH  31  34
BRANCH  32  36
HETATM   36  O4  UNL     1      11.428  -0.481  -0.889  1.00  0.00    -0.342 OA
ATOM     37  H4  UNL     1      11.957   0.292  -1.038  1.00  0.00     0.219 HD
ENDBRANCH  32  36
BRANCH  33  38
HETATM   38  O5  UNL     1      13.005  -0.473  -3.149  1.00  0.00    -0.280 OA
ATOM     39  H5  UNL     1      13.921  -0.337  -3.365  1.00  0.00     0.245 HD
ENDBRANCH  33  38
ENDBRANCH   3  27
TORSDOF 11
ENDMDL