MODEL 4
REMARK VINA RESULT: -9.208616743      0.985      1.245
REMARK  10 active torsions:
REMARK  status: ('A' for Active; 'I' for Inactive)
REMARK    1  A    between atoms: N1_2  and  C2_4
REMARK    2  A    between atoms: C3_7  and  C4_8
REMARK    3  A    between atoms: C4_8  and  C5_10
REMARK    4  A    between atoms: C5_10  and  N3_11
REMARK    5  A    between atoms: C6_12  and  N4_13
REMARK    6  A    between atoms: C8_23  and  O2_24
REMARK    7  A    between atoms: O2_24  and  N8_25
REMARK    8  A    between atoms: N8_25  and  C9_27
REMARK    9  A    between atoms: C10_30  and  O3_31
REMARK   10  A    between atoms: C14_43  and  O4_44
ROOT
HETATM    1  N3  UNL     1      14.211  -2.400  -3.235  1.00  0.00    -0.157 N
HETATM    2  C6  UNL     1      14.096  -1.057  -3.090  1.00  0.00     0.681 A
HETATM    3  N5  UNL     1      13.032  -0.845  -2.308  1.00  0.00    -0.172 N
ATOM      4  H5  UNL     1      12.696   0.075  -2.022  1.00  0.00     0.186 HD
HETATM    5  C7  UNL     1      12.469  -2.002  -1.954  1.00  0.00     0.181 A
HETATM    6  N6  UNL     1      11.388  -2.330  -1.184  1.00  0.00    -0.279 N
ATOM      7  H6  UNL     1      10.818  -1.611  -0.737  1.00  0.00     0.189 HD
HETATM    8  N7  UNL     1      11.109  -3.613  -1.041  1.00  0.00    -0.262 N
ATOM      9  H7  UNL     1      10.305  -3.873  -0.469  1.00  0.00     0.190 HD
HETATM   10  C8  UNL     1      11.832  -4.596  -1.610  1.00  0.00     0.264 A
HETATM   11  N12 UNL     1      12.902  -4.320  -2.374  1.00  0.00    -0.302 N
ATOM     12  H12 UNL     1      13.454  -5.058  -2.811  1.00  0.00     0.171 HD
HETATM   13  C12 UNL     1      13.210  -2.997  -2.536  1.00  0.00     0.173 A
ENDROOT
BRANCH   1  14
HETATM   14  C5  UNL     1      15.186  -3.112  -4.018  1.00  0.00     0.235 C
BRANCH  14  15
HETATM   15  C4  UNL     1      16.367  -3.626  -3.314  1.00  0.00     0.195 C
HETATM   16  O1  UNL     1      16.260  -3.911  -2.053  1.00  0.00    -0.289 OA
BRANCH  15  17
HETATM   17  C3  UNL     1      17.688  -3.864  -3.876  1.00  0.00     0.100 A
HETATM   18  N2  UNL     1      18.269  -3.104  -4.796  1.00  0.00    -0.188 N
HETATM   19  C2  UNL     1      19.470  -3.263  -5.350  1.00  0.00     0.680 A
ATOM     20  H2  UNL     1      17.730  -2.300  -5.118  1.00  0.00     0.184 HD
HETATM   21  N13 UNL     1      20.198  -4.322  -4.935  1.00  0.00    -0.171 N
HETATM   22  C14 UNL     1      19.679  -5.147  -3.998  1.00  0.00     0.157 A
ATOM     23  H13 UNL     1      21.126  -4.496  -5.322  1.00  0.00     0.186 HD
HETATM   24  C13 UNL     1      18.441  -4.964  -3.441  1.00  0.00     0.090 A
BRANCH  19  25
HETATM   25  N1  UNL     1      19.919  -2.448  -6.240  1.00  0.00    -0.230 N
HETATM   26  C1  UNL     1      19.097  -1.730  -7.160  1.00  0.00     0.165 C
ATOM     27  H1  UNL     1      20.928  -2.306  -6.292  1.00  0.00     0.177 HD
ENDBRANCH  19  25
BRANCH  22  28
HETATM   28  O4  UNL     1      20.400  -6.257  -3.538  1.00  0.00    -0.346 OA
ATOM     29  H4  UNL     1      20.709  -6.858  -4.206  1.00  0.00     0.219 HD
ENDBRANCH  22  28
ENDBRANCH  15  17
ENDBRANCH  14  15
ENDBRANCH   1  14
BRANCH   2  30
HETATM   30  N4  UNL     1      14.881  -0.176  -3.621  1.00  0.00    -0.234 N
ATOM     31  H42 UNL     1      14.623   0.646  -4.168  1.00  0.00     0.174 HD
ATOM     32  H41 UNL     1      15.899  -0.183  -3.564  1.00  0.00     0.174 HD
ENDBRANCH   2  30
BRANCH  10  33
HETATM   33  O2  UNL     1      11.413  -5.907  -1.367  1.00  0.00    -0.184 OA
BRANCH  33  34
HETATM   34  N8  UNL     1      10.489  -6.557  -2.130  1.00  0.00    -0.088 N
ATOM     35  H8  UNL     1       9.627  -6.062  -2.361  1.00  0.00     0.214 HD
BRANCH  34  36
HETATM   36  C9  UNL     1      10.650  -7.879  -2.624  1.00  0.00     0.699 C
HETATM   37  N9  UNL     1       9.959  -8.309  -3.629  1.00  0.00    -0.173 N
HETATM   38  C10 UNL     1      10.080  -9.644  -4.176  1.00  0.00     0.442 C
ATOM     39  H9  UNL     1       9.291  -7.671  -4.062  1.00  0.00     0.182 HD
HETATM   40  N10 UNL     1      10.583 -10.578  -3.180  1.00  0.00    -0.014 N
HETATM   41  C11 UNL     1      11.836 -10.059  -2.680  1.00  0.00     0.376 C
ATOM     42 2H10 UNL     1       9.909 -10.767  -2.438  1.00  0.00     0.284 HD
ATOM     43 1H10 UNL     1      10.663 -11.531  -3.536  1.00  0.00     0.284 HD
HETATM   44  N11 UNL     1      11.578  -8.798  -2.040  1.00  0.00    -0.200 N
ATOM     45  H11 UNL     1      12.055  -8.559  -1.170  1.00  0.00     0.179 HD
BRANCH  38  46
HETATM   46  O3  UNL     1       8.784 -10.070  -4.496  1.00  0.00    -0.354 OA
ATOM     47  H3  UNL     1       8.252  -9.287  -4.585  1.00  0.00     0.214 HD
ENDBRANCH  38  46
ENDBRANCH  34  36
ENDBRANCH  33  34
ENDBRANCH  10  33
TORSDOF 10
ENDMDL