MODEL 5
REMARK VINA RESULT: -7.983932324      4.629      6.658
REMARK  9 active torsions:
REMARK  status: ('A' for Active; 'I' for Inactive)
REMARK    1  A    between atoms: C4_8  and  N3_9
REMARK    2  A    between atoms: C7_19  and  N6_20
REMARK    3  A    between atoms: N6_20  and  N7_22
REMARK    4  A    between atoms: C8_25  and  N8_26
REMARK    5  A    between atoms: C9_31  and  N11_32
REMARK       I    between atoms: N11_32  and  C10_34
REMARK    6  A    between atoms: C10_34  and  C11_36
REMARK    7  A    between atoms: C11_36  and  C13_38
REMARK    8  A    between atoms: C13_38  and  N12_39
REMARK    9  A    between atoms: C14_47  and  O2_48
ROOT
HETATM    1  C1  UNL     1      12.792  -2.184  -6.703  1.00  0.00     0.070 C
HETATM    2  C2  UNL     1      13.548  -1.254  -7.605  1.00  0.00     0.038 A
HETATM    3  N1  UNL     1      12.919  -0.255  -8.265  1.00  0.00    -0.343 N
ATOM      4  H1  UNL     1      11.913  -0.141  -8.140  1.00  0.00     0.167 HD
HETATM    5  C3  UNL     1      13.575   0.601  -9.086  1.00  0.00     0.137 A
HETATM    6  N2  UNL     1      12.899   1.589  -9.721  1.00  0.00    -0.176 N
ATOM      7  H2  UNL     1      11.893   1.681  -9.581  1.00  0.00     0.186 HD
HETATM    8  C4  UNL     1      13.539   2.448 -10.536  1.00  0.00     0.679 A
HETATM    9  N4  UNL     1      14.849   2.307 -10.702  1.00  0.00    -0.176 N
ATOM     10  H4  UNL     1      15.330   2.961 -11.319  1.00  0.00     0.186 HD
HETATM   11  C5  UNL     1      15.599   1.320 -10.081  1.00  0.00     0.131 A
HETATM   12  N5  UNL     1      16.800   1.254 -10.264  1.00  0.00    -0.384 N
ATOM     13  H51 UNL     1      17.352   0.527  -9.808  1.00  0.00     0.157 HD
ATOM     14  H52 UNL     1      17.290   1.903 -10.880  1.00  0.00     0.157 HD
HETATM   15  C6  UNL     1      14.929   0.431  -9.239  1.00  0.00     0.083 A
HETATM   16  C7  UNL     1      15.585  -0.587  -8.571  1.00  0.00     0.096 A
HETATM   17  C8  UNL     1      14.904  -1.461  -7.729  1.00  0.00     0.112 A
ENDROOT
BRANCH  17  18
HETATM   18  N8  UNL     1      15.525  -2.518  -7.017  1.00  0.00    -0.212 N
HETATM   19  N9  UNL     1      15.816  -3.739  -7.496  1.00  0.00    -0.232 N
HETATM   20  N10 UNL     1      16.387  -4.481  -6.594  1.00  0.00    -0.267 N
ATOM     21  H9  UNL     1      15.614  -4.046  -8.448  1.00  0.00     0.209 HD
HETATM   22  C9  UNL     1      16.497  -3.761  -5.465  1.00  0.00     0.177 A
ATOM     23  H10 UNL     1      16.698  -5.443  -6.721  1.00  0.00     0.190 HD
HETATM   24  C14 UNL     1      15.951  -2.529  -5.745  1.00  0.00     0.210 A
BRANCH  22  25
HETATM   25  N11 UNL     1      17.060  -4.190  -4.222  1.00  0.00    -0.308 N
HETATM   26  C10 UNL     1      18.431  -4.476  -4.084  1.00  0.00     0.228 C
HETATM   27  O1  UNL     1      19.179  -4.342  -5.084  1.00  0.00    -0.273 OA
ATOM     28  H11 UNL     1      16.450  -4.292  -3.412  1.00  0.00     0.170 HD
BRANCH  26  29
HETATM   29  C11 UNL     1      19.047  -4.931  -2.815  1.00  0.00     0.095 C
HETATM   30  C12 UNL     1      18.099  -4.592  -1.689  1.00  0.00     0.021 C
BRANCH  29  31
HETATM   31  C13 UNL     1      19.361  -6.411  -2.863  1.00  0.00     0.182 C
BRANCH  31  32
HETATM   32  N12 UNL     1      20.806  -6.629  -2.892  1.00  0.00    -0.200 N
HETATM   33  N13 UNL     1      21.465  -7.780  -2.877  1.00  0.00     0.014 NA
HETATM   34  N14 UNL     1      22.770  -7.533  -2.913  1.00  0.00    -0.209 N
HETATM   35  N15 UNL     1      22.946  -6.231  -2.950  1.00  0.00    -0.214 N
ATOM     36  H14 UNL     1      23.510  -8.235  -2.912  1.00  0.00     0.207 HD
HETATM   37  N16 UNL     1      21.751  -5.698  -2.937  1.00  0.00    -0.212 N
ATOM     38  H15 UNL     1      23.836  -5.735  -2.983  1.00  0.00     0.211 HD
ATOM     39  H16 UNL     1      21.568  -4.695  -2.958  1.00  0.00     0.211 HD
ENDBRANCH  31  32
ENDBRANCH  29  31
ENDBRANCH  26  29
ENDBRANCH  22  25
BRANCH  24  40
HETATM   40  O2  UNL     1      15.877  -1.494  -4.825  1.00  0.00    -0.342 OA
ATOM     41  H2  UNL     1      15.187  -0.846  -4.740  1.00  0.00     0.219 HD
ENDBRANCH  24  40
ENDBRANCH  17  18
BRANCH  16  42
HETATM   42  N6  UNL     1      16.966  -0.813  -8.724  1.00  0.00    -0.304 N
ATOM     43  H6  UNL     1      17.328  -1.281  -9.555  1.00  0.00     0.186 HD
BRANCH  42  44
HETATM   44  N7  UNL     1      17.839  -0.378  -7.705  1.00  0.00    -0.345 N
ATOM     45  H72 UNL     1      17.696  -0.694  -6.746  1.00  0.00     0.176 HD
ATOM     46  H71 UNL     1      18.604   0.251  -7.952  1.00  0.00     0.176 HD
ENDBRANCH  42  44
ENDBRANCH  16  42
BRANCH   8  47
HETATM   47  N3  UNL     1      12.883   3.394 -11.143  1.00  0.00    -0.234 N
ATOM     48  H32 UNL     1      11.880   3.513 -11.002  1.00  0.00     0.174 HD
ATOM     49  H31 UNL     1      13.364   4.035 -11.773  1.00  0.00     0.174 HD
ENDBRANCH   8  47
TORSDOF 9
ENDMDL