MODEL 5
REMARK VINA RESULT: -6.631648714      1.564      2.000
REMARK  14 active torsions:
REMARK  status: ('A' for Active; 'I' for Inactive)
REMARK    1  A    between atoms: O1_2  and  N1_3
REMARK       I    between atoms: N1_3  and  C2_5
REMARK    2  A    between atoms: C2_5  and  C3_7
REMARK    3  A    between atoms: C3_7  and  O4_9
REMARK    4  A    between atoms: O4_9  and  C4_10
REMARK    5  A    between atoms: C7_13  and  O5_14
REMARK    6  A    between atoms: C8_16  and  O6_17
REMARK    7  A    between atoms: C9_19  and  N2_20
REMARK       I    between atoms: N2_20  and  C10_22
REMARK    8  A    between atoms: C10_22  and  O8_24
REMARK    9  A    between atoms: O8_24  and  C11_25
REMARK   10  A    between atoms: C11_25  and  C12_26
REMARK   11  A    between atoms: C12_26  and  O9_27
REMARK   12  A    between atoms: C13_29  and  O10_30
REMARK   13  A    between atoms: N3_33  and  N4_34
REMARK   14  A    between atoms: N5_37  and  O11_38
ROOT
HETATM    1  C4  UNL     1      17.132  -0.479  -8.059  1.00  0.00     0.181 C
HETATM    2  C5  UNL     1      16.717  -0.974  -6.901  1.00  0.00     0.121 A
HETATM    3  C6  UNL     1      17.517  -1.857  -6.032  1.00  0.00     0.066 A
HETATM    4  C7  UNL     1      18.798  -2.382  -6.122  1.00  0.00     0.116 A
HETATM    5  C8  UNL     1      19.311  -3.198  -5.137  1.00  0.00     0.130 A
HETATM    6  C9  UNL     1      18.532  -3.491  -4.047  1.00  0.00     0.108 A
HETATM    7  C13 UNL     1      17.233  -2.965  -3.945  1.00  0.00     0.127 A
HETATM    8  C14 UNL     1      16.703  -2.149  -4.920  1.00  0.00     0.127 A
HETATM    9  N3  UNL     1      15.458  -1.495  -5.062  1.00  0.00    -0.173 N
HETATM   10  N5  UNL     1      15.464  -0.782  -6.264  1.00  0.00    -0.139 N
ENDROOT
BRANCH   1  11
HETATM   11  O4  UNL     1      16.215   0.352  -8.745  1.00  0.00    -0.281 OA
BRANCH  11  12
HETATM   12  C3  UNL     1      15.514  -0.131  -9.842  1.00  0.00     0.358 C
HETATM   13  O3  UNL     1      14.697  -1.061  -9.634  1.00  0.00    -0.253 OA
BRANCH  12  14
HETATM   14  C2  UNL     1      15.671   0.371 -11.195  1.00  0.00     0.340 C
HETATM   15  N1  UNL     1      16.125   1.701 -11.377  1.00  0.00    -0.227 N
ATOM     16  H1  UNL     1      16.325   2.258 -10.546  1.00  0.00     0.198 HD
HETATM   17  O2  UNL     1      15.392  -0.411 -12.129  1.00  0.00    -0.260 OA
BRANCH  15  18
HETATM   18  O1  UNL     1      16.309   2.275 -12.586  1.00  0.00    -0.282 OA
HETATM   19  C1  UNL     1      15.182   3.052 -12.860  1.00  0.00     0.237 C
ENDBRANCH  15  18
ENDBRANCH  12  14
ENDBRANCH  11  12
ENDBRANCH   1  11
BRANCH  10  20
HETATM   20  O11 UNL     1      14.463  -0.030  -6.767  1.00  0.00    -0.266 OA
ATOM     21  H11 UNL     1      13.551  -0.295  -6.784  1.00  0.00     0.247 HD
ENDBRANCH  10  20
BRANCH   4  22
HETATM   22  O5  UNL     1      19.559  -2.071  -7.229  1.00  0.00    -0.357 OA
ATOM     23  H5  UNL     1      20.426  -1.706  -7.093  1.00  0.00     0.217 HD
ENDBRANCH   4  22
BRANCH   9  24
HETATM   24  N4  UNL     1      14.360  -1.499  -4.214  1.00  0.00    -0.322 N
ATOM     25  H42 UNL     1      13.404  -1.459  -4.566  1.00  0.00     0.179 HD
ATOM     26  H41 UNL     1      14.329  -1.540  -3.195  1.00  0.00     0.179 HD
ENDBRANCH   9  24
BRANCH   5  27
HETATM   27  O6  UNL     1      20.593  -3.733  -5.210  1.00  0.00    -0.356 OA
ATOM     28  H6  UNL     1      21.001  -3.961  -6.037  1.00  0.00     0.218 HD
ENDBRANCH   5  27
BRANCH   7  29
HETATM   29  O10 UNL     1      16.495  -3.294  -2.829  1.00  0.00    -0.356 OA
ATOM     30  H10 UNL     1      16.518  -4.197  -2.535  1.00  0.00     0.218 HD
ENDBRANCH   7  29
BRANCH   6  31
HETATM   31  N2  UNL     1      19.024  -4.311  -3.007  1.00  0.00    -0.298 N
HETATM   32  C10 UNL     1      19.494  -5.644  -3.181  1.00  0.00     0.365 C
HETATM   33  O7  UNL     1      19.469  -6.115  -4.342  1.00  0.00    -0.238 OA
ATOM     34  H2  UNL     1      19.043  -3.920  -2.066  1.00  0.00     0.171 HD
BRANCH  32  35
HETATM   35  O8  UNL     1      19.959  -6.415  -2.152  1.00  0.00    -0.302 OA
BRANCH  35  36
HETATM   36  C11 UNL     1      20.856  -7.450  -2.282  1.00  0.00     0.206 C
BRANCH  36  37
HETATM   37  C12 UNL     1      22.270  -7.008  -2.460  1.00  0.00     0.191 C
BRANCH  37  38
HETATM   38  O9  UNL     1      22.910  -7.799  -3.445  1.00  0.00    -0.399 OA
ATOM     39  H9  UNL     1      23.297  -7.244  -4.112  1.00  0.00     0.209 HD
ENDBRANCH  37  38
ENDBRANCH  36  37
ENDBRANCH  35  36
ENDBRANCH  32  35
ENDBRANCH   6  31
TORSDOF 14
ENDMDL