MODEL 3
REMARK VINA RESULT: -8.960587788      2.012      3.153
REMARK  9 active torsions:
REMARK  status: ('A' for Active; 'I' for Inactive)
REMARK    1  A    between atoms: C2_10  and  N5_11
REMARK    2  A    between atoms: C3_17  and  N7_18
REMARK    3  A    between atoms: N7_18  and  C4_20
REMARK    4  A    between atoms: N8_22  and  C6_23
REMARK    5  A    between atoms: C6_23  and  C7_24
REMARK    6  A    between atoms: C7_24  and  C8_26
REMARK    7  A    between atoms: C8_26  and  C9_27
REMARK    8  A    between atoms: N11_32  and  C10_33
REMARK    9  A    between atoms: C14_37  and  O2_38
ROOT
HETATM    1  C4  UNL     1      13.290  -5.217  -6.567  1.00  0.00     0.140 A
HETATM    2  C5  UNL     1      13.537  -4.203  -7.463  1.00  0.00     0.162 A
HETATM    3  N8  UNL     1      14.882  -4.016  -7.541  1.00  0.00    -0.278 N
HETATM    4  N13 UNL     1      15.428  -4.890  -6.717  1.00  0.00    -0.239 N
ATOM      5  H13 UNL     1      16.431  -4.991  -6.558  1.00  0.00     0.208 HD
HETATM    6  N14 UNL     1      14.489  -5.621  -6.123  1.00  0.00    -0.270 N
ATOM      7  H14 UNL     1      14.652  -6.365  -5.444  1.00  0.00     0.190 HD
ENDROOT
BRANCH   3   8
HETATM    8  C6  UNL     1      15.566  -3.056  -8.360  1.00  0.00     0.228 C
BRANCH   8   9
HETATM    9  C7  UNL     1      16.130  -2.003  -7.461  1.00  0.00     0.153 C
HETATM   10  O1  UNL     1      15.435  -1.537  -6.599  1.00  0.00    -0.296 OA
BRANCH   9  11
HETATM   11  C8  UNL     1      17.529  -1.530  -7.621  1.00  0.00     0.159 C
BRANCH  11  12
HETATM   12  C9  UNL     1      18.371  -2.244  -6.627  1.00  0.00     0.120 A
HETATM   13  N9  UNL     1      19.708  -2.203  -6.472  1.00  0.00    -0.271 N
HETATM   14  N10 UNL     1      20.026  -2.990  -5.470  1.00  0.00    -0.220 N
ATOM     15  H9  UNL     1      20.360  -1.656  -7.035  1.00  0.00     0.190 HD
HETATM   16  N11 UNL     1      18.959  -3.555  -4.950  1.00  0.00    -0.181 N
ATOM     17  H10 UNL     1      20.978  -3.144  -5.138  1.00  0.00     0.210 HD
HETATM   18  N12 UNL     1      17.938  -3.100  -5.657  1.00  0.00    -0.265 N
ATOM     19  H12 UNL     1      16.963  -3.354  -5.499  1.00  0.00     0.190 HD
BRANCH  16  20
HETATM   20  C10 UNL     1      18.951  -4.461  -3.852  1.00  0.00     0.079 A
HETATM   21  C11 UNL     1      18.182  -4.176  -2.732  1.00  0.00     0.033 A
HETATM   22  C12 UNL     1      18.135  -5.011  -1.642  1.00  0.00     0.005 A
HETATM   23  C13 UNL     1      18.856  -6.180  -1.617  1.00  0.00     0.036 A
HETATM   24  C14 UNL     1      19.630  -6.480  -2.730  1.00  0.00     0.068 A
HETATM   25  C15 UNL     1      19.676  -5.634  -3.829  1.00  0.00     0.069 A
BRANCH  24  26
HETATM   26  O2  UNL     1      20.358  -7.672  -2.687  1.00  0.00    -0.361 OA
ATOM     27  H2  UNL     1      21.180  -7.688  -3.163  1.00  0.00     0.217 HD
ENDBRANCH  24  26
ENDBRANCH  16  20
ENDBRANCH  11  12
ENDBRANCH   9  11
ENDBRANCH   8   9
ENDBRANCH   3   8
BRANCH   1  28
HETATM   28  N7  UNL     1      12.027  -5.720  -6.198  1.00  0.00    -0.323 N
ATOM     29  H7  UNL     1      11.354  -5.995  -6.913  1.00  0.00     0.169 HD
BRANCH  28  30
HETATM   30  C3  UNL     1      11.703  -5.840  -4.832  1.00  0.00     0.151 C
HETATM   31  C1  UNL     1      11.237  -7.160  -4.433  1.00  0.00     0.157 C
HETATM   32  N1  UNL     1      11.413  -8.067  -5.329  1.00  0.00    -0.382 N
HETATM   33  N2  UNL     1      10.622  -7.598  -3.212  1.00  0.00    -0.267 N
ATOM     34  H12 UNL     1      11.087  -8.992  -5.049  1.00  0.00     0.157 HD
ATOM     35  H11 UNL     1      11.851  -7.755  -6.197  1.00  0.00     0.157 HD
HETATM   36  N3  UNL     1      10.419  -6.750  -2.090  1.00  0.00    -0.022 NA
ATOM     37  H2  UNL     1      10.315  -8.568  -3.147  1.00  0.00     0.186 HD
HETATM   38  N4  UNL     1      11.566  -5.992  -1.948  1.00  0.00    -0.274 N
HETATM   39  C2  UNL     1      11.551  -4.720  -2.603  1.00  0.00     0.401 C
ATOM     40  H4  UNL     1      12.370  -6.318  -1.412  1.00  0.00     0.181 HD
HETATM   41  N6  UNL     1      11.825  -4.829  -4.040  1.00  0.00    -0.329 N
ATOM     42  H6  UNL     1      12.164  -3.975  -4.481  1.00  0.00     0.165 HD
BRANCH  39  43
HETATM   43  N5  UNL     1      12.657  -3.939  -2.037  1.00  0.00    -0.040 N
ATOM     44  H53 UNL     1      13.002  -4.312  -1.153  1.00  0.00     0.279 HD
ATOM     45  H52 UNL     1      13.526  -4.032  -2.564  1.00  0.00     0.279 HD
ATOM     46  H51 UNL     1      12.332  -2.975  -1.967  1.00  0.00     0.279 HD
ENDBRANCH  39  43
ENDBRANCH  28  30
ENDBRANCH   1  28
TORSDOF 9
ENDMDL