MODEL 1
REMARK VINA RESULT: -8.323156745      0.000      0.000
REMARK  9 active torsions:
REMARK  status: ('A' for Active; 'I' for Inactive)
REMARK    1  A    between atoms: C3_4  and  N2_5
REMARK    2  A    between atoms: N5_10  and  C4_11
REMARK    3  A    between atoms: C7_14  and  C8_15
REMARK       I    between atoms: C8_15  and  N6_17
REMARK    4  A    between atoms: N6_17  and  N7_19
REMARK    5  A    between atoms: N8_22  and  C9_23
REMARK    6  A    between atoms: C9_23  and  C10_24
REMARK    7  A    between atoms: C12_29  and  N9_30
REMARK    8  A    between atoms: C12_29  and  O5_34
REMARK    9  A    between atoms: C13_40  and  N12_41
ROOT
HETATM    1  N1  UNL     1      12.029  -5.549  -1.267  1.00  0.00    -0.191 NA
HETATM    2  C1  UNL     1      11.488  -6.181  -2.069  1.00  0.00     0.105 C
HETATM    3  C2  UNL     1      10.827  -6.944  -3.073  1.00  0.00     0.124 A
HETATM    4  C3  UNL     1      10.374  -6.345  -4.151  1.00  0.00     0.166 A
HETATM    5  C12 UNL     1       9.689  -7.126  -5.188  1.00  0.00     0.364 A
HETATM    6  N10 UNL     1       9.573  -8.526  -4.890  1.00  0.00    -0.271 N
ATOM      7  H10 UNL     1       9.102  -9.138  -5.557  1.00  0.00     0.185 HD
HETATM    8  N11 UNL     1      10.082  -9.065  -3.728  1.00  0.00    -0.283 N
ATOM      9  H11 UNL     1       9.975 -10.068  -3.573  1.00  0.00     0.188 HD
HETATM   10  C13 UNL     1      10.678  -8.377  -2.838  1.00  0.00     0.157 A
ENDROOT
BRANCH   4  11
HETATM   11  N2  UNL     1      10.531  -4.944  -4.340  1.00  0.00    -0.153 N
HETATM   12  N3  UNL     1       9.589  -3.988  -4.248  1.00  0.00    -0.203 N
HETATM   13  N4  UNL     1      10.491  -3.096  -4.536  1.00  0.00    -0.203 N
ATOM     14  H3  UNL     1       8.590  -3.971  -4.040  1.00  0.00     0.212 HD
HETATM   15  N5  UNL     1      11.428  -4.036  -4.630  1.00  0.00    -0.153 N
ATOM     16  H4  UNL     1      10.482  -2.083  -4.647  1.00  0.00     0.212 HD
BRANCH  15  17
HETATM   17  C4  UNL     1      12.818  -4.050  -4.921  1.00  0.00     0.146 A
HETATM   18  C5  UNL     1      13.369  -4.851  -5.896  1.00  0.00     0.041 A
HETATM   19  C6  UNL     1      14.730  -4.815  -6.131  1.00  0.00     0.038 A
HETATM   20  C7  UNL     1      15.607  -3.992  -5.421  1.00  0.00     0.107 A
HETATM   21  N8  UNL     1      15.043  -3.217  -4.471  1.00  0.00    -0.297 N
HETATM   22  C11 UNL     1      13.693  -3.249  -4.234  1.00  0.00     0.279 A
HETATM   23  O4  UNL     1      13.177  -2.511  -3.335  1.00  0.00    -0.265 OA
BRANCH  20  24
HETATM   24  C8  UNL     1      17.019  -3.971  -5.694  1.00  0.00     0.286 C
HETATM   25  O1  UNL     1      17.612  -3.211  -6.498  1.00  0.00    -0.264 OA
HETATM   26  N6  UNL     1      17.886  -4.874  -5.017  1.00  0.00    -0.271 N
ATOM     27  H6  UNL     1      17.499  -5.533  -4.341  1.00  0.00     0.189 HD
BRANCH  26  28
HETATM   28  N7  UNL     1      19.287  -4.868  -5.273  1.00  0.00    -0.342 N
ATOM     29  H72 UNL     1      19.711  -5.696  -5.692  1.00  0.00     0.176 HD
ATOM     30  H71 UNL     1      19.856  -4.054  -5.040  1.00  0.00     0.176 HD
ENDBRANCH  26  28
ENDBRANCH  20  24
BRANCH  21  31
HETATM   31  C9  UNL     1      15.814  -2.340  -3.657  1.00  0.00     0.245 C
BRANCH  31  32
HETATM   32  C10 UNL     1      16.524  -3.071  -2.544  1.00  0.00     0.192 C
HETATM   33  O2  UNL     1      15.874  -3.749  -1.709  1.00  0.00    -0.647 OA
HETATM   34  O3  UNL     1      17.882  -2.999  -2.435  1.00  0.00    -0.647 OA
ENDBRANCH  31  32
ENDBRANCH  21  31
ENDBRANCH  15  17
ENDBRANCH   4  11
BRANCH  10  35
HETATM   35  N12 UNL     1      11.179  -8.999  -1.660  1.00  0.00    -0.290 N
HETATM   36  N13 UNL     1      12.391  -9.374  -1.642  1.00  0.00    -0.344 N
ATOM     37 2H13 UNL     1      12.979  -9.227  -2.462  1.00  0.00     0.176 HD
ATOM     38 1H13 UNL     1      12.751  -9.819  -0.798  1.00  0.00     0.176 HD
ATOM     39  H12 UNL     1      10.578  -9.140  -0.848  1.00  0.00     0.188 HD
ENDBRANCH  10  35
BRANCH   5  40
HETATM   40  N9  UNL     1      10.363  -7.037  -6.479  1.00  0.00    -0.020 N
ATOM     41  H93 UNL     1      11.357  -7.249  -6.392  1.00  0.00     0.280 HD
ATOM     42  H92 UNL     1      10.088  -7.803  -7.093  1.00  0.00     0.280 HD
ATOM     43  H91 UNL     1      10.217  -6.133  -6.928  1.00  0.00     0.280 HD
ENDBRANCH   5  40
BRANCH   5  44
HETATM   44  O5  UNL     1       8.387  -6.619  -5.414  1.00  0.00    -0.343 OA
ATOM     45  H5  UNL     1       8.289  -6.341  -6.316  1.00  0.00     0.214 HD
ENDBRANCH   5  44
TORSDOF 9
ENDMDL