MODEL 2
REMARK VINA RESULT: -7.578668730      1.420      1.803
REMARK  9 active torsions:
REMARK  status: ('A' for Active; 'I' for Inactive)
REMARK    1  A    between atoms: N1_1  and  C1_4
REMARK    2  A    between atoms: C2_7  and  S1_8
REMARK    3  A    between atoms: S1_8  and  N3_10
REMARK    4  A    between atoms: S1_8  and  N5_15
REMARK       I    between atoms: N3_10  and  C3_12
REMARK    5  A    between atoms: C4_16  and  N6_17
REMARK    6  A    between atoms: N6_17  and  O3_19
REMARK    7  A    between atoms: C5_24  and  N9_25
REMARK    8  A    between atoms: C6_30  and  N11_31
REMARK    9  A    between atoms: C8_37  and  N13_38
ROOT
HETATM    1  N5  UNL     1      14.444  -2.626  -4.345  1.00  0.00     0.096 N
HETATM    2  C4  UNL     1      14.571  -1.319  -4.334  1.00  0.00     0.748 A
HETATM    3  N7  UNL     1      13.730  -0.799  -3.386  1.00  0.00    -0.092 N
ATOM      4  H7  UNL     1      13.616   0.188  -3.156  1.00  0.00     0.207 HD
HETATM    5  N8  UNL     1      13.101  -1.802  -2.832  1.00  0.00     0.107 N
HETATM    6  C5  UNL     1      12.185  -1.786  -1.871  1.00  0.00     0.727 A
HETATM    7  N10 UNL     1      11.669  -2.946  -1.464  1.00  0.00    -0.020 N
ATOM      8  H10 UNL     1      10.965  -2.945  -0.726  1.00  0.00     0.203 HD
HETATM    9  C6  UNL     1      12.054  -4.126  -2.004  1.00  0.00     0.705 A
HETATM   10  N12 UNL     1      12.971  -4.073  -2.957  1.00  0.00    -0.018 N
ATOM     11  H12 UNL     1      13.264  -4.961  -3.366  1.00  0.00     0.203 HD
HETATM   12  C7  UNL     1      13.551  -2.959  -3.435  1.00  0.00     0.764 A
ENDROOT
BRANCH   1  13
HETATM   13  S1  UNL     1      15.351  -3.802  -5.522  1.00  0.00     0.203 S
HETATM   14  O1  UNL     1      15.172  -4.945  -4.887  1.00  0.00    -0.220 OA
BRANCH  13  15
HETATM   15  C2  UNL     1      17.303  -3.731  -5.386  1.00  0.00     0.181 A
HETATM   16  N2  UNL     1      18.071  -4.373  -4.509  1.00  0.00    -0.178 N
HETATM   17  C1  UNL     1      19.397  -4.345  -4.441  1.00  0.00     0.678 A
ATOM     18  H2  UNL     1      17.591  -4.947  -3.815  1.00  0.00     0.185 HD
HETATM   19  N15 UNL     1      20.043  -3.595  -5.342  1.00  0.00    -0.176 N
HETATM   20  C9  UNL     1      19.372  -2.911  -6.264  1.00  0.00     0.167 A
ATOM     21  H15 UNL     1      21.061  -3.548  -5.321  1.00  0.00     0.185 HD
HETATM   22  C8  UNL     1      17.977  -2.965  -6.307  1.00  0.00     0.183 A
HETATM   23  N14 UNL     1      20.093  -2.118  -7.217  1.00  0.00    -0.079 NA
BRANCH  17  24
HETATM   24  N1  UNL     1      20.058  -4.996  -3.555  1.00  0.00    -0.234 N
ATOM     25  H12 UNL     1      19.816  -5.965  -3.348  1.00  0.00     0.174 HD
ATOM     26  H11 UNL     1      20.835  -4.585  -3.038  1.00  0.00     0.174 HD
ENDBRANCH  17  24
BRANCH  22  27
HETATM   27  N13 UNL     1      17.402  -2.207  -7.345  1.00  0.00    -0.109 N
HETATM   28  O4  UNL     1      17.350  -0.981  -7.257  1.00  0.00    -0.532 OA
HETATM   29  O5  UNL     1      16.923  -2.838  -8.453  1.00  0.00    -0.532 OA
ENDBRANCH  22  27
ENDBRANCH  13  15
BRANCH  13  30
HETATM   30  N3  UNL     1      14.583  -4.125  -7.159  1.00  0.00    -0.248 N
HETATM   31  C3  UNL     1      13.310  -4.615  -7.563  1.00  0.00     0.341 C
HETATM   32  N4  UNL     1      12.991  -4.771  -8.918  1.00  0.00    -0.039 NA
HETATM   33  O2  UNL     1      12.470  -4.909  -6.701  1.00  0.00    -0.250 OA
ATOM     34  H3  UNL     1      15.198  -3.908  -7.943  1.00  0.00     0.181 HD
ENDBRANCH  13  30
ENDBRANCH   1  13
BRANCH   2  35
HETATM   35  N6  UNL     1      15.368  -0.404  -5.096  1.00  0.00    -0.096 N
ATOM     36  H6  UNL     1      16.225  -0.034  -4.684  1.00  0.00     0.213 HD
BRANCH  35  37
HETATM   37  O3  UNL     1      15.048  -0.046  -6.245  1.00  0.00    -0.276 OA
ATOM     38  H3  UNL     1      15.518  -0.344  -7.016  1.00  0.00     0.245 HD
ENDBRANCH  35  37
ENDBRANCH   2  35
BRANCH   6  39
HETATM   39  N9  UNL     1      11.789  -0.689  -1.326  1.00  0.00    -0.232 N
ATOM     40  H92 UNL     1      12.284   0.179  -1.527  1.00  0.00     0.174 HD
ATOM     41  H91 UNL     1      10.988  -0.658  -0.695  1.00  0.00     0.174 HD
ENDBRANCH   6  39
BRANCH   9  42
HETATM   42  N11 UNL     1      11.525  -5.222  -1.577  1.00  0.00    -0.234 N
ATOM     43 2H11 UNL     1      11.600  -5.551  -0.615  1.00  0.00     0.174 HD
ATOM     44 1H11 UNL     1      10.997  -5.809  -2.223  1.00  0.00     0.174 HD
ENDBRANCH   9  42
TORSDOF 9
ENDMDL