MODEL 3
REMARK VINA RESULT: -7.991477934      1.913      2.339
REMARK  12 active torsions:
REMARK  status: ('A' for Active; 'I' for Inactive)
REMARK    1  A    between atoms: N1_1  and  N2_4
REMARK    2  A    between atoms: N2_4  and  N3_6
REMARK    3  A    between atoms: C1_9  and  C2_10
REMARK       I    between atoms: C2_10  and  N5_12
REMARK    4  A    between atoms: N5_12  and  N6_14
REMARK    5  A    between atoms: C3_16  and  C4_17
REMARK    6  A    between atoms: C4_17  and  O2_18
REMARK    7  A    between atoms: N7_20  and  N8_22
REMARK    8  A    between atoms: N8_22  and  C5_24
REMARK    9  A    between atoms: C7_28  and  N10_29
REMARK   10  A    between atoms: C8_32  and  O5_33
REMARK   11  A    between atoms: C10_37  and  O6_38
REMARK   12  A    between atoms: C11_40  and  O7_41
ROOT
HETATM    1  N6  UNL     1      11.055  -3.411  -2.274  1.00  0.00    -0.305 N
ATOM      2  H6  UNL     1      10.643  -3.098  -1.395  1.00  0.00     0.186 HD
HETATM    3  C3  UNL     1      11.918  -2.674  -2.871  1.00  0.00     0.164 C
ENDROOT
BRANCH   1   4
HETATM    4  N5  UNL     1      10.667  -4.662  -2.830  1.00  0.00    -0.265 N
HETATM    5  C2  UNL     1      11.167  -5.848  -2.268  1.00  0.00     0.291 C
HETATM    6  O1  UNL     1      11.954  -5.752  -1.265  1.00  0.00    -0.264 OA
ATOM      7  H5  UNL     1      10.033  -4.697  -3.628  1.00  0.00     0.190 HD
BRANCH   5   8
HETATM    8  C1  UNL     1      10.823  -7.167  -2.789  1.00  0.00     0.157 A
HETATM    9  N4  UNL     1      11.411  -8.339  -2.409  1.00  0.00    -0.268 N
HETATM   10  N3  UNL     1      10.890  -9.341  -3.072  1.00  0.00    -0.155 N
ATOM     11  H4  UNL     1      12.149  -8.422  -1.710  1.00  0.00     0.189 HD
HETATM   12  C11 UNL     1       9.947  -8.882  -3.907  1.00  0.00     0.217 A
HETATM   13  C10 UNL     1       9.893  -7.494  -3.738  1.00  0.00     0.154 A
BRANCH  10  14
HETATM   14  N2  UNL     1      11.262 -10.692  -2.943  1.00  0.00    -0.226 N
ATOM     15  H2  UNL     1      12.245 -10.931  -2.814  1.00  0.00     0.210 HD
BRANCH  14  16
HETATM   16  N1  UNL     1      10.306 -11.712  -2.990  1.00  0.00    -0.329 N
ATOM     17  H12 UNL     1       9.360 -11.507  -2.668  1.00  0.00     0.178 HD
ATOM     18  H11 UNL     1      10.544 -12.641  -3.336  1.00  0.00     0.178 HD
ENDBRANCH  14  16
ENDBRANCH  10  14
BRANCH  12  19
HETATM   19  O7  UNL     1       9.166  -9.616  -4.777  1.00  0.00    -0.342 OA
ATOM     20  H7  UNL     1       8.522 -10.279  -4.557  1.00  0.00     0.219 HD
ENDBRANCH  12  19
BRANCH  13  21
HETATM   21  O6  UNL     1       9.025  -6.670  -4.442  1.00  0.00    -0.355 OA
ATOM     22  H6  UNL     1       9.215  -5.900  -4.966  1.00  0.00     0.218 HD
ENDBRANCH  13  21
ENDBRANCH   5   8
ENDBRANCH   1   4
BRANCH   3  23
HETATM   23  C4  UNL     1      12.324  -1.408  -2.330  1.00  0.00     0.172 C
HETATM   24  N7  UNL     1      13.110  -0.558  -2.843  1.00  0.00    -0.278 N
ATOM     25  H7  UNL     1      13.271   0.286  -2.294  1.00  0.00     0.189 HD
BRANCH  23  26
HETATM   26  O2  UNL     1      11.773  -1.070  -1.069  1.00  0.00    -0.344 OA
ATOM     27  H2  UNL     1      12.202  -1.452  -0.313  1.00  0.00     0.219 HD
ENDBRANCH  23  26
BRANCH  24  28
HETATM   28  N8  UNL     1      13.782  -0.625  -4.054  1.00  0.00    -0.287 N
ATOM     29  H8  UNL     1      13.459  -0.061  -4.839  1.00  0.00     0.188 HD
BRANCH  28  30
HETATM   30  C5  UNL     1      14.924  -1.475  -4.221  1.00  0.00     0.095 C
HETATM   31  N9  UNL     1      15.828  -1.501  -3.332  1.00  0.00    -0.376 N
HETATM   32  C6  UNL     1      17.015  -2.315  -3.396  1.00  0.00     0.156 C
ATOM     33  H9  UNL     1      15.706  -0.904  -2.515  1.00  0.00     0.160 HD
HETATM   34  C7  UNL     1      17.015  -3.348  -4.473  1.00  0.00     0.219 C
HETATM   35  C8  UNL     1      16.434  -2.719  -5.746  1.00  0.00     0.150 C
HETATM   36  S1  UNL     1      16.385  -3.886  -7.112  1.00  0.00    -0.053 SA
HETATM   37  C9  UNL     1      15.023  -2.303  -5.424  1.00  0.00     0.130 C
BRANCH  34  38
HETATM   38  N10 UNL     1      18.367  -3.815  -4.728  1.00  0.00    -0.145 N
HETATM   39  O3  UNL     1      18.634  -5.028  -4.663  1.00  0.00    -0.536 OA
HETATM   40  O4  UNL     1      19.384  -2.945  -5.049  1.00  0.00    -0.536 OA
ENDBRANCH  34  38
BRANCH  35  41
HETATM   41  O5  UNL     1      17.253  -1.623  -6.023  1.00  0.00    -0.376 OA
ATOM     42  H5  UNL     1      16.800  -1.136  -6.702  1.00  0.00     0.211 HD
ENDBRANCH  35  41
ENDBRANCH  28  30
ENDBRANCH  24  28
ENDBRANCH   3  23
TORSDOF 12
ENDMDL