MODEL 2
REMARK VINA RESULT: -7.905686698      2.098      3.474
REMARK  12 active torsions:
REMARK  status: ('A' for Active; 'I' for Inactive)
REMARK       I    between atoms: C2_2  and  N1_4
REMARK    1  A    between atoms: C4_6  and  O2_7
REMARK    2  A    between atoms: C5_9  and  C6_10
REMARK    3  A    between atoms: C6_10  and  O3_11
REMARK    4  A    between atoms: C6_10  and  C7_13
REMARK    5  A    between atoms: C7_13  and  N2_14
REMARK    6  A    between atoms: N5_19  and  N6_20
REMARK    7  A    between atoms: C8_23  and  N7_24
REMARK    8  A    between atoms: N7_24  and  C9_26
REMARK    9  A    between atoms: C9_26  and  C10_27
REMARK   10  A    between atoms: C11_30  and  N9_31
REMARK   11  A    between atoms: N11_38  and  N12_39
REMARK   12  A    between atoms: C13_42  and  O4_43
ROOT
HETATM    1  N2  UNL     1      16.187  -1.616  -7.518  1.00  0.00    -0.102 N
HETATM    2  N3  UNL     1      15.930  -0.327  -7.406  1.00  0.00    -0.209 N
ATOM      3  H3  UNL     1      16.610   0.430  -7.476  1.00  0.00     0.210 HD
HETATM    4  N4  UNL     1      14.650  -0.192  -7.189  1.00  0.00    -0.192 N
ATOM      5  H4  UNL     1      14.154   0.690  -7.059  1.00  0.00     0.212 HD
HETATM    6  N5  UNL     1      14.099  -1.415  -7.164  1.00  0.00    -0.010 N
HETATM    7  C8  UNL     1      15.054  -2.329  -7.370  1.00  0.00     0.733 A
ENDROOT
BRANCH   7   8
HETATM    8  N7  UNL     1      14.954  -3.572  -7.409  1.00  0.00    -0.214 N
ATOM      9  H7  UNL     1      14.776  -3.936  -8.345  1.00  0.00     0.178 HD
BRANCH   8  10
HETATM   10  C9  UNL     1      15.036  -4.577  -6.420  1.00  0.00     0.217 C
BRANCH  10  11
HETATM   11  C10 UNL     1      14.053  -4.471  -5.315  1.00  0.00     0.139 A
HETATM   12  N8  UNL     1      14.261  -3.819  -4.161  1.00  0.00    -0.177 N
HETATM   13  C11 UNL     1      13.364  -3.731  -3.175  1.00  0.00     0.679 A
ATOM     14  H8  UNL     1      15.162  -3.360  -4.028  1.00  0.00     0.185 HD
HETATM   15  N10 UNL     1      12.173  -4.336  -3.349  1.00  0.00    -0.165 N
HETATM   16  C12 UNL     1      11.915  -5.009  -4.501  1.00  0.00     0.213 A
ATOM     17  H10 UNL     1      11.465  -4.290  -2.617  1.00  0.00     0.186 HD
HETATM   18  S1  UNL     1      10.457  -5.728  -4.673  1.00  0.00    -0.038 SA
HETATM   19  N11 UNL     1      12.861  -5.071  -5.479  1.00  0.00    -0.221 N
BRANCH  13  20
HETATM   20  N9  UNL     1      13.581  -3.098  -2.070  1.00  0.00    -0.234 N
ATOM     21  H92 UNL     1      13.264  -2.132  -1.988  1.00  0.00     0.174 HD
ATOM     22  H91 UNL     1      14.055  -3.514  -1.268  1.00  0.00     0.174 HD
ENDBRANCH  13  20
BRANCH  19  23
HETATM   23  N12 UNL     1      12.582  -5.756  -6.639  1.00  0.00    -0.335 N
ATOM     24 2H12 UNL     1      13.342  -5.972  -7.284  1.00  0.00     0.177 HD
ATOM     25 1H12 UNL     1      11.626  -6.045  -6.850  1.00  0.00     0.177 HD
ENDBRANCH  19  23
ENDBRANCH  10  11
ENDBRANCH   8  10
ENDBRANCH   7   8
BRANCH   1  26
HETATM   26  C7  UNL     1      17.499  -2.219  -7.782  1.00  0.00     0.206 C
BRANCH  26  27
HETATM   27  C6  UNL     1      18.485  -1.768  -6.731  1.00  0.00     0.178 C
BRANCH  27  28
HETATM   28  C5  UNL     1      18.581  -2.647  -5.569  1.00  0.00     0.058 A
HETATM   29  C4  UNL     1      19.612  -3.537  -5.374  1.00  0.00     0.095 A
HETATM   30  C3  UNL     1      19.392  -4.196  -4.210  1.00  0.00     0.139 A
HETATM   31  N1  UNL     1      18.247  -3.729  -3.685  1.00  0.00    -0.270 N
HETATM   32  C2  UNL     1      17.671  -4.186  -2.445  1.00  0.00     0.226 C
HETATM   33  C13 UNL     1      17.740  -2.791  -4.494  1.00  0.00     0.161 A
HETATM   34  C1  UNL     1      18.350  -5.240  -1.654  1.00  0.00     0.118 C
HETATM   35  O1  UNL     1      16.610  -3.676  -2.069  1.00  0.00    -0.273 OA
BRANCH  29  36
HETATM   36  O2  UNL     1      20.718  -3.762  -6.202  1.00  0.00    -0.358 OA
ATOM     37  H2  UNL     1      20.696  -3.684  -7.149  1.00  0.00     0.217 HD
ENDBRANCH  29  36
BRANCH  33  38
HETATM   38  O4  UNL     1      16.557  -2.092  -4.259  1.00  0.00    -0.345 OA
ATOM     39  H4  UNL     1      15.728  -2.270  -4.688  1.00  0.00     0.219 HD
ENDBRANCH  33  38
ENDBRANCH  27  28
BRANCH  27  40
HETATM   40  O3  UNL     1      19.743  -1.698  -7.329  1.00  0.00    -0.389 OA
ATOM     41  H3  UNL     1      20.126  -0.856  -7.118  1.00  0.00     0.210 HD
ENDBRANCH  27  40
ENDBRANCH  26  27
ENDBRANCH   1  26
BRANCH   6  42
HETATM   42  N6  UNL     1      12.747  -1.575  -6.952  1.00  0.00    -0.308 N
ATOM     43  H62 UNL     1      12.251  -2.173  -6.291  1.00  0.00     0.179 HD
ATOM     44  H61 UNL     1      12.066  -1.050  -7.503  1.00  0.00     0.179 HD
ENDBRANCH   6  42
TORSDOF 12
ENDMDL