MODEL 3
REMARK VINA RESULT: -7.851033036      3.779      8.467
REMARK  11 active torsions:
REMARK  status: ('A' for Active; 'I' for Inactive)
REMARK       I    between atoms: N2_3  and  C2_5
REMARK       I    between atoms: C2_5  and  N6_15
REMARK    1  A    between atoms: N3_6  and  C3_8
REMARK    2  A    between atoms: N6_15  and  N7_17
REMARK    3  A    between atoms: N8_19  and  C5_21
REMARK    4  A    between atoms: N11_26  and  C6_27
REMARK    5  A    between atoms: C7_33  and  N14_34
REMARK    6  A    between atoms: C8_37  and  C9_38
REMARK    7  A    between atoms: C9_38  and  O3_39
REMARK    8  A    between atoms: C9_38  and  C10_41
REMARK    9  A    between atoms: C10_41  and  O4_42
REMARK   10  A    between atoms: C10_41  and  N15_44
REMARK   11  A    between atoms: N15_44  and  O5_45
ROOT
HETATM    1  N1  UNL     1      16.383  -3.032  -9.544  1.00  0.00    -0.171 NA
HETATM    2  C1  UNL     1      16.271  -2.417  -8.553  1.00  0.00     0.196 C
HETATM    3  N2  UNL     1      16.163  -1.684  -7.422  1.00  0.00    -0.124 N
ATOM      4  H2  UNL     1      16.176  -2.230  -6.560  1.00  0.00     0.197 HD
HETATM    5  C2  UNL     1      16.048  -0.422  -7.253  1.00  0.00     0.708 C
HETATM    6  N3  UNL     1      16.004   0.596  -8.118  1.00  0.00    -0.171 N
ATOM      7  H3  UNL     1      15.349   1.292  -7.762  1.00  0.00     0.186 HD
HETATM    8  N6  UNL     1      15.830  -0.070  -5.801  1.00  0.00    -0.117 N
ATOM      9  H6  UNL     1      16.533   0.429  -5.257  1.00  0.00     0.207 HD
ENDROOT
BRANCH   6  10
HETATM   10  C3  UNL     1      16.466   1.007  -9.194  1.00  0.00     0.160 A
HETATM   11  C4  UNL     1      15.662   1.083 -10.357  1.00  0.00     0.167 A
HETATM   12  N4  UNL     1      16.420   1.562 -11.345  1.00  0.00    -0.249 N
HETATM   13  O1  UNL     1      17.616   1.787 -10.881  1.00  0.00    -0.156 OA
ATOM     14  H4  UNL     1      16.114   1.724 -12.304  1.00  0.00     0.196 HD
HETATM   15  N5  UNL     1      17.655   1.461  -9.609  1.00  0.00    -0.224 N
ATOM     16  H5  UNL     1      18.481   1.542  -9.016  1.00  0.00     0.198 HD
ENDBRANCH   6  10
BRANCH   8  17
HETATM   17  N7  UNL     1      14.674  -0.445  -5.272  1.00  0.00    -0.227 N
HETATM   18  N8  UNL     1      13.510  -0.404  -5.112  1.00  0.00    -0.267 N
ATOM     19  H8  UNL     1      12.946   0.269  -5.631  1.00  0.00     0.190 HD
ATOM     20  H7  UNL     1      14.954  -1.202  -4.648  1.00  0.00     0.209 HD
BRANCH  18  21
HETATM   21  C5  UNL     1      12.875  -1.322  -4.166  1.00  0.00     0.169 A
HETATM   22  N9  UNL     1      11.726  -0.935  -3.565  1.00  0.00    -0.267 N
HETATM   23  N10 UNL     1      11.359  -1.951  -2.868  1.00  0.00    -0.232 N
ATOM     24  H9  UNL     1      11.253  -0.035  -3.648  1.00  0.00     0.190 HD
HETATM   25  N11 UNL     1      12.184  -2.995  -2.965  1.00  0.00    -0.214 N
ATOM     26  H10 UNL     1      10.516  -1.957  -2.294  1.00  0.00     0.209 HD
HETATM   27  C8  UNL     1      13.167  -2.595  -3.791  1.00  0.00     0.139 A
BRANCH  25  28
HETATM   28  C6  UNL     1      11.832  -4.272  -2.441  1.00  0.00     0.196 A
HETATM   29  N12 UNL     1      11.894  -4.878  -1.286  1.00  0.00    -0.220 N
HETATM   30  O2  UNL     1      11.456  -6.084  -1.372  1.00  0.00    -0.153 OA
ATOM     31  H12 UNL     1      12.245  -4.451  -0.428  1.00  0.00     0.198 HD
HETATM   32  N13 UNL     1      11.087  -6.346  -2.571  1.00  0.00    -0.222 N
HETATM   33  C7  UNL     1      11.283  -5.253  -3.338  1.00  0.00     0.169 A
ATOM     34  H13 UNL     1      10.707  -7.237  -2.893  1.00  0.00     0.198 HD
BRANCH  33  35
HETATM   35  N14 UNL     1      11.046  -5.139  -4.582  1.00  0.00    -0.381 N
ATOM     36 2H14 UNL     1      10.843  -4.278  -5.091  1.00  0.00     0.157 HD
ATOM     37 1H14 UNL     1      11.000  -5.874  -5.287  1.00  0.00     0.157 HD
ENDBRANCH  33  35
ENDBRANCH  25  28
BRANCH  27  38
HETATM   38  C9  UNL     1      14.317  -3.340  -4.306  1.00  0.00     0.122 C
BRANCH  38  39
HETATM   39  O3  UNL     1      14.547  -3.223  -5.631  1.00  0.00    -0.359 OA
ATOM     40  H3  UNL     1      14.671  -4.039  -6.101  1.00  0.00     0.217 HD
ENDBRANCH  38  39
BRANCH  38  41
HETATM   41  C10 UNL     1      15.516  -3.451  -3.402  1.00  0.00     0.297 C
BRANCH  41  42
HETATM   42  O4  UNL     1      15.205  -3.457  -2.031  1.00  0.00    -0.371 OA
ATOM     43  H4  UNL     1      15.134  -2.593  -1.643  1.00  0.00     0.212 HD
ENDBRANCH  41  42
BRANCH  41  44
HETATM   44  N15 UNL     1      16.297  -2.151  -3.547  1.00  0.00    -0.064 NA
BRANCH  44  45
HETATM   45  O5  UNL     1      17.129  -2.355  -4.574  1.00  0.00    -0.293 OA
ATOM     46  H5  UNL     1      17.539  -1.513  -4.734  1.00  0.00     0.238 HD
ENDBRANCH  44  45
ENDBRANCH  41  44
ENDBRANCH  38  41
ENDBRANCH  27  38
ENDBRANCH  18  21
ENDBRANCH   8  17
TORSDOF 11
ENDMDL