MODEL 3
REMARK VINA RESULT: -6.257021587      1.324      1.938
REMARK  12 active torsions:
REMARK  status: ('A' for Active; 'I' for Inactive)
REMARK    1  A    between atoms: C2_2  and  C3_3
REMARK    2  A    between atoms: C3_3  and  C4_4
REMARK    3  A    between atoms: C4_4  and  C5_5
REMARK    4  A    between atoms: C5_5  and  C6_6
REMARK    5  A    between atoms: C6_6  and  C7_7
REMARK    6  A    between atoms: C7_7  and  C8_8
REMARK    7  A    between atoms: C11_11  and  C12_12
REMARK    8  A    between atoms: C16_17  and  O2_18
REMARK    9  A    between atoms: C17_20  and  C18_21
REMARK   10  A    between atoms: C17_20  and  C19_24
REMARK   11  A    between atoms: C18_21  and  O3_22
REMARK   12  A    between atoms: C19_24  and  O4_25
ROOT
HETATM    1  C8  UNL     1      -2.666  22.783  47.958  1.00  0.00    -0.005 C
HETATM    2  C9  UNL     1      -2.851  21.399  48.539  1.00  0.00     0.033 C
HETATM    3  C10 UNL     1      -4.107  20.716  48.051  1.00  0.00    -0.015 C
HETATM    4  C11 UNL     1      -5.237  21.367  47.854  1.00  0.00    -0.015 C
HETATM    5  C13 UNL     1      -5.109  22.810  48.181  1.00  0.00    -0.007 C
HETATM    6  C14 UNL     1      -4.953  22.901  49.653  1.00  0.00     0.021 C
HETATM    7  C15 UNL     1      -6.198  23.672  47.638  1.00  0.00     0.047 C
HETATM    8  C16 UNL     1      -5.531  25.031  47.584  1.00  0.00     0.132 C
HETATM    9  C17 UNL     1      -4.100  24.713  47.044  1.00  0.00     0.033 C
HETATM   10  C20 UNL     1      -3.909  23.293  47.361  1.00  0.00     0.018 C
ENDROOT
BRANCH   1  11
HETATM   11  C7  UNL     1      -1.399  22.812  47.177  1.00  0.00     0.005 C
BRANCH  11  12
HETATM   12  C6  UNL     1      -1.453  23.022  45.710  1.00  0.00     0.000 C
BRANCH  12  13
HETATM   13  C5  UNL     1      -0.639  23.995  45.000  1.00  0.00     0.000 C
BRANCH  13  14
HETATM   14  C4  UNL     1      -1.254  24.424  43.661  1.00  0.00     0.004 C
BRANCH  14  15
HETATM   15  C3  UNL     1      -0.792  25.758  43.218  1.00  0.00     0.026 C
BRANCH  15  16
HETATM   16  C2  UNL     1       0.049  25.620  42.001  1.00  0.00    -0.037 C
HETATM   17  C1  UNL     1      -0.268  24.703  41.107  1.00  0.00     0.007 C
ENDBRANCH  15  16
ENDBRANCH  14  15
ENDBRANCH  13  14
ENDBRANCH  12  13
ENDBRANCH  11  12
ENDBRANCH   1  11
BRANCH   9  18
HETATM   18  C18 UNL     1      -3.139  25.704  47.607  1.00  0.00     0.178 C
BRANCH  18  19
HETATM   19  O3  UNL     1      -2.524  26.458  46.596  1.00  0.00    -0.400 OA
ATOM     20  H3  UNL     1      -2.938  27.307  46.493  1.00  0.00     0.209 HD
ENDBRANCH  18  19
ENDBRANCH   9  18
BRANCH   9  21
HETATM   21  C19 UNL     1      -4.250  25.010  45.549  1.00  0.00     0.178 C
BRANCH  21  22
HETATM   22  O4  UNL     1      -4.887  26.171  45.233  1.00  0.00    -0.400 OA
ATOM     23  H4  UNL     1      -5.831  26.113  45.136  1.00  0.00     0.209 HD
ENDBRANCH  21  22
ENDBRANCH   9  21
BRANCH   4  24
HETATM   24  C12 UNL     1      -6.474  20.782  47.388  1.00  0.00     0.266 C
HETATM   25  O1  UNL     1      -6.469  19.842  46.563  1.00  0.00    -0.302 OA
ENDBRANCH   4  24
BRANCH   8  26
HETATM   26  O2  UNL     1      -5.524  25.728  48.743  1.00  0.00    -0.395 OA
ATOM     27  H2  UNL     1      -4.760  26.273  48.891  1.00  0.00     0.210 HD
ENDBRANCH   8  26
TORSDOF 12
ENDMDL