MODEL 1
REMARK VINA RESULT: -6.287535897      0.000      0.000
REMARK  8 active torsions:
REMARK  status: ('A' for Active; 'I' for Inactive)
REMARK    1  A    between atoms: C2_2  and  C3_3
REMARK    2  A    between atoms: C3_3  and  C4_4
REMARK    3  A    between atoms: C4_4  and  C5_5
REMARK    4  A    between atoms: C5_5  and  C6_6
REMARK    5  A    between atoms: C6_6  and  C7_7
REMARK    6  A    between atoms: C7_7  and  C8_8
REMARK    7  A    between atoms: C8_8  and  C9_9
REMARK    8  A    between atoms: C9_9  and  C10_10
ROOT
HETATM    1  C8  UNL     1      -3.262  25.243  45.896  1.00  0.00     0.058 C
HETATM    2  N1  UNL     1      -3.974  26.443  46.051  1.00  0.00    -0.409 N
ATOM      3  H1  UNL     1      -3.437  27.304  46.151  1.00  0.00     0.154 HD
HETATM    4  C12 UNL     1      -5.357  26.537  46.076  1.00  0.00     0.142 C
HETATM    5  C13 UNL     1      -5.938  26.881  47.461  1.00  0.00     0.254 C
HETATM    6  N2  UNL     1      -6.424  25.627  48.065  1.00  0.00    -0.042 N
ATOM      7  H21 UNL     1      -7.102  25.144  47.474  1.00  0.00     0.279 HD
ATOM      8  H22 UNL     1      -7.030  25.789  48.870  1.00  0.00     0.279 HD
HETATM    9  C14 UNL     1      -5.277  24.799  48.388  1.00  0.00     0.421 C
HETATM   10  C15 UNL     1      -5.426  23.999  49.644  1.00  0.00     0.096 C
HETATM   11  C16 UNL     1      -4.054  23.465  49.998  1.00  0.00     0.276 C
HETATM   12  N3  UNL     1      -3.362  22.902  48.881  1.00  0.00     0.092 N
HETATM   13  C17 UNL     1      -4.166  21.938  48.200  1.00  0.00     0.302 C
HETATM   14  C18 UNL     1      -5.273  22.591  47.420  1.00  0.00     0.306 C
HETATM   15  N4  UNL     1      -4.981  24.013  47.222  1.00  0.00     0.130 N
HETATM   16  C19 UNL     1      -3.627  24.096  46.789  1.00  0.00     0.281 C
HETATM   17  C20 UNL     1      -2.778  23.905  48.006  1.00  0.00     0.310 C
ENDROOT
BRANCH   1  18
HETATM   18  C7  UNL     1      -3.089  24.799  44.446  1.00  0.00     0.033 C
BRANCH  18  19
HETATM   19  C6  UNL     1      -2.005  23.834  44.172  1.00  0.00     0.002 C
BRANCH  19  20
HETATM   20  C5  UNL     1      -1.658  23.850  42.701  1.00  0.00     0.000 C
BRANCH  20  21
HETATM   21  C4  UNL     1      -0.587  24.839  42.334  1.00  0.00     0.000 C
BRANCH  21  22
HETATM   22  C3  UNL     1      -0.303  24.636  40.849  1.00  0.00    -0.000 C
BRANCH  22  23
HETATM   23  C2  UNL     1      -0.778  23.267  40.395  1.00  0.00    -0.005 C
HETATM   24  C1  UNL     1       0.001  22.949  39.122  1.00  0.00     0.005 C
ENDBRANCH  22  23
ENDBRANCH  21  22
ENDBRANCH  20  21
ENDBRANCH  19  20
ENDBRANCH  18  19
ENDBRANCH   1  18
BRANCH   1  25
HETATM   25  C9  UNL     1      -1.829  25.617  46.312  1.00  0.00     0.032 C
BRANCH  25  26
HETATM   26  C10 UNL     1      -1.269  26.792  45.551  1.00  0.00    -0.002 C
HETATM   27  C11 UNL     1       0.173  26.349  45.187  1.00  0.00     0.005 C
ENDBRANCH  25  26
ENDBRANCH   1  25
TORSDOF 8
ENDMDL