MODEL 3
REMARK VINA RESULT: -6.959423125      2.962      4.127
REMARK  9 active torsions:
REMARK  status: ('A' for Active; 'I' for Inactive)
REMARK    1  A    between atoms: C1_2  and  C2_4
REMARK    2  A    between atoms: C2_4  and  C3_5
REMARK    3  A    between atoms: C3_5  and  C4_6
REMARK    4  A    between atoms: C4_6  and  C5_7
REMARK    5  A    between atoms: C5_7  and  C6_8
REMARK    6  A    between atoms: C6_8  and  C7_9
REMARK    7  A    between atoms: N2_15  and  C11_16
REMARK    8  A    between atoms: C11_16  and  C12_17
REMARK    9  A    between atoms: C12_17  and  C13_18
ROOT
HETATM    1  C7  UNL     1      -5.765  24.868  47.917  1.00  0.00     0.109 C
HETATM    2  N1  UNL     1      -4.960  24.550  49.051  1.00  0.00    -0.413 N
ATOM      3  H1  UNL     1      -5.359  24.436  49.983  1.00  0.00     0.153 HD
HETATM    4  C8  UNL     1      -3.560  24.400  48.803  1.00  0.00     0.149 C
HETATM    5  C9  UNL     1      -3.199  23.689  47.539  1.00  0.00     0.232 C
HETATM    6  C10 UNL     1      -2.208  24.508  46.740  1.00  0.00     0.307 C
HETATM    7  N2  UNL     1      -2.771  25.650  46.090  1.00  0.00     0.092 N
HETATM    8  C18 UNL     1      -4.133  25.932  46.412  1.00  0.00     0.307 C
HETATM    9  C19 UNL     1      -5.018  24.767  46.606  1.00  0.00     0.236 C
HETATM   10  N3  UNL     1      -4.334  23.492  46.652  1.00  0.00    -0.060 N
ATOM     11  H31 UNL     1      -4.936  22.715  46.923  1.00  0.00     0.278 HD
ATOM     12  H32 UNL     1      -4.078  23.131  45.733  1.00  0.00     0.278 HD
ENDROOT
BRANCH   1  13
HETATM   13  C6  UNL     1      -6.548  26.159  48.048  1.00  0.00     0.027 C
BRANCH  13  14
HETATM   14  C5  UNL     1      -8.033  25.872  47.834  1.00  0.00     0.002 C
BRANCH  14  15
HETATM   15  C4  UNL     1      -8.595  25.123  49.038  1.00  0.00     0.001 C
BRANCH  15  16
HETATM   16  C3  UNL     1      -8.480  25.913  50.292  1.00  0.00     0.010 C
BRANCH  16  17
HETATM   17  C2  UNL     1      -8.257  25.145  51.546  1.00  0.00     0.113 C
BRANCH  17  18
HETATM   18  C1  UNL     1      -6.869  25.120  52.037  1.00  0.00     0.172 C
HETATM   19  O1  UNL     1      -6.057  24.255  51.697  1.00  0.00    -0.648 OA
HETATM   20  O2  UNL     1      -6.458  26.105  52.917  1.00  0.00    -0.648 OA
ENDBRANCH  17  18
ENDBRANCH  16  17
ENDBRANCH  15  16
ENDBRANCH  14  15
ENDBRANCH  13  14
ENDBRANCH   1  13
BRANCH   7  21
HETATM   21  C11 UNL     1      -2.551  25.668  44.659  1.00  0.00     0.273 C
BRANCH  21  22
HETATM   22  C12 UNL     1      -2.117  24.326  44.113  1.00  0.00     0.034 C
BRANCH  22  23
HETATM   23  C13 UNL     1      -0.844  24.498  43.322  1.00  0.00    -0.013 C
HETATM   24  C14 UNL     1      -0.378  25.911  43.205  1.00  0.00     0.005 C
HETATM   25  C15 UNL     1       0.608  25.802  42.040  1.00  0.00     0.000 C
HETATM   26  C16 UNL     1      -0.242  25.045  41.035  1.00  0.00     0.000 C
HETATM   27  C17 UNL     1      -0.991  24.021  41.897  1.00  0.00     0.005 C
ENDBRANCH  22  23
ENDBRANCH  21  22
ENDBRANCH   7  21
TORSDOF 9
ENDMDL