MODEL 1
REMARK VINA RESULT: -7.218267449      0.000      0.000
REMARK  11 active torsions:
REMARK  status: ('A' for Active; 'I' for Inactive)
REMARK    1  A    between atoms: N1_1  and  C1_5
REMARK    2  A    between atoms: C1_5  and  C2_6
REMARK    3  A    between atoms: C2_6  and  C3_7
REMARK       I    between atoms: C3_7  and  N2_9
REMARK    4  A    between atoms: N2_9  and  C4_11
REMARK    5  A    between atoms: C4_11  and  C5_12
REMARK    6  A    between atoms: C5_12  and  C6_13
REMARK    7  A    between atoms: C6_13  and  C7_14
REMARK    8  A    between atoms: C7_14  and  C8_15
REMARK    9  A    between atoms: C8_15  and  C9_16
REMARK   10  A    between atoms: C9_16  and  N3_17
REMARK   11  A    between atoms: C19_27  and  N4_28
ROOT
HETATM    1  C9  UNL     1      -2.171  25.735  45.854  1.00  0.00     0.275 C
ENDROOT
BRANCH   1   2
HETATM    2  C8  UNL     1      -1.998  25.710  44.356  1.00  0.00     0.030 C
BRANCH   2   3
HETATM    3  C7  UNL     1      -0.787  26.531  43.962  1.00  0.00     0.002 C
BRANCH   3   4
HETATM    4  C6  UNL     1       0.457  25.691  43.886  1.00  0.00     0.002 C
BRANCH   4   5
HETATM    5  C5  UNL     1       1.040  25.679  42.493  1.00  0.00     0.020 C
BRANCH   5   6
HETATM    6  C4  UNL     1      -0.053  25.939  41.513  1.00  0.00     0.122 C
BRANCH   6   7
HETATM    7  N2  UNL     1      -0.175  24.898  40.544  1.00  0.00    -0.361 N
HETATM    8  C3  UNL     1      -0.813  23.687  40.805  1.00  0.00     0.219 C
HETATM    9  O1  UNL     1      -1.309  23.474  41.943  1.00  0.00    -0.274 OA
ATOM     10  H2  UNL     1       0.225  25.047  39.617  1.00  0.00     0.162 HD
BRANCH   8  11
HETATM   11  C2  UNL     1      -0.911  22.637  39.729  1.00  0.00     0.130 C
BRANCH  11  12
HETATM   12  C1  UNL     1       0.230  22.829  38.789  1.00  0.00     0.238 C
BRANCH  12  13
HETATM   13  N1  UNL     1       0.472  21.660  37.976  1.00  0.00    -0.079 N
ATOM     14  H13 UNL     1       0.193  20.808  38.463  1.00  0.00     0.274 HD
ATOM     15  H12 UNL     1      -0.176  21.616  37.191  1.00  0.00     0.274 HD
ATOM     16  H11 UNL     1       1.439  21.603  37.659  1.00  0.00     0.274 HD
ENDBRANCH  12  13
ENDBRANCH  11  12
ENDBRANCH   8  11
ENDBRANCH   6   7
ENDBRANCH   5   6
ENDBRANCH   4   5
ENDBRANCH   3   4
ENDBRANCH   2   3
ENDBRANCH   1   2
BRANCH   1  17
HETATM   17  N3  UNL     1      -3.251  24.911  46.333  1.00  0.00     0.119 N
HETATM   18  C10 UNL     1      -3.063  24.720  47.738  1.00  0.00     0.276 C
HETATM   19  C11 UNL     1      -4.258  24.957  48.596  1.00  0.00     0.040 C
HETATM   20  C12 UNL     1      -5.468  24.276  48.039  1.00  0.00    -0.035 C
HETATM   21  C13 UNL     1      -5.395  22.779  48.218  1.00  0.00     0.010 C
HETATM   22  C17 UNL     1      -6.690  24.821  48.784  1.00  0.00     0.010 C
HETATM   23  C18 UNL     1      -5.634  24.601  46.596  1.00  0.00     0.074 C
HETATM   24  C14 UNL     1      -6.199  22.272  49.372  1.00  0.00     0.001 C
HETATM   25  C15 UNL     1      -6.169  23.153  50.580  1.00  0.00     0.000 C
HETATM   26  C16 UNL     1      -6.565  24.560  50.269  1.00  0.00     0.001 C
HETATM   27  C19 UNL     1      -4.552  25.440  46.007  1.00  0.00     0.417 C
BRANCH  27  28
HETATM   28  N4  UNL     1      -4.722  26.823  46.377  1.00  0.00    -0.048 N
ATOM     29  H43 UNL     1      -4.716  26.928  47.391  1.00  0.00     0.276 HD
ATOM     30  H42 UNL     1      -3.889  27.364  46.144  1.00  0.00     0.276 HD
ATOM     31  H41 UNL     1      -5.555  27.254  45.975  1.00  0.00     0.276 HD
ENDBRANCH  27  28
ENDBRANCH   1  17
TORSDOF 11
ENDMDL