MODEL 1
REMARK VINA RESULT: -6.650508113      0.000      0.000
REMARK  10 active torsions:
REMARK  status: ('A' for Active; 'I' for Inactive)
REMARK    1  A    between atoms: C2_2  and  C3_3
REMARK    2  A    between atoms: C3_3  and  N1_6
REMARK    3  A    between atoms: N1_6  and  C6_9
REMARK    4  A    between atoms: C6_9  and  C7_10
REMARK    5  A    between atoms: C7_10  and  C8_11
REMARK    6  A    between atoms: C8_11  and  C10_13
REMARK    7  A    between atoms: C8_11  and  C15_19
REMARK    8  A    between atoms: C10_13  and  C11_14
REMARK    9  A    between atoms: C11_14  and  C12_15
REMARK   10  A    between atoms: C16_20  and  O1_21
ROOT
HETATM    1  C12 UNL     1      -6.233  26.537  46.197  1.00  0.00    -0.016 C
HETATM    2  C13 UNL     1      -6.795  27.677  46.557  1.00  0.00     0.089 C
HETATM    3  C14 UNL     1      -8.218  27.778  46.593  1.00  0.00     0.087 C
HETATM    4  N2  UNL     1      -9.385  27.851  46.625  1.00  0.00    -0.192 NA
ENDROOT
BRANCH   1   5
HETATM    5  C11 UNL     1      -4.759  26.355  46.135  1.00  0.00     0.028 C
BRANCH   5   6
HETATM    6  C10 UNL     1      -4.487  24.915  45.887  1.00  0.00     0.015 C
BRANCH   6   7
HETATM    7  C8  UNL     1      -3.195  24.404  46.497  1.00  0.00    -0.009 C
HETATM    8  C9  UNL     1      -2.500  25.672  46.962  1.00  0.00     0.018 C
BRANCH   7   9
HETATM    9  C7  UNL     1      -2.428  23.904  45.293  1.00  0.00     0.039 C
BRANCH   9  10
HETATM   10  C6  UNL     1      -2.418  24.835  44.110  1.00  0.00     0.234 C
BRANCH  10  11
HETATM   11  N1  UNL     1      -1.157  24.509  43.413  1.00  0.00    -0.064 N
ATOM     12  H12 UNL     1      -1.328  24.080  42.503  1.00  0.00     0.278 HD
ATOM     13  H11 UNL     1      -0.669  23.733  43.859  1.00  0.00     0.278 HD
BRANCH  11  14
HETATM   14  C3  UNL     1      -0.315  25.678  43.304  1.00  0.00     0.135 C
HETATM   15  C4  UNL     1       0.875  25.444  44.220  1.00  0.00     0.050 C
HETATM   16  C5  UNL     1      -1.001  26.929  43.768  1.00  0.00     0.050 C
BRANCH  14  17
HETATM   17  C2  UNL     1       0.213  25.826  41.933  1.00  0.00     0.001 C
HETATM   18  C1  UNL     1      -0.134  24.981  40.995  1.00  0.00     0.009 C
ENDBRANCH  14  17
ENDBRANCH  11  14
ENDBRANCH  10  11
ENDBRANCH   9  10
ENDBRANCH   7   9
BRANCH   7  19
HETATM   19  C15 UNL     1      -3.419  23.401  47.536  1.00  0.00     0.259 C
HETATM   20  C16 UNL     1      -2.225  22.465  47.609  1.00  0.00     0.152 C
HETATM   21  C17 UNL     1      -2.820  21.118  48.069  1.00  0.00     0.035 C
HETATM   22  C18 UNL     1      -3.253  21.387  49.472  1.00  0.00     0.033 C
HETATM   23  C19 UNL     1      -3.811  22.691  49.779  1.00  0.00     0.272 C
HETATM   24  N3  UNL     1      -3.674  23.780  48.861  1.00  0.00     0.092 N
HETATM   25  C20 UNL     1      -4.756  24.668  49.140  1.00  0.00     0.310 C
BRANCH  20  26
HETATM   26  O1  UNL     1      -1.351  22.812  48.651  1.00  0.00    -0.393 OA
ATOM     27  H1  UNL     1      -1.259  23.753  48.738  1.00  0.00     0.210 HD
ENDBRANCH  20  26
ENDBRANCH   7  19
ENDBRANCH   6   7
ENDBRANCH   5   6
ENDBRANCH   1   5
TORSDOF 10
ENDMDL