MODEL 3
REMARK VINA RESULT: -7.014640168      1.852      3.257
REMARK  11 active torsions:
REMARK  status: ('A' for Active; 'I' for Inactive)
REMARK    1  A    between atoms: C2_2  and  C3_3
REMARK    2  A    between atoms: C4_8  and  N3_9
REMARK       I    between atoms: N3_9  and  C5_11
REMARK    3  A    between atoms: C7_19  and  N8_20
REMARK    4  A    between atoms: N8_20  and  C8_22
REMARK    5  A    between atoms: C8_22  and  C9_23
REMARK    6  A    between atoms: C9_23  and  C10_24
REMARK    7  A    between atoms: C10_24  and  C11_25
REMARK    8  A    between atoms: C11_25  and  C12_26
REMARK    9  A    between atoms: C12_26  and  C13_27
REMARK   10  A    between atoms: C13_27  and  C14_28
REMARK   11  A    between atoms: C14_28  and  C15_29
ROOT
HETATM    1  N3  UNL     1      -6.666  23.660  50.475  1.00  0.00    -0.161 N
ATOM      2  H3  UNL     1      -6.919  23.018  51.225  1.00  0.00     0.187 HD
HETATM    3  C5  UNL     1      -7.589  24.650  50.114  1.00  0.00     0.215 C
HETATM    4  N4  UNL     1      -8.397  24.525  48.956  1.00  0.00    -0.062 NA
HETATM    5  N5  UNL     1      -7.701  25.699  50.859  1.00  0.00    -0.267 N
ATOM      6  H5  UNL     1      -8.375  26.415  50.588  1.00  0.00     0.180 HD
HETATM    7  C6  UNL     1      -6.950  25.903  52.011  1.00  0.00     0.184 C
HETATM    8  N6  UNL     1      -6.303  26.065  52.975  1.00  0.00    -0.172 NA
ENDROOT
BRANCH   1   9
HETATM    9  C4  UNL     1      -5.508  23.514  49.908  1.00  0.00     0.701 A
HETATM   10  N2  UNL     1      -4.440  23.074  50.563  1.00  0.00    -0.131 N
HETATM   11  N1  UNL     1      -3.297  22.950  49.931  1.00  0.00    -0.283 N
ATOM     12  H2  UNL     1      -4.509  22.835  51.551  1.00  0.00     0.205 HD
HETATM   13  C3  UNL     1      -3.136  23.253  48.611  1.00  0.00     0.092 A
ATOM     14  H1  UNL     1      -2.489  22.610  50.453  1.00  0.00     0.187 HD
HETATM   15  C7  UNL     1      -4.218  23.712  47.896  1.00  0.00     0.149 A
HETATM   16  N7  UNL     1      -5.404  23.820  48.633  1.00  0.00    -0.173 N
ATOM     17  H7  UNL     1      -6.237  24.156  48.152  1.00  0.00     0.186 HD
BRANCH  13  18
HETATM   18  C2  UNL     1      -1.815  23.077  48.002  1.00  0.00     0.024 C
HETATM   19  C1  UNL     1      -1.567  21.918  47.396  1.00  0.00     0.013 C
ENDBRANCH  13  18
BRANCH  15  20
HETATM   20  N8  UNL     1      -4.261  24.029  46.720  1.00  0.00    -0.354 N
ATOM     21  H8  UNL     1      -4.384  23.150  46.217  1.00  0.00     0.166 HD
BRANCH  20  22
HETATM   22  C8  UNL     1      -4.226  24.967  45.766  1.00  0.00     0.062 C
BRANCH  22  23
HETATM   23  C9  UNL     1      -2.931  25.099  44.968  1.00  0.00     0.044 C
BRANCH  23  24
HETATM   24  C10 UNL     1      -1.949  25.922  45.755  1.00  0.00     0.005 C
BRANCH  24  25
HETATM   25  C11 UNL     1      -0.762  26.392  44.982  1.00  0.00     0.000 C
BRANCH  25  26
HETATM   26  C12 UNL     1      -0.214  25.228  44.180  1.00  0.00     0.000 C
BRANCH  26  27
HETATM   27  C13 UNL     1       0.686  25.661  43.062  1.00  0.00     0.000 C
BRANCH  27  28
HETATM   28  C14 UNL     1       0.034  25.438  41.735  1.00  0.00    -0.000 C
BRANCH  28  29
HETATM   29  C15 UNL     1      -0.886  24.217  41.853  1.00  0.00    -0.005 C
HETATM   30  C16 UNL     1      -0.755  23.451  40.547  1.00  0.00     0.005 C
ENDBRANCH  28  29
ENDBRANCH  27  28
ENDBRANCH  26  27
ENDBRANCH  25  26
ENDBRANCH  24  25
ENDBRANCH  23  24
ENDBRANCH  22  23
ENDBRANCH  20  22
ENDBRANCH  15  20
ENDBRANCH   1   9
TORSDOF 11
ENDMDL