MODEL 3
REMARK VINA RESULT: -6.882957432      0.741      1.716
REMARK  9 active torsions:
REMARK  status: ('A' for Active; 'I' for Inactive)
REMARK    1  A    between atoms: C2_3  and  S1_4
REMARK    2  A    between atoms: S1_4  and  C3_5
REMARK    3  A    between atoms: C3_5  and  C4_6
REMARK    4  A    between atoms: C4_6  and  N2_7
REMARK    5  A    between atoms: N2_7  and  C5_10
REMARK    6  A    between atoms: C5_10  and  C6_11
REMARK    7  A    between atoms: C6_11  and  C7_12
REMARK    8  A    between atoms: C7_12  and  N3_13
REMARK       I    between atoms: N3_13  and  C8_15
REMARK    9  A    between atoms: C8_15  and  C9_17
ROOT
HETATM    1  N1  UNL     1       0.842  20.441  38.719  1.00  0.00    -0.197 NA
HETATM    2  C1  UNL     1       0.513  21.559  38.737  1.00  0.00     0.069 C
HETATM    3  C2  UNL     1       0.091  22.949  38.758  1.00  0.00     0.197 C
ENDROOT
BRANCH   3   4
HETATM    4  S1  UNL     1      -0.679  23.459  40.288  1.00  0.00    -0.153 SA
BRANCH   4   5
HETATM    5  C3  UNL     1      -0.146  25.039  40.923  1.00  0.00     0.102 C
BRANCH   5   6
HETATM    6  C4  UNL     1      -0.419  25.284  42.374  1.00  0.00     0.242 C
BRANCH   6   7
HETATM    7  N2  UNL     1       0.730  25.660  43.136  1.00  0.00    -0.074 N
ATOM      8  H22 UNL     1       1.537  25.083  42.897  1.00  0.00     0.277 HD
ATOM      9  H21 UNL     1       1.087  26.569  42.842  1.00  0.00     0.277 HD
BRANCH   7  10
HETATM   10  C5  UNL     1       0.475  25.635  44.540  1.00  0.00     0.234 C
BRANCH  10  11
HETATM   11  C6  UNL     1      -0.888  25.136  44.929  1.00  0.00     0.047 C
BRANCH  11  12
HETATM   12  C7  UNL     1      -1.627  26.278  45.610  1.00  0.00     0.124 C
BRANCH  12  13
HETATM   13  N3  UNL     1      -2.584  25.751  46.542  1.00  0.00    -0.360 N
HETATM   14  C8  UNL     1      -3.960  25.676  46.267  1.00  0.00     0.226 C
HETATM   15  O1  UNL     1      -4.392  26.059  45.140  1.00  0.00    -0.273 OA
ATOM     16  H3  UNL     1      -2.250  25.414  47.445  1.00  0.00     0.162 HD
BRANCH  14  17
HETATM   17  C9  UNL     1      -4.946  25.173  47.243  1.00  0.00     0.042 C
HETATM   18  C10 UNL     1      -5.646  23.925  46.683  1.00  0.00     0.024 C
HETATM   19  C11 UNL     1      -6.656  23.457  47.679  1.00  0.00    -0.013 C
HETATM   20  C12 UNL     1      -6.029  23.127  49.001  1.00  0.00     0.009 C
HETATM   21  C16 UNL     1      -7.733  24.508  47.900  1.00  0.00     0.009 C
HETATM   22  C13 UNL     1      -5.341  24.354  49.550  1.00  0.00    -0.013 C
HETATM   23  C14 UNL     1      -6.305  25.502  49.704  1.00  0.00     0.009 C
HETATM   24  C18 UNL     1      -4.291  24.766  48.519  1.00  0.00     0.024 C
HETATM   25  C15 UNL     1      -7.071  25.738  48.445  1.00  0.00    -0.013 C
HETATM   26  C17 UNL     1      -6.043  26.209  47.409  1.00  0.00     0.024 C
ENDBRANCH  14  17
ENDBRANCH  12  13
ENDBRANCH  11  12
ENDBRANCH  10  11
ENDBRANCH   7  10
ENDBRANCH   6   7
ENDBRANCH   5   6
ENDBRANCH   4   5
ENDBRANCH   3   4
TORSDOF 9
ENDMDL