MODEL 1
REMARK VINA RESULT: -6.895856672      0.000      0.000
REMARK  11 active torsions:
REMARK  status: ('A' for Active; 'I' for Inactive)
REMARK    1  A    between atoms: C2_2  and  C3_3
REMARK    2  A    between atoms: C3_3  and  C4_4
REMARK    3  A    between atoms: C4_4  and  N1_5
REMARK    4  A    between atoms: N1_5  and  C5_8
REMARK    5  A    between atoms: C5_8  and  C6_9
REMARK    6  A    between atoms: C6_9  and  C7_10
REMARK    7  A    between atoms: C7_10  and  N2_11
REMARK    8  A    between atoms: N2_11  and  C8_13
REMARK    9  A    between atoms: C8_13  and  N3_15
REMARK   10  A    between atoms: N3_15  and  N4_17
REMARK   11  A    between atoms: C9_19  and  C11_22
ROOT
HETATM    1  N4  UNL     1      -4.104  26.541  45.476  1.00  0.00    -0.292 N
ATOM      2  H4  UNL     1      -4.381  26.892  44.560  1.00  0.00     0.187 HD
HETATM    3  C9  UNL     1      -2.987  25.905  45.556  1.00  0.00     0.110 C
HETATM    4  C10 UNL     1      -2.571  25.399  46.829  1.00  0.00     0.115 C
HETATM    5  N5  UNL     1      -2.249  24.984  47.853  1.00  0.00    -0.190 NA
ENDROOT
BRANCH   3   6
HETATM    6  C11 UNL     1      -2.135  25.689  44.395  1.00  0.00     0.052 C
HETATM    7  C12 UNL     1      -0.954  26.658  44.300  1.00  0.00     0.016 C
HETATM    8  C13 UNL     1       0.083  25.731  43.675  1.00  0.00    -0.013 C
HETATM    9  C14 UNL     1      -0.478  25.210  42.399  1.00  0.00     0.005 C
HETATM   10  C17 UNL     1      -0.110  24.520  44.607  1.00  0.00     0.010 C
HETATM   11  C15 UNL     1      -1.418  24.046  42.755  1.00  0.00     0.006 C
HETATM   12  C16 UNL     1      -1.594  24.312  44.248  1.00  0.00    -0.003 C
ENDBRANCH   3   6
BRANCH   1  13
HETATM   13  N3  UNL     1      -4.961  26.784  46.543  1.00  0.00    -0.276 N
ATOM     14  H3  UNL     1      -4.696  27.466  47.254  1.00  0.00     0.189 HD
BRANCH  13  15
HETATM   15  C8  UNL     1      -6.201  26.098  46.658  1.00  0.00     0.186 C
HETATM   16  S1  UNL     1      -7.618  26.891  46.559  1.00  0.00    -0.040 SA
BRANCH  15  17
HETATM   17  N2  UNL     1      -6.242  24.680  46.867  1.00  0.00    -0.366 N
ATOM     18  H2  UNL     1      -6.619  24.080  46.133  1.00  0.00     0.161 HD
BRANCH  17  19
HETATM   19  C7  UNL     1      -5.762  24.079  48.088  1.00  0.00     0.123 C
BRANCH  19  20
HETATM   20  C6  UNL     1      -5.641  22.590  47.920  1.00  0.00     0.047 C
BRANCH  20  21
HETATM   21  C5  UNL     1      -4.296  22.055  48.350  1.00  0.00     0.234 C
BRANCH  21  22
HETATM   22  N1  UNL     1      -3.414  21.973  47.221  1.00  0.00    -0.075 N
ATOM     23  H12 UNL     1      -3.105  22.904  46.941  1.00  0.00     0.277 HD
ATOM     24  H11 UNL     1      -3.931  21.702  46.384  1.00  0.00     0.277 HD
BRANCH  22  25
HETATM   25  C4  UNL     1      -2.291  21.113  47.413  1.00  0.00     0.232 C
BRANCH  25  26
HETATM   26  C3  UNL     1      -0.997  21.732  46.887  1.00  0.00     0.027 C
BRANCH  26  27
HETATM   27  C2  UNL     1       0.123  20.705  46.927  1.00  0.00    -0.003 C
HETATM   28  C1  UNL     1       0.616  20.587  48.345  1.00  0.00     0.005 C
ENDBRANCH  26  27
ENDBRANCH  25  26
ENDBRANCH  22  25
ENDBRANCH  21  22
ENDBRANCH  20  21
ENDBRANCH  19  20
ENDBRANCH  17  19
ENDBRANCH  15  17
ENDBRANCH  13  15
ENDBRANCH   1  13
TORSDOF 11
ENDMDL