MODEL 3
REMARK VINA RESULT: -7.119718097      2.279      6.308
REMARK  12 active torsions:
REMARK  status: ('A' for Active; 'I' for Inactive)
REMARK    1  A    between atoms: C6_6  and  C7_7
REMARK    2  A    between atoms: C7_7  and  C8_8
REMARK    3  A    between atoms: C9_9  and  C10_10
REMARK    4  A    between atoms: C10_10  and  C11_11
REMARK    5  A    between atoms: C12_12  and  C13_13
REMARK    6  A    between atoms: C13_13  and  C14_14
REMARK    7  A    between atoms: C15_15  and  C16_16
REMARK    8  A    between atoms: C17_17  and  C18_18
REMARK    9  A    between atoms: C18_18  and  O1_19
REMARK   10  A    between atoms: C18_18  and  C19_21
REMARK   11  A    between atoms: C19_21  and  N1_22
REMARK   12  A    between atoms: C21_28  and  O3_29
ROOT
HETATM    1  C10 UNL     1      -2.138  20.480  47.713  1.00  0.00     0.053 C
ENDROOT
BRANCH   1   2
HETATM    2  C9  UNL     1      -1.781  21.941  47.662  1.00  0.00    -0.027 C
HETATM    3  C8  UNL     1      -2.114  22.703  46.629  1.00  0.00    -0.030 C
BRANCH   3   4
HETATM    4  C7  UNL     1      -1.719  24.131  46.668  1.00  0.00     0.034 C
BRANCH   4   5
HETATM    5  C6  UNL     1      -0.863  24.405  45.450  1.00  0.00     0.023 C
HETATM    6  C5  UNL     1      -0.604  25.902  45.446  1.00  0.00     0.039 C
HETATM    7  C4  UNL     1      -1.571  26.385  44.397  1.00  0.00     0.122 C
HETATM    8  C3  UNL     1      -0.766  26.660  43.141  1.00  0.00     0.038 C
HETATM    9  O2  UNL     1      -2.498  25.377  44.229  1.00  0.00    -0.378 OA
HETATM   10  C2  UNL     1       0.010  25.398  42.816  1.00  0.00     0.015 C
HETATM   11  C1  UNL     1       0.424  25.506  41.356  1.00  0.00     0.012 C
HETATM   12  C21 UNL     1      -0.911  24.231  42.950  1.00  0.00     0.151 C
HETATM   13  C20 UNL     1      -1.710  24.228  44.231  1.00  0.00     0.155 C
BRANCH  12  14
HETATM   14  O3  UNL     1      -1.852  24.325  41.899  1.00  0.00    -0.393 OA
ATOM     15  H3  UNL     1      -1.728  25.173  41.489  1.00  0.00     0.210 HD
ENDBRANCH  12  14
ENDBRANCH   4   5
ENDBRANCH   3   4
ENDBRANCH   1   2
BRANCH   1  16
HETATM   16  C11 UNL     1      -3.631  20.450  47.906  1.00  0.00    -0.027 C
HETATM   17  C12 UNL     1      -4.145  21.281  48.794  1.00  0.00    -0.027 C
BRANCH  17  18
HETATM   18  C13 UNL     1      -5.636  21.277  49.011  1.00  0.00     0.054 C
BRANCH  18  19
HETATM   19  C14 UNL     1      -6.001  22.652  49.377  1.00  0.00    -0.023 C
HETATM   20  C15 UNL     1      -6.091  23.622  48.527  1.00  0.00    -0.004 C
BRANCH  20  21
HETATM   21  C16 UNL     1      -5.841  23.470  47.108  1.00  0.00    -0.002 C
HETATM   22  C17 UNL     1      -5.492  24.507  46.356  1.00  0.00     0.006 C
BRANCH  22  23
HETATM   23  C18 UNL     1      -5.361  25.830  47.003  1.00  0.00     0.166 C
BRANCH  23  24
HETATM   24  O1  UNL     1      -4.195  26.443  46.539  1.00  0.00    -0.390 OA
ATOM     25  H1  UNL     1      -3.727  25.830  45.984  1.00  0.00     0.210 HD
ENDBRANCH  23  24
BRANCH  23  26
HETATM   26  C19 UNL     1      -6.505  26.745  46.603  1.00  0.00     0.265 C
BRANCH  26  27
HETATM   27  N1  UNL     1      -5.936  28.044  46.315  1.00  0.00    -0.077 N
ATOM     28  H13 UNL     1      -6.600  28.808  46.440  1.00  0.00     0.274 HD
ATOM     29  H12 UNL     1      -5.256  28.346  47.012  1.00  0.00     0.274 HD
ATOM     30  H11 UNL     1      -5.548  28.002  45.373  1.00  0.00     0.274 HD
ENDBRANCH  26  27
ENDBRANCH  23  26
ENDBRANCH  22  23
ENDBRANCH  20  21
ENDBRANCH  18  19
ENDBRANCH  17  18
ENDBRANCH   1  16
TORSDOF 12
ENDMDL