MODEL 2
REMARK VINA RESULT: -7.271281525      3.096      4.150
REMARK  11 active torsions:
REMARK  status: ('A' for Active; 'I' for Inactive)
REMARK    1  A    between atoms: C3_3  and  C12_13
REMARK    2  A    between atoms: C4_4  and  C5_5
REMARK    3  A    between atoms: C6_6  and  C7_7
REMARK    4  A    between atoms: C7_7  and  C8_8
REMARK    5  A    between atoms: C8_8  and  C9_9
REMARK    6  A    between atoms: C9_9  and  N1_10
REMARK    7  A    between atoms: C12_13  and  O1_14
REMARK    8  A    between atoms: C12_13  and  C13_16
REMARK    9  A    between atoms: C12_13  and  C14_23
REMARK   10  A    between atoms: C13_16  and  O2_17
REMARK   11  A    between atoms: N2_19  and  O3_21
ROOT
HETATM    1  C1  UNL     1      -1.523  21.907  48.069  1.00  0.00     0.017 C
HETATM    2  C2  UNL     1      -2.339  22.768  47.796  1.00  0.00    -0.079 C
HETATM    3  C3  UNL     1      -3.310  23.782  47.465  1.00  0.00     0.037 C
HETATM    4  C4  UNL     1      -4.530  23.650  47.937  1.00  0.00     0.019 C
ENDROOT
BRANCH   3   5
HETATM    5  C12 UNL     1      -2.908  24.932  46.616  1.00  0.00     0.162 C
BRANCH   5   6
HETATM    6  O1  UNL     1      -2.439  25.913  47.525  1.00  0.00    -0.375 OA
ATOM      7  H1  UNL     1      -1.535  26.066  47.278  1.00  0.00     0.211 HD
ENDBRANCH   5   6
BRANCH   5   8
HETATM    8  C13 UNL     1      -3.976  25.513  45.816  1.00  0.00     0.176 C
HETATM    9  N2  UNL     1      -4.371  26.741  46.015  1.00  0.00    -0.248 N
ATOM     10  H2  UNL     1      -3.904  27.275  46.748  1.00  0.00     0.196 HD
BRANCH   8  11
HETATM   11  O2  UNL     1      -4.658  24.848  44.798  1.00  0.00    -0.346 OA
ATOM     12  H2  UNL     1      -5.558  24.548  44.857  1.00  0.00     0.219 HD
ENDBRANCH   8  11
BRANCH   9  13
HETATM   13  O3  UNL     1      -5.355  27.359  45.317  1.00  0.00    -0.288 OA
ATOM     14  H3  UNL     1      -6.277  27.139  45.370  1.00  0.00     0.244 HD
ENDBRANCH   9  13
ENDBRANCH   5   8
BRANCH   5  15
HETATM   15  C14 UNL     1      -1.657  24.570  45.793  1.00  0.00     0.034 C
HETATM   16  C15 UNL     1      -1.943  23.712  44.639  1.00  0.00     0.008 C
HETATM   17  C16 UNL     1      -1.441  24.126  43.313  1.00  0.00     0.001 C
HETATM   18  C17 UNL     1      -1.088  25.563  43.152  1.00  0.00     0.000 C
HETATM   19  C18 UNL     1      -0.109  25.870  44.293  1.00  0.00     0.001 C
HETATM   20  C19 UNL     1      -0.923  25.835  45.554  1.00  0.00     0.008 C
ENDBRANCH   5  15
ENDBRANCH   3   5
BRANCH   4  21
HETATM   21  C5  UNL     1      -4.874  22.515  48.763  1.00  0.00    -0.003 C
HETATM   22  C6  UNL     1      -5.226  22.686  50.014  1.00  0.00    -0.027 C
BRANCH  22  23
HETATM   23  C7  UNL     1      -5.575  21.508  50.844  1.00  0.00     0.029 C
BRANCH  23  24
HETATM   24  C8  UNL     1      -6.240  21.922  52.155  1.00  0.00     0.034 C
BRANCH  24  25
HETATM   25  C9  UNL     1      -6.585  23.400  52.004  1.00  0.00     0.272 C
BRANCH  25  26
HETATM   26  N1  UNL     1      -7.266  23.809  53.198  1.00  0.00     0.091 N
HETATM   27  C10 UNL     1      -6.946  25.107  53.771  1.00  0.00     0.302 A
HETATM   28  C11 UNL     1      -6.623  23.808  54.471  1.00  0.00     0.302 A
ENDBRANCH  25  26
ENDBRANCH  24  25
ENDBRANCH  23  24
ENDBRANCH  22  23
ENDBRANCH   4  21
TORSDOF 11
ENDMDL