MODEL 2
REMARK VINA RESULT: -9.617662864      1.048      1.060
REMARK  6 active torsions:
REMARK  status: ('A' for Active; 'I' for Inactive)
REMARK    1  A    between atoms: C2_7  and  N3_8
REMARK    2  A    between atoms: N3_8  and  C3_10
REMARK    3  A    between atoms: C4_15  and  S1_16
REMARK    4  A    between atoms: S1_16  and  N8_19
REMARK    5  A    between atoms: C8_27  and  C9_28
REMARK       I    between atoms: C9_28  and  N11_30
REMARK    6  A    between atoms: N11_30  and  N12_32
ROOT
HETATM    1  N1  UNL     1      19.228  31.140  13.478  1.00  0.00    -0.383 N
ATOM      2  H11 UNL     1      19.194  30.176  13.812  1.00  0.00     0.157 HD
ATOM      3  H12 UNL     1      19.122  31.334  12.482  1.00  0.00     0.157 HD
HETATM    4  C1  UNL     1      19.401  32.142  14.270  1.00  0.00     0.133 A
HETATM    5  N2  UNL     1      19.446  33.433  13.823  1.00  0.00    -0.325 N
ATOM      6  H2  UNL     1      19.340  33.623  12.826  1.00  0.00     0.169 HD
HETATM    7  C2  UNL     1      19.629  34.461  14.679  1.00  0.00     0.146 A
HETATM    8  C4  UNL     1      19.773  34.222  16.030  1.00  0.00     0.195 A
HETATM    9  N10 UNL     1      19.722  32.928  16.422  1.00  0.00    -0.335 N
ATOM     10  H10 UNL     1      19.829  32.736  17.418  1.00  0.00     0.167 HD
HETATM   11  C8  UNL     1      19.544  31.881  15.612  1.00  0.00     0.147 A
ENDROOT
BRANCH  11  12
HETATM   12  C9  UNL     1      19.502  30.496  16.137  1.00  0.00     0.290 C
HETATM   13  O3  UNL     1      20.541  29.835  16.134  1.00  0.00    -0.264 OA
HETATM   14  N11 UNL     1      18.282  29.987  16.617  1.00  0.00    -0.256 N
ATOM     15  H11 UNL     1      17.466  30.597  16.585  1.00  0.00     0.191 HD
BRANCH  14  16
HETATM   16  N12 UNL     1      18.116  28.716  17.129  1.00  0.00    -0.242 N
HETATM   17  C10 UNL     1      17.994  27.534  16.544  1.00  0.00     0.224 A
HETATM   18  N13 UNL     1      17.849  26.543  17.474  1.00  0.00    -0.293 N
HETATM   19  N14 UNL     1      17.882  27.130  18.652  1.00  0.00    -0.293 N
ATOM     20  H13 UNL     1      17.737  25.546  17.291  1.00  0.00     0.187 HD
HETATM   21  C11 UNL     1      18.042  28.444  18.466  1.00  0.00     0.224 A
ATOM     22  H14 UNL     1      17.798  26.662  19.554  1.00  0.00     0.187 HD
ENDBRANCH  14  16
ENDBRANCH  11  12
BRANCH   8  23
HETATM   23  S1  UNL     1      19.987  35.458  17.237  1.00  0.00     0.288 S
HETATM   24  O1  UNL     1      20.882  35.088  18.357  1.00  0.00    -0.198 OA
HETATM   25  O2  UNL     1      20.694  36.631  16.536  1.00  0.00    -0.198 OA
BRANCH  23  26
HETATM   26  N8  UNL     1      18.468  36.061  17.823  1.00  0.00    -0.240 N
HETATM   27  C5  UNL     1      18.046  36.014  19.084  1.00  0.00     0.127 A
HETATM   28  C6  UNL     1      16.780  36.590  19.190  1.00  0.00     0.107 A
HETATM   29  N9  UNL     1      16.468  36.980  17.960  1.00  0.00    -0.360 N
HETATM   30  C7  UNL     1      17.490  36.660  17.120  1.00  0.00     0.199 A
ATOM     31  H9  UNL     1      15.601  37.443  17.688  1.00  0.00     0.166 HD
ENDBRANCH  23  26
ENDBRANCH   8  23
BRANCH   7  32
HETATM   32  N3  UNL     1      19.687  35.770  14.180  1.00  0.00    -0.340 N
ATOM     33  H3  UNL     1      19.550  36.547  14.826  1.00  0.00     0.164 HD
BRANCH  32  34
HETATM   34  C3  UNL     1      19.930  36.058  12.802  1.00  0.00     0.308 C
HETATM   35  N4  UNL     1      20.439  37.387  12.538  1.00  0.00    -0.085 NA
HETATM   36  N5  UNL     1      20.210  37.487  11.145  1.00  0.00    -0.018 NA
HETATM   37  N6  UNL     1      19.099  36.722  10.863  1.00  0.00    -0.018 NA
HETATM   38  N7  UNL     1      18.683  36.092  12.023  1.00  0.00    -0.085 NA
ENDBRANCH  32  34
ENDBRANCH   7  32
TORSDOF 6
ENDMDL