MODEL 1
REMARK VINA RESULT: -7.125206258      0.000      0.000
REMARK  12 active torsions:
REMARK  status: ('A' for Active; 'I' for Inactive)
REMARK    1  A    between atoms: S1_2  and  C2_3
REMARK    2  A    between atoms: C2_3  and  C3_4
REMARK    3  A    between atoms: C4_6  and  C5_7
REMARK    4  A    between atoms: C4_6  and  C9_27
REMARK    5  A    between atoms: C5_7  and  N1_8
REMARK    6  A    between atoms: N1_8  and  C6_10
REMARK    7  A    between atoms: C7_13  and  N3_14
REMARK    8  A    between atoms: N4_17  and  N5_18
REMARK    9  A    between atoms: C8_21  and  N6_22
REMARK   10  A    between atoms: C9_27  and  N9_32
REMARK   11  A    between atoms: N8_28  and  O1_30
REMARK   12  A    between atoms: N9_32  and  O2_34
ROOT
HETATM    1  C5  UNL     1      21.530  38.953  10.801  1.00  0.00     0.197 C
ENDROOT
BRANCH   1   2
HETATM    2  C4  UNL     1      20.595  38.274   9.803  1.00  0.00     0.207 C
HETATM    3  S2  UNL     1      20.697  39.211   8.293  1.00  0.00    -0.097 SA
HETATM    4  C3  UNL     1      18.964  39.525   7.875  1.00  0.00     0.210 C
HETATM    5  S3  UNL     1      18.203  38.610   9.203  1.00  0.00     0.281 S
HETATM    6  O3  UNL     1      19.348  38.284  10.309  1.00  0.00    -0.242 OA
HETATM    7  O4  UNL     1      17.487  37.402   8.668  1.00  0.00    -0.197 OA
HETATM    8  O5  UNL     1      17.128  39.472   9.851  1.00  0.00    -0.197 OA
BRANCH   4   9
HETATM    9  C2  UNL     1      18.595  40.970   8.022  1.00  0.00     0.106 C
BRANCH   9  10
HETATM   10  S1  UNL     1      19.943  41.999   8.623  1.00  0.00    -0.171 SA
HETATM   11  C1  UNL     1      19.678  42.247  10.417  1.00  0.00     0.089 C
ENDBRANCH   9  10
ENDBRANCH   4   9
BRANCH   2  12
HETATM   12  C9  UNL     1      21.016  36.874   9.537  1.00  0.00     0.170 C
HETATM   13  N8  UNL     1      22.049  36.548   8.880  1.00  0.00    -0.252 N
ATOM     14  H8  UNL     1      22.651  37.277   8.497  1.00  0.00     0.195 HD
BRANCH  13  15
HETATM   15  O1  UNL     1      22.370  35.233   8.677  1.00  0.00    -0.288 OA
ATOM     16  H1  UNL     1      22.121  34.787   7.876  1.00  0.00     0.244 HD
ENDBRANCH  13  15
BRANCH  12  17
HETATM   17  N9  UNL     1      20.192  35.847  10.059  1.00  0.00    -0.252 N
ATOM     18  H9  UNL     1      19.767  35.157   9.439  1.00  0.00     0.195 HD
BRANCH  17  19
HETATM   19  O2  UNL     1      19.978  35.794  11.388  1.00  0.00    -0.288 OA
ATOM     20  H2  UNL     1      19.374  36.411  11.782  1.00  0.00     0.244 HD
ENDBRANCH  17  19
ENDBRANCH  12  17
ENDBRANCH   2  12
ENDBRANCH   1   2
BRANCH   1  21
HETATM   21  N1  UNL     1      21.759  38.135  11.964  1.00  0.00    -0.221 N
ATOM     22  H1  UNL     1      21.409  37.177  11.982  1.00  0.00     0.177 HD
BRANCH  21  23
HETATM   23  C6  UNL     1      22.459  38.639  13.075  1.00  0.00     0.707 A
HETATM   24  N2  UNL     1      22.252  38.129  14.302  1.00  0.00    -0.020 N
HETATM   25  C7  UNL     1      22.879  38.557  15.403  1.00  0.00     0.726 A
ATOM     26  H2  UNL     1      21.577  37.371  14.399  1.00  0.00     0.203 HD
HETATM   27  N4  UNL     1      23.777  39.563  15.288  1.00  0.00     0.084 N
HETATM   28  C8  UNL     1      24.013  40.101  14.079  1.00  0.00     0.726 A
HETATM   29  N7  UNL     1      23.359  39.638  13.002  1.00  0.00    -0.020 N
ATOM     30  H7  UNL     1      23.550  40.059  12.093  1.00  0.00     0.203 HD
BRANCH  25  31
HETATM   31  N3  UNL     1      22.608  38.001  16.526  1.00  0.00    -0.232 N
ATOM     32  H32 UNL     1      21.842  38.316  17.122  1.00  0.00     0.174 HD
ATOM     33  H31 UNL     1      23.178  37.215  16.837  1.00  0.00     0.174 HD
ENDBRANCH  25  31
BRANCH  27  34
HETATM   34  N5  UNL     1      24.409  39.982  16.449  1.00  0.00    -0.309 N
ATOM     35  H52 UNL     1      24.056  40.734  17.042  1.00  0.00     0.178 HD
ATOM     36  H51 UNL     1      25.272  39.504  16.708  1.00  0.00     0.178 HD
ENDBRANCH  27  34
BRANCH  28  37
HETATM   37  N6  UNL     1      24.881  41.073  13.968  1.00  0.00    -0.232 N
ATOM     38  H62 UNL     1      25.649  41.165  14.633  1.00  0.00     0.174 HD
ATOM     39  H61 UNL     1      24.785  41.745  13.207  1.00  0.00     0.174 HD
ENDBRANCH  28  37
ENDBRANCH  21  23
ENDBRANCH   1  21
TORSDOF 12
ENDMDL