MODEL 1
REMARK VINA RESULT: -10.656622150      0.000      0.000
REMARK  12 active torsions:
REMARK  status: ('A' for Active; 'I' for Inactive)
REMARK    1  A    between atoms: C2_2  and  O1_3
REMARK    2  A    between atoms: C2_2  and  C13_41
REMARK    3  A    between atoms: O1_3  and  N1_4
REMARK    4  A    between atoms: N1_4  and  C3_5
REMARK    5  A    between atoms: C3_5  and  O2_6
REMARK    6  A    between atoms: C3_5  and  C4_8
REMARK    7  A    between atoms: C7_16  and  N4_17
REMARK    8  A    between atoms: N4_17  and  C8_19
REMARK    9  A    between atoms: C9_25  and  N7_26
REMARK   10  A    between atoms: C11_31  and  N9_32
REMARK   11  A    between atoms: N9_32  and  O5_34
REMARK   12  A    between atoms: C12_38  and  O6_39
ROOT
HETATM    1  C4  UNL     1      18.318  30.122  14.992  1.00  0.00     0.152 A
HETATM    2  O3  UNL     1      18.487  31.195  15.722  1.00  0.00    -0.287 OA
HETATM    3  C5  UNL     1      19.050  32.142  15.017  1.00  0.00     0.182 A
HETATM    4  C6  UNL     1      19.404  33.474  15.454  1.00  0.00     0.146 A
HETATM    5  N2  UNL     1      19.189  33.927  16.690  1.00  0.00    -0.279 N
ATOM      6  H2  UNL     1      18.751  33.284  17.350  1.00  0.00     0.188 HD
HETATM    7  N3  UNL     1      19.491  35.125  17.137  1.00  0.00    -0.131 N
ATOM      8  H3  UNL     1      19.294  35.396  18.101  1.00  0.00     0.205 HD
HETATM    9  C7  UNL     1      20.067  35.977  16.278  1.00  0.00     0.702 A
HETATM   10  N8  UNL     1      20.324  35.605  14.995  1.00  0.00    -0.167 N
HETATM   11  C10 UNL     1      20.948  36.559  14.104  1.00  0.00     0.177 C
HETATM   12  C11 UNL     1      20.012  34.381  14.557  1.00  0.00     0.175 A
HETATM   13  N10 UNL     1      19.251  31.655  13.783  1.00  0.00    -0.313 N
ATOM     14  H10 UNL     1      19.676  32.164  13.009  1.00  0.00     0.170 HD
HETATM   15  C12 UNL     1      18.796  30.371  13.731  1.00  0.00     0.176 A
ENDROOT
BRANCH  12  16
HETATM   16  N9  UNL     1      20.224  33.966  13.370  1.00  0.00    -0.250 N
ATOM     17  H9  UNL     1      21.104  33.465  13.245  1.00  0.00     0.196 HD
BRANCH  16  18
HETATM   18  O5  UNL     1      19.486  34.080  12.264  1.00  0.00    -0.288 OA
ATOM     19  H5  UNL     1      18.632  34.474  12.128  1.00  0.00     0.244 HD
ENDBRANCH  16  18
ENDBRANCH  12  16
BRANCH   1  20
HETATM   20  C3  UNL     1      17.712  28.867  15.469  1.00  0.00     0.300 C
BRANCH  20  21
HETATM   21  N1  UNL     1      18.527  28.206  16.470  1.00  0.00    -0.061 NA
BRANCH  21  22
HETATM   22  O1  UNL     1      17.850  27.312  17.186  1.00  0.00    -0.268 OA
BRANCH  22  23
HETATM   23  C2  UNL     1      18.188  27.246  18.512  1.00  0.00     0.243 C
HETATM   24  C1  UNL     1      19.688  26.985  18.639  1.00  0.00     0.053 C
BRANCH  23  25
HETATM   25  C13 UNL     1      17.918  28.507  19.247  1.00  0.00     0.204 C
HETATM   26  O7  UNL     1      18.651  28.888  20.192  1.00  0.00    -0.646 OA
HETATM   27  O8  UNL     1      16.841  29.305  18.909  1.00  0.00    -0.646 OA
ENDBRANCH  23  25
ENDBRANCH  22  23
ENDBRANCH  21  22
ENDBRANCH  20  21
BRANCH  20  28
HETATM   28  O2  UNL     1      16.450  29.064  16.026  1.00  0.00    -0.371 OA
ATOM     29  H2  UNL     1      16.567  29.571  16.821  1.00  0.00     0.212 HD
ENDBRANCH  20  28
ENDBRANCH   1  20
BRANCH  15  30
HETATM   30  O6  UNL     1      18.816  29.509  12.638  1.00  0.00    -0.344 OA
ATOM     31  H6  UNL     1      19.366  29.560  11.865  1.00  0.00     0.219 HD
ENDBRANCH  15  30
BRANCH   9  32
HETATM   32  N4  UNL     1      20.371  37.157  16.692  1.00  0.00    -0.169 N
ATOM     33  H4  UNL     1      19.768  37.927  16.402  1.00  0.00     0.186 HD
BRANCH  32  34
HETATM   34  C8  UNL     1      21.459  37.464  17.508  1.00  0.00     0.188 A
HETATM   35  N5  UNL     1      21.662  37.042  18.765  1.00  0.00    -0.221 N
HETATM   36  O4  UNL     1      22.782  37.534  19.203  1.00  0.00    -0.153 OA
ATOM     37  H5  UNL     1      21.036  36.433  19.293  1.00  0.00     0.198 HD
HETATM   38  N6  UNL     1      23.348  38.270  18.297  1.00  0.00    -0.222 N
HETATM   39  C9  UNL     1      22.539  38.255  17.197  1.00  0.00     0.168 A
ATOM     40  H6  UNL     1      24.233  38.768  18.389  1.00  0.00     0.198 HD
BRANCH  39  41
HETATM   41  N7  UNL     1      22.768  38.867  16.108  1.00  0.00    -0.381 N
ATOM     42  H72 UNL     1      22.566  39.851  15.931  1.00  0.00     0.157 HD
ATOM     43  H71 UNL     1      23.178  38.491  15.253  1.00  0.00     0.157 HD
ENDBRANCH  39  41
ENDBRANCH  32  34
ENDBRANCH   9  32
TORSDOF 12
ENDMDL