MODEL 4
REMARK VINA RESULT: -9.612761893      4.040      7.443
REMARK  9 active torsions:
REMARK  status: ('A' for Active; 'I' for Inactive)
REMARK    1  A    between atoms: C2_7  and  C3_8
REMARK    2  A    between atoms: C4_9  and  C5_10
REMARK    3  A    between atoms: C5_10  and  O1_11
REMARK    4  A    between atoms: C5_10  and  C6_13
REMARK    5  A    between atoms: C6_13  and  O2_14
REMARK    6  A    between atoms: C6_13  and  O3_16
REMARK    7  A    between atoms: C8_20  and  N4_21
REMARK       I    between atoms: N4_21  and  C9_23
REMARK       I    between atoms: C9_23  and  N5_24
REMARK       I    between atoms: C9_23  and  N6_28
REMARK    8  A    between atoms: C10_32  and  O5_33
REMARK    9  A    between atoms: C13_41  and  N8_42
REMARK       I    between atoms: N8_42  and  C14_44
ROOT
HETATM    1  C3  UNL     1      21.711  37.693  12.864  1.00  0.00     0.079 A
HETATM    2  C4  UNL     1      20.855  36.702  13.317  1.00  0.00     0.104 A
HETATM    3  O4  UNL     1      20.909  36.620  14.624  1.00  0.00    -0.306 OA
HETATM    4  C7  UNL     1      21.754  37.499  15.103  1.00  0.00     0.140 A
HETATM    5  C8  UNL     1      22.175  37.825  16.397  1.00  0.00     0.108 A
HETATM    6  C10 UNL     1      23.100  38.822  16.597  1.00  0.00     0.171 A
HETATM    7  C11 UNL     1      23.575  39.467  15.475  1.00  0.00     0.324 A
HETATM    8  O6  UNL     1      24.428  40.387  15.638  1.00  0.00    -0.257 OA
HETATM    9  O7  UNL     1      23.156  39.135  14.260  1.00  0.00    -0.269 OA
HETATM   10  C12 UNL     1      22.283  38.198  14.041  1.00  0.00     0.132 A
ENDROOT
BRANCH   1  11
HETATM   11  C2  UNL     1      21.961  38.120  11.498  1.00  0.00     0.152 A
HETATM   12  N3  UNL     1      22.745  39.188  11.297  1.00  0.00    -0.269 N
HETATM   13  N2  UNL     1      23.016  39.632  10.062  1.00  0.00    -0.225 N
ATOM     14  H3  UNL     1      23.144  39.672  12.101  1.00  0.00     0.190 HD
HETATM   15  N1  UNL     1      22.506  39.015   9.022  1.00  0.00    -0.113 N
ATOM     16  H2  UNL     1      23.616  40.446   9.931  1.00  0.00     0.209 HD
HETATM   17  C1  UNL     1      22.806  39.503   7.702  1.00  0.00     0.199 C
HETATM   18  C13 UNL     1      21.724  37.951   9.205  1.00  0.00     0.705 A
HETATM   19  N7  UNL     1      21.449  37.500  10.434  1.00  0.00    -0.173 N
ATOM     20  H7  UNL     1      20.850  36.684  10.557  1.00  0.00     0.186 HD
BRANCH  18  21
HETATM   21  N8  UNL     1      21.239  37.370   8.142  1.00  0.00    -0.142 N
HETATM   22  C14 UNL     1      20.379  36.265   8.297  1.00  0.00     0.347 C
HETATM   23  N9  UNL     1      20.920  34.986   8.606  1.00  0.00    -0.039 NA
HETATM   24  O8  UNL     1      19.121  36.381   8.168  1.00  0.00    -0.250 OA
ATOM     25  H8  UNL     1      21.479  37.711   7.211  1.00  0.00     0.189 HD
ENDBRANCH  18  21
ENDBRANCH   1  11
BRANCH   2  26
HETATM   26  C5  UNL     1      20.015  35.875  12.405  1.00  0.00     0.231 C
BRANCH  26  27
HETATM   27  O1  UNL     1      18.973  36.709  11.934  1.00  0.00    -0.384 OA
ATOM     28  H1  UNL     1      18.467  36.197  11.314  1.00  0.00     0.210 HD
ENDBRANCH  26  27
BRANCH  26  29
HETATM   29  C6  UNL     1      19.329  34.756  13.160  1.00  0.00     0.289 C
BRANCH  29  30
HETATM   30  O2  UNL     1      20.170  34.148  14.072  1.00  0.00    -0.368 OA
ATOM     31  H2  UNL     1      20.997  33.890  13.682  1.00  0.00     0.212 HD
ENDBRANCH  29  30
BRANCH  29  32
HETATM   32  O3  UNL     1      18.884  33.818  12.257  1.00  0.00    -0.368 OA
ATOM     33  H3  UNL     1      19.251  32.973  12.487  1.00  0.00     0.212 HD
ENDBRANCH  29  32
ENDBRANCH  26  29
ENDBRANCH   2  26
BRANCH   5  34
HETATM   34  N4  UNL     1      21.643  37.116  17.485  1.00  0.00    -0.336 N
HETATM   35  C9  UNL     1      20.279  36.639  17.409  1.00  0.00     0.480 C
HETATM   36  N5  UNL     1      19.306  37.669  17.196  1.00  0.00    -0.033 N
HETATM   37  N6  UNL     1      19.891  35.914  18.604  1.00  0.00    -0.033 N
ATOM     38  H53 UNL     1      19.391  38.393  17.910  1.00  0.00     0.278 HD
ATOM     39  H52 UNL     1      19.540  38.214  16.366  1.00  0.00     0.278 HD
ATOM     40  H51 UNL     1      18.345  37.332  17.143  1.00  0.00     0.278 HD
ATOM     41  H63 UNL     1      20.540  35.153  18.801  1.00  0.00     0.278 HD
ATOM     42  H62 UNL     1      20.040  36.475  19.442  1.00  0.00     0.278 HD
ATOM     43  H61 UNL     1      18.930  35.578  18.551  1.00  0.00     0.278 HD
ATOM     44  H4  UNL     1      22.208  36.941  18.315  1.00  0.00     0.163 HD
ENDBRANCH   5  34
BRANCH   6  45
HETATM   45  O5  UNL     1      23.494  39.115  17.891  1.00  0.00    -0.354 OA
ATOM     46  H5  UNL     1      23.956  39.929  18.056  1.00  0.00     0.218 HD
ENDBRANCH   6  45
TORSDOF 9
ENDMDL