MODEL 4
REMARK VINA RESULT: -9.516885585      1.495      2.136
REMARK  10 active torsions:
REMARK  status: ('A' for Active; 'I' for Inactive)
REMARK    1  A    between atoms: C2_3  and  C10_28
REMARK    2  A    between atoms: N2_4  and  N3_6
REMARK       I    between atoms: N3_6  and  C3_8
REMARK    3  A    between atoms: C3_8  and  O2_10
REMARK    4  A    between atoms: O2_10  and  C4_11
REMARK    5  A    between atoms: C4_11  and  C5_12
REMARK    6  A    between atoms: N4_17  and  C8_18
REMARK    7  A    between atoms: C9_24  and  N7_25
REMARK    8  A    between atoms: N9_31  and  N10_32
REMARK    9  A    between atoms: C12_35  and  N11_36
REMARK   10  A    between atoms: C13_41  and  N13_42
ROOT
HETATM    1  N1  UNL     1      16.544  29.314  19.135  1.00  0.00    -0.190 NA
HETATM    2  C1  UNL     1      17.380  28.814  18.467  1.00  0.00     0.120 C
HETATM    3  C2  UNL     1      18.386  28.239  17.640  1.00  0.00     0.146 C
HETATM    4  N2  UNL     1      18.826  28.884  16.611  1.00  0.00    -0.285 N
ATOM      5  H2  UNL     1      19.547  28.449  16.035  1.00  0.00     0.188 HD
ENDROOT
BRANCH   3   6
HETATM    6  C10 UNL     1      18.942  26.929  17.923  1.00  0.00     0.090 A
HETATM    7  C11 UNL     1      19.787  26.749  19.029  1.00  0.00     0.172 A
HETATM    8  N8  UNL     1      20.089  27.846  19.860  1.00  0.00    -0.079 NA
HETATM    9  N9  UNL     1      20.311  25.546  19.307  1.00  0.00    -0.078 N
HETATM   10  C12 UNL     1      20.063  24.472  18.559  1.00  0.00     0.699 A
HETATM   11  N12 UNL     1      19.262  24.590  17.490  1.00  0.00    -0.175 N
HETATM   12  C13 UNL     1      18.715  25.793  17.182  1.00  0.00     0.131 A
ATOM     13  H12 UNL     1      19.064  23.775  16.908  1.00  0.00     0.186 HD
BRANCH   9  14
HETATM   14  N10 UNL     1      21.153  25.428  20.433  1.00  0.00    -0.323 N
ATOM     15 2H10 UNL     1      21.966  24.814  20.388  1.00  0.00     0.178 HD
ATOM     16 1H10 UNL     1      20.921  25.965  21.268  1.00  0.00     0.178 HD
ENDBRANCH   9  14
BRANCH  10  17
HETATM   17  N11 UNL     1      20.583  23.328  18.854  1.00  0.00    -0.233 N
ATOM     18 2H11 UNL     1      20.468  22.942  19.791  1.00  0.00     0.174 HD
ATOM     19 1H11 UNL     1      21.110  22.800  18.159  1.00  0.00     0.174 HD
ENDBRANCH  10  17
BRANCH  12  20
HETATM   20  N13 UNL     1      17.952  25.858  16.144  1.00  0.00    -0.384 N
ATOM     21 2H13 UNL     1      17.762  26.779  15.751  1.00  0.00     0.157 HD
ATOM     22 1H13 UNL     1      17.567  24.998  15.754  1.00  0.00     0.157 HD
ENDBRANCH  12  20
ENDBRANCH   3   6
BRANCH   4  23
HETATM   23  N3  UNL     1      18.359  30.149  16.253  1.00  0.00    -0.244 N
HETATM   24  C3  UNL     1      19.276  31.097  15.697  1.00  0.00     0.379 C
HETATM   25  O1  UNL     1      20.475  30.783  15.540  1.00  0.00    -0.237 OA
ATOM     26  H3  UNL     1      17.378  30.396  16.386  1.00  0.00     0.192 HD
BRANCH  24  27
HETATM   27  O2  UNL     1      18.890  32.368  15.317  1.00  0.00    -0.297 OA
BRANCH  27  28
HETATM   28  C4  UNL     1      19.667  33.518  15.340  1.00  0.00     0.240 C
BRANCH  28  29
HETATM   29  C5  UNL     1      19.652  34.340  14.130  1.00  0.00     0.070 A
HETATM   30  C6  UNL     1      19.240  33.906  12.883  1.00  0.00     0.175 A
HETATM   31  O3  UNL     1      19.379  34.931  12.077  1.00  0.00    -0.271 OA
HETATM   32  C7  UNL     1      19.844  35.960  12.732  1.00  0.00     0.378 A
HETATM   33  O4  UNL     1      20.083  37.088  12.231  1.00  0.00    -0.237 OA
HETATM   34  N4  UNL     1      20.035  35.646  14.023  1.00  0.00    -0.238 N
BRANCH  34  35
HETATM   35  C8  UNL     1      20.514  36.424  15.091  1.00  0.00     0.184 A
HETATM   36  N5  UNL     1      19.947  36.727  16.270  1.00  0.00    -0.221 N
HETATM   37  O5  UNL     1      20.735  37.474  16.961  1.00  0.00    -0.153 OA
ATOM     38  H5  UNL     1      19.026  36.412  16.574  1.00  0.00     0.198 HD
HETATM   39  N6  UNL     1      21.810  37.685  16.300  1.00  0.00    -0.222 N
HETATM   40  C9  UNL     1      21.758  37.062  15.109  1.00  0.00     0.168 A
ATOM     41  H6  UNL     1      22.596  38.246  16.629  1.00  0.00     0.198 HD
BRANCH  40  42
HETATM   42  N7  UNL     1      22.658  37.068  14.211  1.00  0.00    -0.381 N
ATOM     43  H72 UNL     1      22.533  36.845  13.224  1.00  0.00     0.157 HD
ATOM     44  H71 UNL     1      23.649  37.292  14.306  1.00  0.00     0.157 HD
ENDBRANCH  40  42
ENDBRANCH  34  35
ENDBRANCH  28  29
ENDBRANCH  27  28
ENDBRANCH  24  27
ENDBRANCH   4  23
TORSDOF 10
ENDMDL