MODEL 5
REMARK VINA RESULT: -8.599097375      1.144      1.715
REMARK  9 active torsions:
REMARK  status: ('A' for Active; 'I' for Inactive)
REMARK    1  A    between atoms: C2_2  and  O1_3
REMARK    2  A    between atoms: C2_2  and  C3_5
REMARK    3  A    between atoms: C3_5  and  N1_6
REMARK    4  A    between atoms: C3_5  and  C7_20
REMARK    5  A    between atoms: N1_6  and  C4_8
REMARK    6  A    between atoms: C8_25  and  C9_26
REMARK    7  A    between atoms: C10_34  and  C11_35
REMARK    8  A    between atoms: C11_35  and  N13_37
REMARK    9  A    between atoms: C11_35  and  O2_41
ROOT
HETATM    1  C4  UNL     1      22.553  38.333  15.076  1.00  0.00     0.724 A
HETATM    2  N2  UNL     1      22.416  38.406  13.740  1.00  0.00    -0.116 N
ATOM      3  H2  UNL     1      21.800  37.818  13.180  1.00  0.00     0.206 HD
HETATM    4  N3  UNL     1      23.194  39.348  13.268  1.00  0.00    -0.116 N
ATOM      5  H3  UNL     1      23.289  39.617  12.288  1.00  0.00     0.206 HD
HETATM    6  C5  UNL     1      23.855  39.905  14.322  1.00  0.00     0.721 A
HETATM    7  N4  UNL     1      24.678  40.841  14.298  1.00  0.00    -0.232 N
ATOM      8  H41 UNL     1      25.171  41.257  15.087  1.00  0.00     0.174 HD
ATOM      9  H42 UNL     1      24.982  41.322  13.452  1.00  0.00     0.174 HD
HETATM   10  N5  UNL     1      23.444  39.255  15.465  1.00  0.00     0.095 N
HETATM   11  C6  UNL     1      23.908  39.591  16.755  1.00  0.00     0.221 C
HETATM   12  N6  UNL     1      24.276  39.863  17.837  1.00  0.00    -0.170 NA
ENDROOT
BRANCH   1  13
HETATM   13  N1  UNL     1      21.884  37.483  15.974  1.00  0.00    -0.209 N
ATOM     14  H1  UNL     1      22.330  37.209  16.850  1.00  0.00     0.178 HD
BRANCH  13  15
HETATM   15  C3  UNL     1      20.566  37.000  15.651  1.00  0.00     0.197 C
BRANCH  15  16
HETATM   16  C2  UNL     1      20.598  35.728  14.831  1.00  0.00     0.144 C
HETATM   17  C1  UNL     1      19.353  34.894  14.981  1.00  0.00     0.042 C
BRANCH  16  18
HETATM   18  O1  UNL     1      20.985  35.969  13.535  1.00  0.00    -0.393 OA
ATOM     19  H1  UNL     1      21.182  35.193  13.023  1.00  0.00     0.210 HD
ENDBRANCH  16  18
ENDBRANCH  15  16
BRANCH  15  20
HETATM   20  C7  UNL     1      19.900  36.574  16.944  1.00  0.00     0.123 A
HETATM   21  N7  UNL     1      20.608  36.089  17.978  1.00  0.00    -0.286 N
HETATM   22  N8  UNL     1      19.721  35.757  18.937  1.00  0.00    -0.284 N
ATOM     23  H7  UNL     1      21.622  35.990  18.027  1.00  0.00     0.188 HD
HETATM   24  C8  UNL     1      18.478  36.024  18.525  1.00  0.00     0.142 A
ATOM     25  H8  UNL     1      19.964  35.360  19.845  1.00  0.00     0.188 HD
HETATM   26  N16 UNL     1      18.611  36.538  17.277  1.00  0.00    -0.328 N
ATOM     27  H16 UNL     1      17.841  36.849  16.684  1.00  0.00     0.168 HD
BRANCH  24  28
HETATM   28  C9  UNL     1      17.218  35.766  19.268  1.00  0.00     0.285 A
HETATM   29  N9  UNL     1      16.296  34.940  18.632  1.00  0.00    -0.289 N
HETATM   30  N10 UNL     1      15.051  35.176  18.520  1.00  0.00    -0.208 N
ATOM     31  H9  UNL     1      16.647  34.075  18.221  1.00  0.00     0.184 HD
HETATM   32  N11 UNL     1      14.486  36.337  19.047  1.00  0.00    -0.004 N
ATOM     33  H10 UNL     1      14.456  34.504  18.037  1.00  0.00     0.210 HD
HETATM   34  N12 UNL     1      13.249  36.790  19.074  1.00  0.00    -0.247 N
HETATM   35  C13 UNL     1      15.282  37.233  19.678  1.00  0.00     0.719 A
HETATM   36  C10 UNL     1      13.171  37.966  19.700  1.00  0.00     0.177 A
ATOM     37  H12 UNL     1      12.451  36.302  18.668  1.00  0.00     0.191 HD
HETATM   38  N14 UNL     1      14.462  38.236  20.077  1.00  0.00    -0.171 N
ATOM     39  H14 UNL     1      14.760  39.070  20.584  1.00  0.00     0.186 HD
HETATM   40  N15 UNL     1      16.675  36.981  19.781  1.00  0.00    -0.193 N
ATOM     41  H15 UNL     1      17.286  37.669  20.222  1.00  0.00     0.180 HD
BRANCH  36  42
HETATM   42  C11 UNL     1      12.001  38.846  19.969  1.00  0.00     0.279 C
HETATM   43  C12 UNL     1      12.265  40.206  19.349  1.00  0.00     0.087 C
BRANCH  42  44
HETATM   44  N13 UNL     1      10.782  38.318  19.422  1.00  0.00    -0.040 N
ATOM     45 3H13 UNL     1      10.816  38.296  18.404  1.00  0.00     0.278 HD
ATOM     46 2H13 UNL     1      10.701  37.318  19.605  1.00  0.00     0.278 HD
ATOM     47 1H13 UNL     1       9.959  38.821  19.752  1.00  0.00     0.278 HD
ENDBRANCH  42  44
BRANCH  42  48
HETATM   48  O2  UNL     1      11.815  39.030  21.347  1.00  0.00    -0.359 OA
ATOM     49  H2  UNL     1      10.915  39.264  21.542  1.00  0.00     0.213 HD
ENDBRANCH  42  48
ENDBRANCH  36  42
ENDBRANCH  24  28
ENDBRANCH  15  20
ENDBRANCH  13  15
ENDBRANCH   1  13
TORSDOF 9
ENDMDL