MODEL 4
REMARK VINA RESULT: -8.753426517      1.212      1.467
REMARK  11 active torsions:
REMARK  status: ('A' for Active; 'I' for Inactive)
REMARK    1  A    between atoms: O1_2  and  C2_3
REMARK    2  A    between atoms: C2_3  and  C3_4
REMARK    3  A    between atoms: C3_4  and  C4_5
REMARK    4  A    between atoms: C3_4  and  N8_23
REMARK    5  A    between atoms: C4_5  and  N1_6
REMARK    6  A    between atoms: C5_10  and  C6_11
REMARK    7  A    between atoms: C8_24  and  C9_25
REMARK    8  A    between atoms: C9_25  and  N9_26
REMARK    9  A    between atoms: C9_25  and  N10_30
REMARK   10  A    between atoms: C11_37  and  O2_38
REMARK   11  A    between atoms: C12_42  and  N13_43
ROOT
HETATM    1  N8  UNL     1      20.337  36.379  15.051  1.00  0.00    -0.285 N
HETATM    2  C8  UNL     1      20.047  35.933  13.826  1.00  0.00     0.149 A
HETATM    3  N11 UNL     1      20.874  36.562  12.928  1.00  0.00    -0.336 N
ATOM      4  H11 UNL     1      20.872  36.413  11.919  1.00  0.00     0.167 HD
HETATM    5  C10 UNL     1      21.669  37.388  13.578  1.00  0.00     0.131 A
HETATM    6  C11 UNL     1      22.675  38.249  13.137  1.00  0.00     0.186 A
HETATM    7  N12 UNL     1      23.293  38.957  14.097  1.00  0.00    -0.168 N
ATOM      8  H12 UNL     1      24.034  39.596  13.813  1.00  0.00     0.186 HD
HETATM    9  C12 UNL     1      23.001  38.880  15.407  1.00  0.00     0.679 A
HETATM   10  N14 UNL     1      22.018  38.033  15.789  1.00  0.00    -0.174 N
ATOM     11  H14 UNL     1      21.778  37.958  16.777  1.00  0.00     0.186 HD
HETATM   12  C13 UNL     1      21.354  37.290  14.889  1.00  0.00     0.160 A
ENDROOT
BRANCH   1  13
HETATM   13  C3  UNL     1      19.728  35.994  16.276  1.00  0.00     0.042 C
BRANCH  13  14
HETATM   14  C2  UNL     1      20.115  34.661  16.807  1.00  0.00     0.221 C
BRANCH  14  15
HETATM   15  O1  UNL     1      19.165  33.696  16.885  1.00  0.00    -0.390 OA
HETATM   16  C1  UNL     1      19.580  32.601  16.143  1.00  0.00     0.201 C
ENDBRANCH  14  15
ENDBRANCH  13  14
BRANCH  13  17
HETATM   17  C4  UNL     1      19.565  37.058  17.318  1.00  0.00     0.222 C
BRANCH  17  18
HETATM   18  N1  UNL     1      18.390  36.696  18.124  1.00  0.00    -0.211 N
HETATM   19  N2  UNL     1      18.422  36.153  19.329  1.00  0.00    -0.002 NA
HETATM   20  N3  UNL     1      17.150  35.973  19.729  1.00  0.00    -0.265 N
HETATM   21  C5  UNL     1      16.337  36.399  18.782  1.00  0.00     0.170 A
ATOM     22  H3  UNL     1      16.861  35.572  20.621  1.00  0.00     0.186 HD
HETATM   23  N7  UNL     1      17.100  36.850  17.780  1.00  0.00    -0.267 N
ATOM     24  H7  UNL     1      16.759  37.244  16.903  1.00  0.00     0.190 HD
BRANCH  21  25
HETATM   25  C6  UNL     1      14.883  36.373  18.841  1.00  0.00     0.139 A
HETATM   26  N4  UNL     1      14.031  35.415  18.509  1.00  0.00    -0.289 N
HETATM   27  N5  UNL     1      12.783  35.583  18.633  1.00  0.00    -0.279 N
ATOM     28  H4  UNL     1      14.386  34.529  18.149  1.00  0.00     0.188 HD
HETATM   29  C7  UNL     1      12.333  36.750  19.108  1.00  0.00     0.159 A
ATOM     30  H5  UNL     1      12.132  34.841  18.376  1.00  0.00     0.189 HD
HETATM   31  N6  UNL     1      11.082  37.102  19.305  1.00  0.00    -0.379 N
HETATM   32  S1  UNL     1      13.792  37.600  19.370  1.00  0.00    -0.030 SA
ATOM     33  H62 UNL     1      10.211  36.594  19.149  1.00  0.00     0.158 HD
ATOM     34  H61 UNL     1      10.739  37.992  19.668  1.00  0.00     0.158 HD
ENDBRANCH  21  25
ENDBRANCH  17  18
ENDBRANCH  13  17
ENDBRANCH   1  13
BRANCH   2  35
HETATM   35  C9  UNL     1      19.066  34.969  13.371  1.00  0.00     0.445 C
BRANCH  35  36
HETATM   36  N9  UNL     1      18.368  35.561  12.201  1.00  0.00    -0.043 N
ATOM     37  H93 UNL     1      18.347  34.939  11.394  1.00  0.00     0.277 HD
ATOM     38  H92 UNL     1      17.360  35.639  12.337  1.00  0.00     0.277 HD
ATOM     39  H91 UNL     1      18.812  36.457  12.001  1.00  0.00     0.277 HD
ENDBRANCH  35  36
BRANCH  35  40
HETATM   40  N10 UNL     1      19.686  33.757  12.804  1.00  0.00    -0.043 N
ATOM     41 3H10 UNL     1      19.837  33.857  11.801  1.00  0.00     0.277 HD
ATOM     42 2H10 UNL     1      20.656  33.666  13.107  1.00  0.00     0.277 HD
ATOM     43 1H10 UNL     1      19.155  32.913  13.013  1.00  0.00     0.277 HD
ENDBRANCH  35  40
ENDBRANCH   2  35
BRANCH   6  44
HETATM   44  O2  UNL     1      23.012  38.362  11.795  1.00  0.00    -0.344 OA
ATOM     45  H2  UNL     1      23.110  39.206  11.369  1.00  0.00     0.219 HD
ENDBRANCH   6  44
BRANCH   9  46
HETATM   46  N13 UNL     1      23.642  39.599  16.298  1.00  0.00    -0.234 N
ATOM     47 2H13 UNL     1      23.666  39.308  17.276  1.00  0.00     0.174 HD
ATOM     48 1H13 UNL     1      24.129  40.458  16.043  1.00  0.00     0.174 HD
ENDBRANCH   9  46
TORSDOF 11
ENDMDL