MODEL 5
REMARK VINA RESULT: -7.838506396      4.332      8.427
REMARK  12 active torsions:
REMARK  status: ('A' for Active; 'I' for Inactive)
REMARK    1  A    between atoms: O1_2  and  N1_3
REMARK    2  A    between atoms: C2_5  and  C3_6
REMARK    3  A    between atoms: C3_6  and  N2_7
REMARK    4  A    between atoms: N2_7  and  C4_9
REMARK    5  A    between atoms: C5_12  and  S1_13
REMARK    6  A    between atoms: S1_13  and  C6_14
REMARK    7  A    between atoms: C8_20  and  N6_21
REMARK    8  A    between atoms: C9_26  and  N8_27
REMARK    9  A    between atoms: C11_34  and  N10_35
REMARK   10  A    between atoms: N10_35  and  N11_37
REMARK   11  A    between atoms: N12_40  and  N13_41
REMARK   12  A    between atoms: N14_43  and  N15_45
ROOT
HETATM    1  C4  UNL     1      19.397  33.937  15.396  1.00  0.00     0.718 A
HETATM    2  N3  UNL     1      19.037  34.351  16.624  1.00  0.00    -0.167 N
ATOM      3  H3  UNL     1      18.499  33.732  17.231  1.00  0.00     0.186 HD
HETATM    4  C5  UNL     1      19.384  35.578  17.054  1.00  0.00     0.182 A
HETATM    5  N9  UNL     1      20.102  36.441  16.279  1.00  0.00    -0.166 N
ATOM      6  H9  UNL     1      20.359  37.369  16.616  1.00  0.00     0.186 HD
HETATM    7  C11 UNL     1      20.455  36.019  15.059  1.00  0.00     0.736 A
HETATM    8  N12 UNL     1      20.100  34.791  14.645  1.00  0.00     0.107 N
ENDROOT
BRANCH   4   9
HETATM    9  S1  UNL     1      18.887  36.071  18.674  1.00  0.00    -0.009 SA
BRANCH   9  10
HETATM   10  C6  UNL     1      17.093  36.231  18.801  1.00  0.00     0.197 A
HETATM   11  N4  UNL     1      16.187  35.318  18.415  1.00  0.00    -0.314 N
HETATM   12  C7  UNL     1      14.943  35.775  18.660  1.00  0.00     0.161 A
ATOM     13  H4  UNL     1      16.406  34.413  17.999  1.00  0.00     0.170 HD
HETATM   14  N5  UNL     1      13.707  35.289  18.477  1.00  0.00    -0.174 N
HETATM   15  C10 UNL     1      15.121  37.043  19.229  1.00  0.00     0.167 A
HETATM   16  C8  UNL     1      12.638  36.011  18.837  1.00  0.00     0.679 A
ATOM     17  H5  UNL     1      13.580  34.365  18.063  1.00  0.00     0.186 HD
HETATM   18  N7  UNL     1      12.802  37.240  19.390  1.00  0.00    -0.174 N
HETATM   19  C9  UNL     1      14.010  37.768  19.592  1.00  0.00     0.152 A
ATOM     20  H7  UNL     1      11.976  37.777  19.658  1.00  0.00     0.186 HD
HETATM   21  O2  UNL     1      16.418  37.242  19.280  1.00  0.00    -0.280 OA
BRANCH  16  22
HETATM   22  N6  UNL     1      11.437  35.575  18.675  1.00  0.00    -0.234 N
ATOM     23  H62 UNL     1      10.870  35.995  17.939  1.00  0.00     0.174 HD
ATOM     24  H61 UNL     1      11.051  34.833  19.258  1.00  0.00     0.174 HD
ENDBRANCH  16  22
BRANCH  19  25
HETATM   25  N8  UNL     1      14.129  38.928  20.115  1.00  0.00    -0.383 N
ATOM     26  H82 UNL     1      13.638  39.164  20.977  1.00  0.00     0.157 HD
ATOM     27  H81 UNL     1      14.719  39.634  19.673  1.00  0.00     0.157 HD
ENDBRANCH  19  25
ENDBRANCH   9  10
ENDBRANCH   4   9
BRANCH   1  28
HETATM   28  N2  UNL     1      19.072  32.760  14.965  1.00  0.00    -0.219 N
ATOM     29  H2  UNL     1      18.650  32.657  14.041  1.00  0.00     0.178 HD
BRANCH  28  30
HETATM   30  C3  UNL     1      19.301  31.595  15.780  1.00  0.00     0.184 C
BRANCH  30  31
HETATM   31  C2  UNL     1      18.225  30.592  15.640  1.00  0.00     0.107 C
HETATM   32  N1  UNL     1      18.241  29.801  14.613  1.00  0.00    -0.281 N
ATOM     33  H1  UNL     1      17.502  29.107  14.508  1.00  0.00     0.193 HD
BRANCH  32  34
HETATM   34  O1  UNL     1      19.232  29.875  13.662  1.00  0.00    -0.286 OA
HETATM   35  C1  UNL     1      18.990  30.079  12.290  1.00  0.00     0.237 C
ENDBRANCH  32  34
ENDBRANCH  30  31
ENDBRANCH  28  30
ENDBRANCH   1  28
BRANCH   7  36
HETATM   36  N10 UNL     1      21.140  36.811  14.288  1.00  0.00    -0.136 N
ATOM     37  H10 UNL     1      20.708  37.156  13.431  1.00  0.00     0.205 HD
BRANCH  36  38
HETATM   38  N11 UNL     1      22.435  37.203  14.587  1.00  0.00    -0.331 N
ATOM     39 2H11 UNL     1      22.711  37.217  15.568  1.00  0.00     0.177 HD
ATOM     40 1H11 UNL     1      23.105  37.473  13.867  1.00  0.00     0.177 HD
ENDBRANCH  36  38
ENDBRANCH   7  36
BRANCH   8  41
HETATM   41  N13 UNL     1      20.494  34.405  13.368  1.00  0.00    -0.192 N
HETATM   42  N14 UNL     1      19.710  34.684  12.411  1.00  0.00    -0.233 N
ATOM     43  H14 UNL     1      19.991  34.405  11.470  1.00  0.00     0.209 HD
ATOM     44  H13 UNL     1      21.376  33.919  13.208  1.00  0.00     0.211 HD
BRANCH  42  45
HETATM   45  N15 UNL     1      18.503  35.338  12.552  1.00  0.00    -0.330 N
ATOM     46 2H15 UNL     1      18.530  36.358  12.520  1.00  0.00     0.178 HD
ATOM     47 1H15 UNL     1      17.605  34.874  12.682  1.00  0.00     0.178 HD
ENDBRANCH  42  45
ENDBRANCH   8  41
TORSDOF 12
ENDMDL