MODEL 5
REMARK VINA RESULT: -6.936686083      3.039      8.510
REMARK  15 active torsions:
REMARK  status: ('A' for Active; 'I' for Inactive)
REMARK       I    between atoms: C2_2  and  N1_4
REMARK    1  A    between atoms: N1_4  and  C3_6
REMARK    2  A    between atoms: C3_6  and  C4_7
REMARK    3  A    between atoms: C3_6  and  C14_42
REMARK    4  A    between atoms: C5_10  and  O2_11
REMARK    5  A    between atoms: C6_13  and  C7_14
REMARK    6  A    between atoms: N3_15  and  C8_17
REMARK    7  A    between atoms: C9_18  and  O3_19
REMARK    8  A    between atoms: C11_23  and  N5_24
REMARK    9  A    between atoms: N6_27  and  N7_28
REMARK   10  A    between atoms: N7_28  and  C12_30
REMARK   11  A    between atoms: C12_30  and  N8_31
REMARK   12  A    between atoms: N8_31  and  N9_33
REMARK   13  A    between atoms: N10_38  and  N11_39
REMARK   14  A    between atoms: C14_42  and  O5_43
REMARK   15  A    between atoms: C14_42  and  O6_45
ROOT
HETATM    1  C4  UNL     1      19.938  35.691  16.057  1.00  0.00     0.136 A
HETATM    2  N2  UNL     1      19.698  35.368  14.751  1.00  0.00    -0.322 N
ATOM      3  H2  UNL     1      18.980  34.678  14.529  1.00  0.00     0.169 HD
HETATM    4  C5  UNL     1      20.380  35.933  13.772  1.00  0.00     0.158 A
HETATM    5  C6  UNL     1      21.355  36.870  14.063  1.00  0.00     0.100 A
HETATM    6  C13 UNL     1      21.586  37.187  15.398  1.00  0.00     0.283 A
HETATM    7  O4  UNL     1      22.469  38.039  15.713  1.00  0.00    -0.265 OA
HETATM    8  N10 UNL     1      20.881  36.600  16.382  1.00  0.00    -0.211 N
ENDROOT
BRANCH   5   9
HETATM    9  C7  UNL     1      22.136  37.524  13.016  1.00  0.00     0.111 C
HETATM   10  N3  UNL     1      21.513  38.296  12.203  1.00  0.00    -0.346 N
ATOM     11  H3  UNL     1      20.508  38.444  12.289  1.00  0.00     0.167 HD
BRANCH  10  12
HETATM   12  C8  UNL     1      22.259  38.939  11.178  1.00  0.00     0.198 A
HETATM   13  C9  UNL     1      22.419  38.545   9.855  1.00  0.00     0.204 A
HETATM   14  N4  UNL     1      23.198  39.413   9.189  1.00  0.00    -0.161 N
HETATM   15  C10 UNL     1      23.602  39.355   7.794  1.00  0.00     0.178 C
HETATM   16  C11 UNL     1      23.534  40.364  10.098  1.00  0.00     0.703 A
HETATM   17  N6  UNL     1      22.970  40.074  11.280  1.00  0.00    -0.057 N
BRANCH  13  18
HETATM   18  O3  UNL     1      21.836  37.401   9.327  1.00  0.00    -0.343 OA
ATOM     19  H3  UNL     1      21.719  37.260   8.394  1.00  0.00     0.219 HD
ENDBRANCH  13  18
BRANCH  16  20
HETATM   20  N5  UNL     1      24.287  41.366   9.793  1.00  0.00    -0.232 N
ATOM     21  H52 UNL     1      24.240  42.323  10.143  1.00  0.00     0.174 HD
ATOM     22  H51 UNL     1      25.054  41.284   9.126  1.00  0.00     0.174 HD
ENDBRANCH  16  20
BRANCH  17  23
HETATM   23  N7  UNL     1      23.091  40.822  12.449  1.00  0.00    -0.226 N
ATOM     24  H7  UNL     1      22.405  41.554  12.630  1.00  0.00     0.199 HD
BRANCH  23  25
HETATM   25  C12 UNL     1      24.021  40.635  13.304  1.00  0.00     0.084 C
BRANCH  25  26
HETATM   26  N8  UNL     1      24.805  40.786  14.316  1.00  0.00    -0.256 N
ATOM     27  H8  UNL     1      25.578  41.450  14.260  1.00  0.00     0.197 HD
BRANCH  26  28
HETATM   28  N9  UNL     1      24.610  40.059  15.478  1.00  0.00    -0.337 N
ATOM     29  H92 UNL     1      23.927  39.301  15.471  1.00  0.00     0.177 HD
ATOM     30  H91 UNL     1      25.139  40.275  16.324  1.00  0.00     0.177 HD
ENDBRANCH  26  28
ENDBRANCH  25  26
ENDBRANCH  23  25
ENDBRANCH  17  23
ENDBRANCH  10  12
ENDBRANCH   5   9
BRANCH   4  31
HETATM   31  O2  UNL     1      20.162  35.628  12.431  1.00  0.00    -0.345 OA
ATOM     32  H2  UNL     1      19.714  36.220  11.837  1.00  0.00     0.219 HD
ENDBRANCH   4  31
BRANCH   8  33
HETATM   33  N11 UNL     1      21.101  36.907  17.726  1.00  0.00    -0.334 N
ATOM     34 2H11 UNL     1      20.346  36.886  18.412  1.00  0.00     0.177 HD
ATOM     35 1H11 UNL     1      22.040  37.160  18.033  1.00  0.00     0.177 HD
ENDBRANCH   8  33
BRANCH   1  36
HETATM   36  C3  UNL     1      19.177  35.061  17.156  1.00  0.00     0.209 C
BRANCH  36  37
HETATM   37  N1  UNL     1      18.508  33.858  16.641  1.00  0.00    -0.345 N
HETATM   38  C2  UNL     1      19.211  32.686  16.317  1.00  0.00     0.214 C
HETATM   39  C1  UNL     1      18.517  31.494  15.804  1.00  0.00     0.117 C
HETATM   40  O1  UNL     1      20.450  32.648  16.466  1.00  0.00    -0.274 OA
ATOM     41  H1  UNL     1      17.496  33.875  16.515  1.00  0.00     0.163 HD
ENDBRANCH  36  37
BRANCH  36  42
HETATM   42  C14 UNL     1      18.098  35.959  17.714  1.00  0.00     0.284 C
BRANCH  42  43
HETATM   43  O5  UNL     1      17.874  37.073  16.932  1.00  0.00    -0.369 OA
ATOM     44  H5  UNL     1      16.951  37.232  16.775  1.00  0.00     0.212 HD
ENDBRANCH  42  43
BRANCH  42  45
HETATM   45  O6  UNL     1      18.515  36.391  18.970  1.00  0.00    -0.369 OA
ATOM     46  H6  UNL     1      17.835  36.953  19.322  1.00  0.00     0.212 HD
ENDBRANCH  42  45
ENDBRANCH  36  42
ENDBRANCH   1  36
TORSDOF 15
ENDMDL