MODEL 5
REMARK VINA RESULT: -8.019878160      4.137      6.714
REMARK  12 active torsions:
REMARK  status: ('A' for Active; 'I' for Inactive)
REMARK    1  A    between atoms: N2_5  and  C3_6
REMARK    2  A    between atoms: C3_6  and  O1_7
REMARK    3  A    between atoms: C3_6  and  C4_9
REMARK    4  A    between atoms: N4_13  and  C7_15
REMARK    5  A    between atoms: C7_15  and  C8_16
REMARK    6  A    between atoms: C8_16  and  C9_17
REMARK    7  A    between atoms: C9_17  and  O2_19
REMARK    8  A    between atoms: C9_17  and  C11_21
REMARK    9  A    between atoms: N5_22  and  O3_24
REMARK   10  A    between atoms: C12_26  and  N6_27
REMARK   11  A    between atoms: N6_27  and  O4_29
REMARK   12  A    between atoms: N8_33  and  N9_34
ROOT
HETATM    1  C4  UNL     1      20.780  36.991  11.892  1.00  0.00     0.112 A
HETATM    2  C5  UNL     1      20.156  36.018  12.684  1.00  0.00     0.104 A
HETATM    3  N3  UNL     1      19.256  35.112  12.031  1.00  0.00    -0.098 NA
HETATM    4  C6  UNL     1      20.433  35.976  14.032  1.00  0.00     0.087 A
HETATM    5  N4  UNL     1      19.947  35.170  14.831  1.00  0.00    -0.386 N
ATOM      6  H4  UNL     1      20.321  35.361  15.760  1.00  0.00     0.159 HD
HETATM    7  C12 UNL     1      21.345  36.936  14.533  1.00  0.00     0.125 A
HETATM    8  C13 UNL     1      21.932  37.868  13.731  1.00  0.00     0.168 A
HETATM    9  N7  UNL     1      22.848  38.841  14.203  1.00  0.00    -0.078 NA
HETATM   10  N8  UNL     1      21.639  37.884  12.403  1.00  0.00    -0.244 N
ENDROOT
BRANCH   1  11
HETATM   11  C3  UNL     1      20.486  37.041  10.447  1.00  0.00     0.300 C
BRANCH  11  12
HETATM   12  N2  UNL     1      19.276  37.780  10.137  1.00  0.00    -0.206 N
HETATM   13  N1  UNL     1      18.094  37.279  10.391  1.00  0.00    -0.291 N
HETATM   14  C2  UNL     1      16.954  37.967  10.103  1.00  0.00     0.090 A
ATOM     15  H1  UNL     1      18.025  36.354  10.815  1.00  0.00     0.187 HD
HETATM   16  C1  UNL     1      15.649  37.357  10.410  1.00  0.00     0.076 C
HETATM   17  C15 UNL     1      17.003  39.221   9.529  1.00  0.00     0.273 A
HETATM   18  N10 UNL     1      18.224  39.721   9.275  1.00  0.00    -0.272 N
HETATM   19  O6  UNL     1      15.928  39.820   9.280  1.00  0.00    -0.266 OA
HETATM   20  C14 UNL     1      19.331  39.019   9.570  1.00  0.00     0.346 A
ATOM     21  H10 UNL     1      18.312  40.644   8.851  1.00  0.00     0.173 HD
HETATM   22  O5  UNL     1      20.498  39.460   9.343  1.00  0.00    -0.245 OA
ENDBRANCH  11  12
BRANCH  11  23
HETATM   23  O1  UNL     1      20.437  35.761   9.900  1.00  0.00    -0.369 OA
ATOM     24  H1  UNL     1      21.286  35.509   9.556  1.00  0.00     0.212 HD
ENDBRANCH  11  23
ENDBRANCH   1  11
BRANCH  10  25
HETATM   25  N9  UNL     1      22.230  38.828  11.568  1.00  0.00    -0.337 N
ATOM     26  H92 UNL     1      22.598  38.549  10.659  1.00  0.00     0.177 HD
ATOM     27  H91 UNL     1      22.293  39.801  11.870  1.00  0.00     0.177 HD
ENDBRANCH  10  25
BRANCH   5  28
HETATM   28  C7  UNL     1      19.069  34.094  14.913  1.00  0.00     0.123 C
BRANCH  28  29
HETATM   29  C8  UNL     1      19.759  32.964  15.681  1.00  0.00     0.062 C
BRANCH  29  30
HETATM   30  C9  UNL     1      19.507  31.620  15.047  1.00  0.00     0.089 C
HETATM   31  C10 UNL     1      19.388  31.709  13.549  1.00  0.00     0.052 C
BRANCH  30  32
HETATM   32  O2  UNL     1      20.605  30.817  15.347  1.00  0.00    -0.385 OA
ATOM     33  H2  UNL     1      20.769  30.907  16.278  1.00  0.00     0.211 HD
ENDBRANCH  30  32
BRANCH  30  34
HETATM   34  C11 UNL     1      18.315  30.958  15.635  1.00  0.00     0.124 C
HETATM   35  N5  UNL     1      17.857  29.841  15.164  1.00  0.00    -0.281 N
ATOM     36  H5  UNL     1      18.325  29.403  14.370  1.00  0.00     0.193 HD
BRANCH  35  37
HETATM   37  O3  UNL     1      16.760  29.239  15.710  1.00  0.00    -0.290 OA
ATOM     38  H3  UNL     1      15.881  29.543  15.515  1.00  0.00     0.244 HD
ENDBRANCH  35  37
ENDBRANCH  30  34
ENDBRANCH  29  30
ENDBRANCH  28  29
ENDBRANCH   5  28
BRANCH   7  39
HETATM   39  N6  UNL     1      21.665  36.930  15.933  1.00  0.00    -0.264 N
ATOM     40  H6  UNL     1      22.417  36.320  16.252  1.00  0.00     0.194 HD
BRANCH  39  41
HETATM   41  O4  UNL     1      21.085  37.617  16.769  1.00  0.00    -0.289 OA
ATOM     42  H4  UNL     1      21.021  37.388  17.689  1.00  0.00     0.244 HD
ENDBRANCH  39  41
ENDBRANCH   7  39
TORSDOF 12
ENDMDL