MODEL 4
REMARK VINA RESULT: -4.330466876      1.807      2.218
REMARK  2 active torsions:
REMARK  status: ('A' for Active; 'I' for Inactive)
REMARK    1  A    between atoms: C1_2  and  C2_4
REMARK    2  A    between atoms: C4_6  and  N2_7
ROOT
HETATM    1  C2  UNL     1      -4.982   1.537  16.310  1.00  0.00     0.079 C
HETATM    2  C3  UNL     1      -5.653   2.513  15.333  1.00  0.00     0.046 C
HETATM    3  C4  UNL     1      -4.393   2.258  14.492  1.00  0.00     0.185 C
HETATM    4  C5  UNL     1      -4.467   0.861  15.030  1.00  0.00     0.046 C
ENDROOT
BRANCH   3   5
HETATM    5  N2  UNL     1      -4.616   2.434  13.088  1.00  0.00    -0.075 N
ATOM      6  H23 UNL     1      -4.095   3.236  12.734  1.00  0.00     0.274 HD
ATOM      7  H22 UNL     1      -4.166   1.692  12.551  1.00  0.00     0.274 HD
ATOM      8  H21 UNL     1      -5.605   2.507  12.850  1.00  0.00     0.274 HD
ENDBRANCH   3   5
BRANCH   1   9
HETATM    9  C1  UNL     1      -5.897   0.736  17.107  1.00  0.00     0.235 C
HETATM   10  N1  UNL     1      -7.286   0.720  16.810  1.00  0.00    -0.062 NA
HETATM   11  O1  UNL     1      -5.458   0.052  18.067  1.00  0.00    -0.277 OA
ENDBRANCH   1   9
TORSDOF 2
ENDMDL