MODEL 2
REMARK VINA RESULT: -4.665223279      1.378      1.399
REMARK  2 active torsions:
REMARK  status: ('A' for Active; 'I' for Inactive)
REMARK    1  A    between atoms: C2_2  and  C3_3
REMARK    2  A    between atoms: C2_2  and  N1_5
REMARK       I    between atoms: N1_5  and  C4_7
ROOT
HETATM    1  N1  UNL     1      -4.445   1.533  14.225  1.00  0.00    -0.335 N
ATOM      2  H1  UNL     1      -4.987   1.006  13.540  1.00  0.00     0.164 HD
HETATM    3  C4  UNL     1      -4.171   0.846  15.465  1.00  0.00     0.329 C
HETATM    4  N2  UNL     1      -4.674  -0.516  15.663  1.00  0.00    -0.040 NA
HETATM    5  O2  UNL     1      -3.522   1.258  16.461  1.00  0.00    -0.251 OA
ENDROOT
BRANCH   1   6
HETATM    6  C2  UNL     1      -4.069   2.822  13.834  1.00  0.00     0.143 C
HETATM    7  C1  UNL     1      -5.046   3.819  14.500  1.00  0.00     0.040 C
BRANCH   6   8
HETATM    8  C3  UNL     1      -4.209   2.953  12.367  1.00  0.00     0.255 C
HETATM    9  O1  UNL     1      -5.167   2.584  11.718  1.00  0.00    -0.305 OA
ENDBRANCH   6   8
ENDBRANCH   1   6
TORSDOF 2
ENDMDL