MODEL 4
REMARK VINA RESULT: -3.549357494      1.902      2.292
REMARK  2 active torsions:
REMARK  status: ('A' for Active; 'I' for Inactive)
REMARK    1  A    between atoms: C3_3  and  N1_4
REMARK    2  A    between atoms: C3_3  and  N2_8
ROOT
HETATM    1  C1  UNL     1      -4.596   1.161  16.232  1.00  0.00     0.016 C
HETATM    2  C2  UNL     1      -4.623   1.827  15.222  1.00  0.00    -0.053 C
HETATM    3  C3  UNL     1      -4.650   2.669  13.994  1.00  0.00     0.495 C
ENDROOT
BRANCH   3   4
HETATM    4  N1  UNL     1      -3.703   2.053  13.085  1.00  0.00    -0.037 N
ATOM      5  H13 UNL     1      -3.670   2.494  12.165  1.00  0.00     0.278 HD
ATOM      6  H12 UNL     1      -2.728   2.219  13.332  1.00  0.00     0.278 HD
ATOM      7  H11 UNL     1      -3.958   1.065  13.057  1.00  0.00     0.278 HD
ENDBRANCH   3   4
BRANCH   3   8
HETATM    8  N2  UNL     1      -4.229   3.969  14.380  1.00  0.00     0.131 N
HETATM    9  C4  UNL     1      -3.653   4.827  13.376  1.00  0.00     0.278 C
HETATM   10  C5  UNL     1      -4.124   5.997  14.264  1.00  0.00     0.061 C
HETATM   11  C6  UNL     1      -5.215   4.979  14.629  1.00  0.00     0.278 C
ENDBRANCH   3   8
TORSDOF 2
ENDMDL