MODEL 5
REMARK VINA RESULT: -3.639374263      2.221      4.028
REMARK  2 active torsions:
REMARK  status: ('A' for Active; 'I' for Inactive)
REMARK    1  A    between atoms: C2_2  and  N1_4
REMARK       I    between atoms: N1_4  and  C4_6
REMARK    2  A    between atoms: C4_6  and  C5_8
ROOT
HETATM    1  N1  UNL     1      -3.891   2.285  15.512  1.00  0.00    -0.353 N
ATOM      2  H1  UNL     1      -3.064   2.174  16.099  1.00  0.00     0.163 HD
HETATM    3  C4  UNL     1      -3.922   3.357  14.616  1.00  0.00     0.256 C
HETATM    4  O1  UNL     1      -4.917   3.523  13.880  1.00  0.00    -0.267 OA
ENDROOT
BRANCH   3   5
HETATM    5  C5  UNL     1      -2.818   4.286  14.520  1.00  0.00     0.155 C
HETATM    6  N2  UNL     1      -1.645   3.973  14.939  1.00  0.00    -0.404 N
ATOM      7  H22 UNL     1      -1.507   3.047  15.344  1.00  0.00     0.155 HD
ATOM      8  H21 UNL     1      -0.867   4.628  14.872  1.00  0.00     0.155 HD
ENDBRANCH   3   5
BRANCH   1   9
HETATM    9  C2  UNL     1      -4.968   1.319  15.656  1.00  0.00     0.076 C
HETATM   10  C1  UNL     1      -4.379  -0.036  15.255  1.00  0.00     0.032 C
HETATM   11  C3  UNL     1      -5.449   1.196  17.066  1.00  0.00     0.032 C
ENDBRANCH   1   9
TORSDOF 2
ENDMDL