MODEL 2
REMARK VINA RESULT: -4.308095404      1.176      1.176
REMARK  2 active torsions:
REMARK  status: ('A' for Active; 'I' for Inactive)
REMARK    1  A    between atoms: C1_4  and  C2_5
REMARK    2  A    between atoms: C4_7  and  C5_8
ROOT
HETATM    1  C2  UNL     1      -4.662   2.707  13.976  1.00  0.00     0.037 A
HETATM    2  C3  UNL     1      -5.761   3.263  14.768  1.00  0.00     0.025 A
HETATM    3  C4  UNL     1      -4.694   2.547  15.506  1.00  0.00     0.084 A
ENDROOT
BRANCH   1   4
HETATM    4  C1  UNL     1      -3.564   3.507  13.435  1.00  0.00     0.058 C
HETATM    5  N1  UNL     1      -2.727   2.961  12.641  1.00  0.00    -0.411 N
ATOM      6  H12 UNL     1      -2.837   1.977  12.396  1.00  0.00     0.155 HD
ATOM      7  H11 UNL     1      -1.961   3.518  12.263  1.00  0.00     0.155 HD
ENDBRANCH   1   4
BRANCH   3   8
HETATM    8  C5  UNL     1      -4.906   1.168  16.006  1.00  0.00     0.236 C
HETATM    9  N2  UNL     1      -3.786   0.304  16.218  1.00  0.00    -0.062 NA
HETATM   10  O1  UNL     1      -6.069   0.763  16.241  1.00  0.00    -0.276 OA
ENDBRANCH   3   8
TORSDOF 2
ENDMDL