MODEL 2
REMARK VINA RESULT: -5.007771189      1.170      1.170
REMARK  2 active torsions:
REMARK  status: ('A' for Active; 'I' for Inactive)
REMARK    1  A    between atoms: C3_3  and  C4_4
REMARK    2  A    between atoms: C4_4  and  C5_6
ROOT
HETATM    1  C1  UNL     1      -4.499   4.544  13.915  1.00  0.00     0.112 C
HETATM    2  C2  UNL     1      -4.549   3.304  14.693  1.00  0.00    -0.102 C
HETATM    3  C3  UNL     1      -4.590   2.281  15.360  1.00  0.00    -0.019 C
ENDROOT
BRANCH   3   4
HETATM    4  C4  UNL     1      -4.630   1.092  16.161  1.00  0.00     0.289 C
HETATM    5  O1  UNL     1      -3.676   0.301  16.149  1.00  0.00    -0.273 OA
BRANCH   4   6
HETATM    6  C5  UNL     1      -5.814   0.856  16.970  1.00  0.00     0.313 C
HETATM    7  N1  UNL     1      -5.753  -0.042  18.067  1.00  0.00    -0.054 NA
HETATM    8  O2  UNL     1      -6.907   1.422  16.738  1.00  0.00    -0.267 OA
ENDBRANCH   4   6
ENDBRANCH   3   4
TORSDOF 2
ENDMDL