MODEL 5
REMARK VINA RESULT: -4.334217745      3.461      4.387
REMARK  2 active torsions:
REMARK  status: ('A' for Active; 'I' for Inactive)
REMARK    1  A    between atoms: C1_2  and  N1_3
REMARK       I    between atoms: N1_3  and  C2_5
REMARK    2  A    between atoms: C2_5  and  C3_7
ROOT
HETATM    1  N1  UNL     1      -3.903   2.553  15.137  1.00  0.00    -0.305 N
ATOM      2  H1  UNL     1      -2.892   2.681  15.091  1.00  0.00     0.171 HD
HETATM    3  C2  UNL     1      -4.780   3.457  14.463  1.00  0.00     0.227 C
HETATM    4  O2  UNL     1      -6.026   3.275  14.536  1.00  0.00    -0.273 OA
ENDROOT
BRANCH   3   5
HETATM    5  C3  UNL     1      -4.279   4.604  13.677  1.00  0.00     0.078 A
HETATM    6  C4  UNL     1      -4.328   5.953  14.433  1.00  0.00     0.015 A
HETATM    7  C5  UNL     1      -3.045   5.320  14.091  1.00  0.00     0.015 A
ENDBRANCH   3   5
BRANCH   1   8
HETATM    8  C1  UNL     1      -4.460   1.480  15.867  1.00  0.00     0.355 C
HETATM    9  O1  UNL     1      -3.745   0.557  16.344  1.00  0.00    -0.283 OA
ENDBRANCH   1   8
TORSDOF 2
ENDMDL