MODEL 2
REMARK VINA RESULT: -4.452277768      1.730      2.334
REMARK  3 active torsions:
REMARK  status: ('A' for Active; 'I' for Inactive)
REMARK    1  A    between atoms: C2_2  and  C3_3
REMARK    2  A    between atoms: C3_3  and  N1_4
REMARK    3  A    between atoms: C3_3  and  C5_8
ROOT
HETATM    1  C3  UNL     1      -4.584   2.101  14.936  1.00  0.00     0.295 C
ENDROOT
BRANCH   1   2
HETATM    2  C2  UNL     1      -5.761   2.951  14.730  1.00  0.00     0.005 C
HETATM    3  C1  UNL     1      -5.696   4.267  14.964  1.00  0.00     0.009 C
ENDBRANCH   1   2
BRANCH   1   4
HETATM    4  N1  UNL     1      -4.197   1.402  13.712  1.00  0.00    -0.063 N
HETATM    5  C4  UNL     1      -4.253   2.193  12.529  1.00  0.00     0.268 C
ATOM      6  H12 UNL     1      -3.269   0.990  13.818  1.00  0.00     0.278 HD
ATOM      7  H11 UNL     1      -4.754   0.555  13.597  1.00  0.00     0.278 HD
ENDBRANCH   1   4
BRANCH   1   8
HETATM    8  C5  UNL     1      -4.723   1.074  15.986  1.00  0.00     0.265 C
HETATM    9  N2  UNL     1      -5.997   0.606  16.412  1.00  0.00    -0.060 NA
HETATM   10  O1  UNL     1      -3.649   0.608  16.505  1.00  0.00    -0.274 OA
ENDBRANCH   1   8
TORSDOF 3
ENDMDL