MODEL 3
REMARK VINA RESULT: -4.555139118      1.438      1.544
REMARK  1 active torsions:
REMARK  status: ('A' for Active; 'I' for Inactive)
REMARK       I    between atoms: C1_2  and  N2_4
REMARK    1  A    between atoms: N2_4  and  C2_6
ROOT
HETATM    1  N1  UNL     1      -3.987   0.206  16.230  1.00  0.00    -0.040 NA
HETATM    2  C1  UNL     1      -4.323   1.112  15.194  1.00  0.00     0.329 C
HETATM    3  O1  UNL     1      -4.349   0.699  14.000  1.00  0.00    -0.251 OA
HETATM    4  N2  UNL     1      -4.632   2.472  15.475  1.00  0.00    -0.341 N
ATOM      5  H2  UNL     1      -4.605   2.780  16.447  1.00  0.00     0.164 HD
ENDROOT
BRANCH   4   6
HETATM    6  C2  UNL     1      -4.979   3.432  14.473  1.00  0.00     0.085 A
HETATM    7  C3  UNL     1      -6.035   4.440  14.912  1.00  0.00     0.025 A
HETATM    8  C4  UNL     1      -5.078   5.571  14.625  1.00  0.00     0.004 A
HETATM    9  C5  UNL     1      -4.021   4.556  14.248  1.00  0.00     0.025 A
ENDBRANCH   4   6
TORSDOF 1
ENDMDL