MODEL 5
REMARK VINA RESULT: -4.495434178      1.354      1.761
REMARK  3 active torsions:
REMARK  status: ('A' for Active; 'I' for Inactive)
REMARK    1  A    between atoms: C2_2  and  N1_3
REMARK    2  A    between atoms: C2_2  and  C4_7
REMARK    3  A    between atoms: N1_3  and  C3_5
ROOT
HETATM    1  C1  UNL     1      -4.302   3.122  15.090  1.00  0.00     0.043 C
HETATM    2  C2  UNL     1      -4.666   1.754  14.501  1.00  0.00     0.180 C
ENDROOT
BRANCH   2   3
HETATM    3  N1  UNL     1      -3.921   1.630  13.270  1.00  0.00    -0.354 N
ATOM      4  H1  UNL     1      -3.673   0.698  12.940  1.00  0.00     0.162 HD
BRANCH   3   5
HETATM    5  C3  UNL     1      -3.519   2.754  12.499  1.00  0.00     0.349 C
HETATM    6  O1  UNL     1      -2.293   3.025  12.464  1.00  0.00    -0.284 OA
ENDBRANCH   3   5
ENDBRANCH   2   3
BRANCH   2   7
HETATM    7  C4  UNL     1      -4.285   0.733  15.498  1.00  0.00     0.196 C
HETATM    8  O2  UNL     1      -3.585   1.062  16.481  1.00  0.00    -0.646 OA
HETATM    9  O3  UNL     1      -4.681  -0.582  15.378  1.00  0.00    -0.646 OA
ENDBRANCH   2   7
TORSDOF 3
ENDMDL