MODEL 3
REMARK VINA RESULT: -5.495138479      1.411      1.620
REMARK  4 active torsions:
REMARK  status: ('A' for Active; 'I' for Inactive)
REMARK    1  A    between atoms: N1_1  and  N2_4
REMARK    2  A    between atoms: N2_4  and  C1_5
REMARK    3  A    between atoms: C1_5  and  C2_6
REMARK    4  A    between atoms: C2_6  and  N3_7
ROOT
HETATM    1  N3  UNL     1      16.192  -0.650  35.397  1.00  0.00    -0.261 N
HETATM    2  C3  UNL     1      14.936  -1.058  35.124  1.00  0.00     0.334 A
HETATM    3  O1  UNL     1      14.199  -0.243  34.531  1.00  0.00    -0.246 OA
HETATM    4  N4  UNL     1      14.436  -2.258  35.442  1.00  0.00    -0.274 N
ATOM      5  H4  UNL     1      13.472  -2.489  35.199  1.00  0.00     0.173 HD
HETATM    6  C4  UNL     1      15.203  -3.157  36.081  1.00  0.00     0.269 A
HETATM    7  O2  UNL     1      14.789  -4.299  36.404  1.00  0.00    -0.267 OA
HETATM    8  C5  UNL     1      16.483  -2.823  36.392  1.00  0.00     0.144 A
HETATM    9  C6  UNL     1      17.322  -3.713  37.067  1.00  0.00     0.265 A
HETATM   10  O3  UNL     1      16.894  -4.845  37.381  1.00  0.00    -0.267 OA
HETATM   11  N5  UNL     1      18.571  -3.311  37.355  1.00  0.00    -0.319 N
ATOM     12  H5  UNL     1      19.190  -3.955  37.848  1.00  0.00     0.169 HD
HETATM   13  C7  UNL     1      19.038  -2.102  37.022  1.00  0.00     0.185 A
HETATM   14  N6  UNL     1      18.220  -1.274  36.380  1.00  0.00    -0.337 N
ATOM     15  H6  UNL     1      18.579  -0.354  36.128  1.00  0.00     0.168 HD
HETATM   16  C8  UNL     1      16.949  -1.568  36.040  1.00  0.00     0.137 A
ENDROOT
BRANCH   1  17
HETATM   17  C2  UNL     1      16.726   0.615  35.095  1.00  0.00     0.094 C
BRANCH  17  18
HETATM   18  C1  UNL     1      17.397   0.931  33.858  1.00  0.00     0.179 C
BRANCH  18  19
HETATM   19  N2  UNL     1      18.810   0.685  33.870  1.00  0.00    -0.143 NA
BRANCH  19  20
HETATM   20  N1  UNL     1      19.475   1.385  32.864  1.00  0.00    -0.348 N
ATOM     21  H12 UNL     1      19.698   2.378  32.932  1.00  0.00     0.172 HD
ATOM     22  H11 UNL     1      19.707   0.791  32.069  1.00  0.00     0.172 HD
ENDBRANCH  19  20
ENDBRANCH  18  19
ENDBRANCH  17  18
ENDBRANCH   1  17
TORSDOF 4
ENDMDL