MODEL 1
REMARK VINA RESULT: -5.069313733      0.000      0.000
REMARK  5 active torsions:
REMARK  status: ('A' for Active; 'I' for Inactive)
REMARK    1  A    between atoms: N1_1  and  C1_4
REMARK    2  A    between atoms: C2_9  and  N4_10
REMARK    3  A    between atoms: N4_10  and  S1_12
REMARK    4  A    between atoms: S1_12  and  N5_15
REMARK    5  A    between atoms: N5_15  and  N6_17
ROOT
HETATM    1  C1  UNL     1      15.078  -2.578  35.913  1.00  0.00     0.693 A
HETATM    2  N2  UNL     1      14.652  -1.824  34.884  1.00  0.00    -0.131 N
ATOM      3  H2  UNL     1      13.961  -2.179  34.222  1.00  0.00     0.205 HD
HETATM    4  N3  UNL     1      15.147  -0.628  34.759  1.00  0.00    -0.266 N
ATOM      5  H3  UNL     1      14.812  -0.072  33.972  1.00  0.00     0.189 HD
HETATM    6  C2  UNL     1      16.067  -0.045  35.571  1.00  0.00     0.201 A
HETATM    7  C3  UNL     1      16.496  -0.820  36.616  1.00  0.00     0.305 A
HETATM    8  O3  UNL     1      17.347  -0.429  37.457  1.00  0.00    -0.263 OA
HETATM    9  N7  UNL     1      15.983  -2.081  36.761  1.00  0.00    -0.152 N
ATOM     10  H7  UNL     1      16.303  -2.659  37.538  1.00  0.00     0.188 HD
ENDROOT
BRANCH   6  11
HETATM   11  N4  UNL     1      16.537   1.245  35.313  1.00  0.00    -0.246 N
ATOM     12  H4  UNL     1      17.359   1.554  35.832  1.00  0.00     0.182 HD
BRANCH  11  13
HETATM   13  S1  UNL     1      15.865   2.334  34.222  1.00  0.00     0.337 S
HETATM   14  O1  UNL     1      14.416   2.093  33.952  1.00  0.00    -0.181 OA
HETATM   15  O2  UNL     1      16.555   2.112  32.841  1.00  0.00    -0.181 OA
BRANCH  13  16
HETATM   16  N5  UNL     1      16.092   4.002  34.646  1.00  0.00    -0.216 N
ATOM     17  H5  UNL     1      15.435   4.561  35.192  1.00  0.00     0.201 HD
BRANCH  16  18
HETATM   18  N6  UNL     1      17.316   4.472  34.126  1.00  0.00    -0.335 N
ATOM     19  H62 UNL     1      18.232   4.181  34.467  1.00  0.00     0.177 HD
ATOM     20  H61 UNL     1      17.144   5.135  33.370  1.00  0.00     0.177 HD
ENDBRANCH  16  18
ENDBRANCH  13  16
ENDBRANCH  11  13
ENDBRANCH   6  11
BRANCH   1  21
HETATM   21  N1  UNL     1      14.589  -3.767  36.043  1.00  0.00    -0.233 N
ATOM     22  H12 UNL     1      13.704  -4.042  35.616  1.00  0.00     0.174 HD
ATOM     23  H11 UNL     1      15.114  -4.446  36.593  1.00  0.00     0.174 HD
ENDBRANCH   1  21
TORSDOF 5
ENDMDL