MODEL 3
REMARK VINA RESULT: -5.353029116      1.211      1.768
REMARK  4 active torsions:
REMARK  status: ('A' for Active; 'I' for Inactive)
REMARK    1  A    between atoms: N1_1  and  C1_4
REMARK    2  A    between atoms: C3_8  and  C4_9
REMARK    3  A    between atoms: N4_11  and  N5_13
REMARK    4  A    between atoms: C5_15  and  N6_16
ROOT
HETATM    1  C1  UNL     1      15.335  -3.574  36.149  1.00  0.00     0.678 A
HETATM    2  N2  UNL     1      16.564  -3.210  36.555  1.00  0.00    -0.201 N
ATOM      3  H2  UNL     1      17.171  -3.872  37.037  1.00  0.00     0.183 HD
HETATM    4  C2  UNL     1      16.974  -1.952  36.310  1.00  0.00     0.126 A
HETATM    5  C3  UNL     1      16.200  -1.009  35.664  1.00  0.00     0.091 A
HETATM    6  C6  UNL     1      14.934  -1.438  35.264  1.00  0.00     0.274 A
HETATM    7  O3  UNL     1      14.175  -0.613  34.663  1.00  0.00    -0.267 OA
HETATM    8  N7  UNL     1      14.537  -2.698  35.515  1.00  0.00    -0.156 N
ATOM      9  H7  UNL     1      13.608  -2.995  35.217  1.00  0.00     0.187 HD
ENDROOT
BRANCH   5  10
HETATM   10  C4  UNL     1      16.662   0.344  35.410  1.00  0.00     0.148 C
HETATM   11  N3  UNL     1      17.629   0.598  34.410  1.00  0.00    -0.080 NA
HETATM   12  N4  UNL     1      16.199   1.326  36.091  1.00  0.00    -0.286 N
ATOM     13  H4  UNL     1      15.503   1.113  36.805  1.00  0.00     0.188 HD
BRANCH  12  14
HETATM   14  N5  UNL     1      16.563   2.643  35.937  1.00  0.00    -0.289 N
HETATM   15  C5  UNL     1      15.920   3.590  36.514  1.00  0.00     0.274 C
ATOM     16  H5  UNL     1      17.364   2.872  35.349  1.00  0.00     0.188 HD
BRANCH  15  17
HETATM   17  N6  UNL     1      16.312   4.932  36.340  1.00  0.00    -0.110 N
HETATM   18  O1  UNL     1      16.311   5.788  37.398  1.00  0.00    -0.531 OA
HETATM   19  O2  UNL     1      16.686   5.356  35.126  1.00  0.00    -0.531 OA
ENDBRANCH  15  17
ENDBRANCH  12  14
ENDBRANCH   5  10
BRANCH   1  20
HETATM   20  N1  UNL     1      14.912  -4.768  36.368  1.00  0.00    -0.234 N
ATOM     21  H12 UNL     1      14.960  -5.151  37.312  1.00  0.00     0.174 HD
ATOM     22  H11 UNL     1      14.534  -5.325  35.602  1.00  0.00     0.174 HD
ENDBRANCH   1  20
TORSDOF 4
ENDMDL