MODEL 3
REMARK VINA RESULT: -4.797378638      0.968      1.133
REMARK  6 active torsions:
REMARK  status: ('A' for Active; 'I' for Inactive)
REMARK    1  A    between atoms: N1_1  and  C1_4
REMARK    2  A    between atoms: C2_7  and  N3_8
REMARK    3  A    between atoms: N3_8  and  N4_10
REMARK    4  A    between atoms: N4_10  and  O1_12
REMARK    5  A    between atoms: C4_17  and  S1_18
REMARK    6  A    between atoms: S1_18  and  N6_19
ROOT
HETATM    1  C1  UNL     1      16.335  -0.723  36.410  1.00  0.00     0.139 A
HETATM    2  N2  UNL     1      16.152  -2.007  36.823  1.00  0.00    -0.174 N
ATOM      3  H2  UNL     1      16.636  -2.329  37.661  1.00  0.00     0.186 HD
HETATM    4  C2  UNL     1      15.353  -2.863  36.162  1.00  0.00     0.699 A
HETATM    5  N5  UNL     1      14.733  -2.400  35.064  1.00  0.00    -0.199 N
ATOM      6  H5  UNL     1      14.122  -3.033  34.547  1.00  0.00     0.183 HD
HETATM    7  C3  UNL     1      14.881  -1.141  34.615  1.00  0.00     0.135 A
HETATM    8  C4  UNL     1      15.697  -0.251  35.282  1.00  0.00     0.139 A
ENDROOT
BRANCH   4   9
HETATM    9  N3  UNL     1      15.186  -4.086  36.566  1.00  0.00    -0.112 N
ATOM     10  H3  UNL     1      14.265  -4.382  36.886  1.00  0.00     0.207 HD
BRANCH   9  11
HETATM   11  N4  UNL     1      16.238  -5.007  36.575  1.00  0.00    -0.196 N
ATOM     12  H4  UNL     1      16.139  -5.867  37.115  1.00  0.00     0.216 HD
BRANCH  11  13
HETATM   13  O1  UNL     1      17.300  -4.805  35.937  1.00  0.00    -0.274 OA
ATOM     14  H1  UNL     1      17.362  -4.966  35.003  1.00  0.00     0.246 HD
ENDBRANCH  11  13
ENDBRANCH   9  11
ENDBRANCH   4   9
BRANCH   1  15
HETATM   15  N1  UNL     1      17.102   0.100  37.045  1.00  0.00    -0.384 N
ATOM     16  H12 UNL     1      17.460  -0.199  37.952  1.00  0.00     0.157 HD
ATOM     17  H11 UNL     1      17.346   1.015  36.667  1.00  0.00     0.157 HD
ENDBRANCH   1  15
BRANCH   8  18
HETATM   18  S1  UNL     1      15.932   1.401  34.750  1.00  0.00     0.261 S
HETATM   19  O2  UNL     1      14.937   1.773  33.679  1.00  0.00    -0.201 OA
HETATM   20  O3  UNL     1      15.690   2.311  35.924  1.00  0.00    -0.201 OA
BRANCH  18  21
HETATM   21  N6  UNL     1      17.493   1.681  34.146  1.00  0.00    -0.324 N
ATOM     22  H62 UNL     1      18.321   1.696  34.743  1.00  0.00     0.169 HD
ATOM     23  H61 UNL     1      17.505   1.829  33.137  1.00  0.00     0.169 HD
ENDBRANCH  18  21
ENDBRANCH   8  18
TORSDOF 6
ENDMDL