MODEL 5
REMARK VINA RESULT: -4.662879334      3.691      5.835
REMARK  5 active torsions:
REMARK  status: ('A' for Active; 'I' for Inactive)
REMARK    1  A    between atoms: C5_11  and  N4_12
REMARK    2  A    between atoms: N4_12  and  C6_14
REMARK    3  A    between atoms: C6_14  and  C7_15
REMARK    4  A    between atoms: C7_15  and  N5_16
REMARK    5  A    between atoms: C7_15  and  N6_20
ROOT
HETATM    1  C1  UNL     1      15.421  -0.172  34.710  1.00  0.00     0.179 C
HETATM    2  N1  UNL     1      15.389  -1.461  35.342  1.00  0.00    -0.280 N
HETATM    3  N2  UNL     1      14.374  -2.307  35.317  1.00  0.00    -0.307 N
ATOM      4  H2  UNL     1      13.486  -2.144  34.842  1.00  0.00     0.186 HD
HETATM    5  C2  UNL     1      14.687  -3.415  36.011  1.00  0.00     0.128 A
HETATM    6  C3  UNL     1      15.976  -3.227  36.486  1.00  0.00     0.095 A
HETATM    7  C4  UNL     1      16.844  -3.985  37.250  1.00  0.00     0.275 A
HETATM    8  O1  UNL     1      16.440  -5.108  37.634  1.00  0.00    -0.267 OA
HETATM    9  N3  UNL     1      18.071  -3.511  37.555  1.00  0.00    -0.155 N
ATOM     10  H3  UNL     1      18.695  -4.087  38.119  1.00  0.00     0.187 HD
HETATM   11  C5  UNL     1      18.498  -2.305  37.140  1.00  0.00     0.682 A
HETATM   12  N7  UNL     1      17.639  -1.579  36.397  1.00  0.00    -0.174 N
ATOM     13  H7  UNL     1      17.941  -0.662  36.071  1.00  0.00     0.186 HD
HETATM   14  C8  UNL     1      16.410  -1.997  36.062  1.00  0.00     0.154 A
ENDROOT
BRANCH  11  15
HETATM   15  N4  UNL     1      19.667  -1.873  37.440  1.00  0.00    -0.222 N
ATOM     16  H4  UNL     1      19.860  -1.578  38.397  1.00  0.00     0.177 HD
BRANCH  15  17
HETATM   17  C6  UNL     1      20.704  -1.799  36.461  1.00  0.00     0.200 C
BRANCH  17  18
HETATM   18  C7  UNL     1      21.298  -3.158  36.173  1.00  0.00     0.396 C
BRANCH  18  19
HETATM   19  N5  UNL     1      22.231  -3.090  35.089  1.00  0.00    -0.049 N
ATOM     20  H53 UNL     1      22.936  -2.369  35.244  1.00  0.00     0.276 HD
ATOM     21  H52 UNL     1      22.845  -3.905  35.069  1.00  0.00     0.276 HD
ATOM     22  H51 UNL     1      21.748  -2.961  34.200  1.00  0.00     0.276 HD
ENDBRANCH  18  19
BRANCH  18  23
HETATM   23  N6  UNL     1      21.918  -3.755  37.312  1.00  0.00    -0.049 N
ATOM     24  H63 UNL     1      22.893  -3.465  37.387  1.00  0.00     0.276 HD
ATOM     25  H62 UNL     1      21.555  -3.351  38.176  1.00  0.00     0.276 HD
ATOM     26  H61 UNL     1      21.840  -4.772  37.327  1.00  0.00     0.276 HD
ENDBRANCH  18  23
ENDBRANCH  17  18
ENDBRANCH  15  17
ENDBRANCH  11  15
TORSDOF 5
ENDMDL