MODEL 1
REMARK VINA RESULT: -5.144286912      0.000      0.000
REMARK  3 active torsions:
REMARK  status: ('A' for Active; 'I' for Inactive)
REMARK    1  A    between atoms: C4_11  and  N4_12
REMARK    2  A    between atoms: N4_12  and  S1_14
REMARK    3  A    between atoms: S1_14  and  N5_15
ROOT
HETATM    1  N1  UNL     1      18.212  -1.499  36.975  1.00  0.00    -0.080 NA
HETATM    2  C1  UNL     1      16.936  -1.900  36.478  1.00  0.00     0.153 A
HETATM    3  N2  UNL     1      16.463  -3.140  36.693  1.00  0.00    -0.295 N
ATOM      4  H2  UNL     1      17.016  -3.817  37.219  1.00  0.00     0.172 HD
HETATM    5  C2  UNL     1      15.258  -3.477  36.209  1.00  0.00     0.328 A
HETATM    6  O1  UNL     1      14.803  -4.656  36.411  1.00  0.00    -0.247 OA
HETATM    7  N3  UNL     1      14.530  -2.580  35.516  1.00  0.00    -0.273 N
ATOM      8  H3  UNL     1      13.618  -2.867  35.161  1.00  0.00     0.173 HD
HETATM    9  C3  UNL     1      14.945  -1.326  35.266  1.00  0.00     0.280 A
HETATM   10  O2  UNL     1      14.217  -0.527  34.608  1.00  0.00    -0.265 OA
HETATM   11  C4  UNL     1      16.180  -0.977  35.761  1.00  0.00     0.153 A
ENDROOT
BRANCH  11  12
HETATM   12  N4  UNL     1      16.646   0.340  35.515  1.00  0.00    -0.260 N
ATOM     13  H4  UNL     1      17.212   0.494  34.680  1.00  0.00     0.180 HD
BRANCH  12  14
HETATM   14  S1  UNL     1      16.330   1.679  36.513  1.00  0.00     0.317 S
HETATM   15  O3  UNL     1      15.626   1.314  37.784  1.00  0.00    -0.183 OA
HETATM   16  O4  UNL     1      15.458   2.648  35.764  1.00  0.00    -0.183 OA
BRANCH  14  17
HETATM   17  N5  UNL     1      17.775   2.522  36.967  1.00  0.00    -0.311 N
ATOM     18  H52 UNL     1      18.500   2.783  36.297  1.00  0.00     0.170 HD
ATOM     19  H51 UNL     1      17.812   2.721  37.966  1.00  0.00     0.170 HD
ENDBRANCH  14  17
ENDBRANCH  12  14
ENDBRANCH  11  12
TORSDOF 3
ENDMDL