MODEL 2
REMARK VINA RESULT: -4.993154693      1.578      2.149
REMARK  5 active torsions:
REMARK  status: ('A' for Active; 'I' for Inactive)
REMARK    1  A    between atoms: N1_2  and  C3_4
REMARK    2  A    between atoms: C3_4  and  C4_5
REMARK    3  A    between atoms: C5_8  and  N3_9
REMARK    4  A    between atoms: C6_15  and  N6_16
REMARK    5  A    between atoms: N8_22  and  O1_23
ROOT
HETATM    1  C4  UNL     1      16.846   1.779  34.658  1.00  0.00     0.172 A
HETATM    2  N2  UNL     1      17.883   1.135  35.211  1.00  0.00    -0.174 N
ATOM      3  H2  UNL     1      18.765   1.635  35.327  1.00  0.00     0.185 HD
HETATM    4  C5  UNL     1      17.808  -0.144  35.620  1.00  0.00     0.714 A
HETATM    5  N4  UNL     1      16.659  -0.811  35.474  1.00  0.00     0.107 N
HETATM    6  N5  UNL     1      16.325  -2.060  35.789  1.00  0.00    -0.096 N
ATOM      7  H5  UNL     1      16.938  -2.750  36.220  1.00  0.00     0.207 HD
HETATM    8  C6  UNL     1      15.043  -2.255  35.441  1.00  0.00     0.706 A
HETATM    9  N7  UNL     1      14.617  -1.097  34.911  1.00  0.00    -0.017 N
ATOM     10  H7  UNL     1      13.679  -0.926  34.549  1.00  0.00     0.203 HD
HETATM   11  C7  UNL     1      15.612  -0.200  34.929  1.00  0.00     0.761 A
HETATM   12  N8  UNL     1      15.699   1.098  34.518  1.00  0.00    -0.034 N
ENDROOT
BRANCH   1  13
HETATM   13  C3  UNL     1      17.010   3.191  34.234  1.00  0.00     0.351 C
BRANCH  13  14
HETATM   14  N1  UNL     1      18.179   3.392  33.429  1.00  0.00     0.087 N
HETATM   15  C1  UNL     1      18.069   2.890  32.093  1.00  0.00     0.309 C
HETATM   16  C2  UNL     1      18.441   4.819  33.369  1.00  0.00     0.309 C
ENDBRANCH  13  14
ENDBRANCH   1  13
BRANCH  12  17
HETATM   17  O1  UNL     1      14.614   1.718  33.958  1.00  0.00    -0.268 OA
ATOM     18  H1  UNL     1      14.634   1.948  33.036  1.00  0.00     0.246 HD
ENDBRANCH  12  17
BRANCH   4  19
HETATM   19  N3  UNL     1      18.864  -0.687  36.145  1.00  0.00    -0.232 N
ATOM     20  H32 UNL     1      18.825  -1.555  36.679  1.00  0.00     0.174 HD
ATOM     21  H31 UNL     1      19.763  -0.222  36.015  1.00  0.00     0.174 HD
ENDBRANCH   4  19
BRANCH   8  22
HETATM   22  N6  UNL     1      14.356  -3.358  35.592  1.00  0.00    -0.233 N
ATOM     23  H62 UNL     1      14.712  -4.314  35.587  1.00  0.00     0.174 HD
ATOM     24  H61 UNL     1      13.350  -3.430  35.741  1.00  0.00     0.174 HD
ENDBRANCH   8  22
TORSDOF 5
ENDMDL