MODEL 1
REMARK VINA RESULT: -5.631786117      0.000      0.000
REMARK  3 active torsions:
REMARK  status: ('A' for Active; 'I' for Inactive)
REMARK    1  A    between atoms: N4_13  and  C4_14
REMARK    2  A    between atoms: C4_14  and  C5_15
REMARK    3  A    between atoms: C5_15  and  O3_16
ROOT
HETATM    1  N1  UNL     1      18.075  -1.264  36.803  1.00  0.00    -0.234 N
ATOM      2  H11 UNL     1      18.159  -0.249  36.861  1.00  0.00     0.174 HD
ATOM      3  H12 UNL     1      18.834  -1.870  37.115  1.00  0.00     0.174 HD
HETATM    4  C1  UNL     1      16.951  -1.656  36.329  1.00  0.00     0.686 A
HETATM    5  N2  UNL     1      16.838  -3.023  36.251  1.00  0.00    -0.141 N
ATOM      6  H2  UNL     1      17.605  -3.617  36.566  1.00  0.00     0.189 HD
HETATM    7  C2  UNL     1      15.732  -3.570  35.766  1.00  0.00     0.342 A
HETATM    8  O1  UNL     1      15.582  -4.826  35.674  1.00  0.00    -0.246 OA
HETATM    9  N3  UNL     1      14.738  -2.764  35.356  1.00  0.00    -0.259 N
ATOM     10  H3  UNL     1      13.886  -3.181  34.981  1.00  0.00     0.175 HD
HETATM   11  C3  UNL     1      14.835  -1.415  35.428  1.00  0.00     0.344 A
HETATM   12  O2  UNL     1      13.836  -0.785  35.011  1.00  0.00    -0.246 OA
HETATM   13  N4  UNL     1      15.952  -0.859  35.919  1.00  0.00    -0.130 N
ENDROOT
BRANCH  13  14
HETATM   14  C4  UNL     1      16.089   0.546  36.022  1.00  0.00     0.192 C
BRANCH  14  15
HETATM   15  C5  UNL     1      16.119   1.345  34.773  1.00  0.00     0.100 C
HETATM   16  C6  UNL     1      16.609   2.790  35.076  1.00  0.00     0.068 C
HETATM   17  C7  UNL     1      17.217   3.244  33.760  1.00  0.00     0.235 C
HETATM   18  N5  UNL     1      17.352   2.067  32.917  1.00  0.00    -0.072 N
HETATM   19  C8  UNL     1      17.232   0.945  33.855  1.00  0.00     0.271 C
ATOM     20  H52 UNL     1      16.697   2.034  32.136  1.00  0.00     0.277 HD
ATOM     21  H51 UNL     1      18.200   2.052  32.350  1.00  0.00     0.277 HD
BRANCH  15  22
HETATM   22  O3  UNL     1      14.917   1.548  34.142  1.00  0.00    -0.386 OA
ATOM     23  H3  UNL     1      14.530   0.796  33.708  1.00  0.00     0.210 HD
ENDBRANCH  15  22
ENDBRANCH  14  15
ENDBRANCH  13  14
TORSDOF 3
ENDMDL