MODEL 2
REMARK VINA RESULT: -5.289916271      1.225      1.239
REMARK  3 active torsions:
REMARK  status: ('A' for Active; 'I' for Inactive)
REMARK    1  A    between atoms: C3_5  and  C4_6
REMARK    2  A    between atoms: C5_8  and  N3_9
REMARK    3  A    between atoms: C6_12  and  N4_13
REMARK       I    between atoms: N4_13  and  C7_15
ROOT
HETATM    1  C1  UNL     1      19.054  -1.749  38.326  1.00  0.00     0.162 C
HETATM    2  N1  UNL     1      17.881  -1.381  37.557  1.00  0.00    -0.291 N
HETATM    3  C2  UNL     1      17.011  -2.395  37.297  1.00  0.00     0.137 C
HETATM    4  N2  UNL     1      17.258  -3.553  38.072  1.00  0.00    -0.081 NA
HETATM    5  C3  UNL     1      15.958  -2.442  36.409  1.00  0.00     0.073 C
HETATM    6  C5  UNL     1      15.545  -1.440  35.538  1.00  0.00     0.087 C
HETATM    7  C6  UNL     1      15.962  -0.126  35.529  1.00  0.00     0.139 C
HETATM    8  N7  UNL     1      16.820   0.468  36.362  1.00  0.00    -0.292 N
ATOM      9  H7  UNL     1      16.766   1.486  36.393  1.00  0.00     0.172 HD
HETATM   10  C8  UNL     1      17.756  -0.095  37.176  1.00  0.00     0.329 C
HETATM   11  O2  UNL     1      18.614   0.688  37.630  1.00  0.00    -0.246 OA
ENDROOT
BRANCH   7  12
HETATM   12  N4  UNL     1      15.429   0.591  34.569  1.00  0.00    -0.315 N
HETATM   13  C7  UNL     1      16.129   1.734  34.054  1.00  0.00     0.187 C
HETATM   14  N5  UNL     1      17.122   1.607  33.248  1.00  0.00    -0.373 N
HETATM   15  N6  UNL     1      15.747   3.055  34.418  1.00  0.00    -0.064 NA
ATOM     16  H52 UNL     1      17.396   0.660  32.986  1.00  0.00     0.158 HD
ATOM     17  H51 UNL     1      17.620   2.418  32.882  1.00  0.00     0.158 HD
ATOM     18  H4  UNL     1      14.517   0.338  34.189  1.00  0.00     0.170 HD
ENDBRANCH   7  12
BRANCH   6  19
HETATM   19  N3  UNL     1      14.679  -1.753  34.638  1.00  0.00    -0.395 N
ATOM     20  H32 UNL     1      13.858  -2.256  34.975  1.00  0.00     0.156 HD
ATOM     21  H31 UNL     1      14.879  -1.479  33.677  1.00  0.00     0.156 HD
ENDBRANCH   6  19
BRANCH   5  22
HETATM   22  C4  UNL     1      15.187  -3.666  36.367  1.00  0.00     0.275 C
HETATM   23  O1  UNL     1      15.427  -4.528  35.486  1.00  0.00    -0.301 OA
ENDBRANCH   5  22
TORSDOF 3
ENDMDL