MODEL 1
REMARK VINA RESULT: -5.765938402      0.000      0.000
REMARK  4 active torsions:
REMARK  status: ('A' for Active; 'I' for Inactive)
REMARK    1  A    between atoms: N1_1  and  S1_4
REMARK    2  A    between atoms: S1_4  and  N2_7
REMARK    3  A    between atoms: N2_7  and  C1_9
REMARK    4  A    between atoms: C4_18  and  O5_19
ROOT
HETATM    1  C1  UNL     1      15.819  -1.139  36.305  1.00  0.00     0.171 A
HETATM    2  N3  UNL     1      16.631  -1.956  36.990  1.00  0.00    -0.301 N
ATOM      3  H3  UNL     1      17.430  -1.566  37.492  1.00  0.00     0.171 HD
HETATM    4  C2  UNL     1      16.408  -3.285  37.029  1.00  0.00     0.315 A
HETATM    5  O3  UNL     1      17.178  -4.036  37.675  1.00  0.00    -0.262 OA
HETATM    6  C3  UNL     1      15.330  -3.822  36.355  1.00  0.00     0.315 A
HETATM    7  O4  UNL     1      15.079  -5.063  36.362  1.00  0.00    -0.262 OA
HETATM    8  N4  UNL     1      14.501  -3.012  35.659  1.00  0.00    -0.296 N
ATOM      9  H4  UNL     1      13.701  -3.399  35.158  1.00  0.00     0.171 HD
HETATM   10  C4  UNL     1      14.744  -1.690  35.636  1.00  0.00     0.189 A
ENDROOT
BRANCH   1  11
HETATM   11  N2  UNL     1      16.062   0.261  36.270  1.00  0.00    -0.249 N
ATOM     12  H2  UNL     1      16.069   0.768  37.155  1.00  0.00     0.182 HD
BRANCH  11  13
HETATM   13  S1  UNL     1      16.345   1.149  34.835  1.00  0.00     0.318 S
HETATM   14  O1  UNL     1      17.169   0.354  33.865  1.00  0.00    -0.183 OA
HETATM   15  O2  UNL     1      15.015   1.486  34.191  1.00  0.00    -0.183 OA
BRANCH  13  16
HETATM   16  N1  UNL     1      17.172   2.627  35.133  1.00  0.00    -0.311 N
ATOM     17  H12 UNL     1      18.055   2.720  35.636  1.00  0.00     0.170 HD
ATOM     18  H11 UNL     1      16.620   3.379  34.719  1.00  0.00     0.170 HD
ENDBRANCH  13  16
ENDBRANCH  11  13
ENDBRANCH   1  11
BRANCH  10  19
HETATM   19  O5  UNL     1      13.849  -0.895  34.896  1.00  0.00    -0.343 OA
ATOM     20  H5  UNL     1      12.967  -0.721  35.202  1.00  0.00     0.219 HD
ENDBRANCH  10  19
TORSDOF 4
ENDMDL