MODEL 2
REMARK VINA RESULT: -4.931938673      2.666      4.367
REMARK  5 active torsions:
REMARK  status: ('A' for Active; 'I' for Inactive)
REMARK    1  A    between atoms: O1_2  and  C2_3
REMARK    2  A    between atoms: C4_6  and  O3_8
REMARK    3  A    between atoms: C6_10  and  O4_11
REMARK    4  A    between atoms: C7_13  and  N1_14
REMARK    5  A    between atoms: N1_14  and  N2_16
ROOT
HETATM    1  C2  UNL     1      33.086  14.100 -18.631  1.00  0.00     0.285 C
HETATM    2  C3  UNL     1      33.366  14.430 -20.097  1.00  0.00     0.232 C
HETATM    3  O2  UNL     1      33.483  15.807 -20.183  1.00  0.00    -0.348 OA
HETATM    4  C4  UNL     1      34.762  16.275 -20.133  1.00  0.00     0.188 C
HETATM    5  C5  UNL     1      34.785  17.615 -20.884  1.00  0.00     0.082 C
HETATM    6  C6  UNL     1      35.305  16.444 -18.730  1.00  0.00     0.229 C
HETATM    7  C7  UNL     1      34.323  15.828 -17.750  1.00  0.00     0.274 C
HETATM    8  O5  UNL     1      34.244  14.469 -17.936  1.00  0.00    -0.331 OA
ENDROOT
BRANCH   7   9
HETATM    9  N1  UNL     1      34.699  16.083 -16.386  1.00  0.00    -0.291 N
ATOM     10  H1  UNL     1      35.061  15.312 -15.825  1.00  0.00     0.184 HD
BRANCH   9  11
HETATM   11  N2  UNL     1      34.599  17.203 -15.869  1.00  0.00    -0.251 N
HETATM   12  N3  UNL     1      34.967  18.264 -15.374  1.00  0.00    -0.331 N
ATOM     13  H32 UNL     1      35.973  18.110 -15.433  1.00  0.00     0.178 HD
ATOM     14  H31 UNL     1      34.885  19.187 -14.948  1.00  0.00     0.178 HD
ATOM     15  H2  UNL     1      33.585  17.310 -15.831  1.00  0.00     0.207 HD
ENDBRANCH   9  11
ENDBRANCH   7   9
BRANCH   6  16
HETATM   16  O4  UNL     1      35.506  17.789 -18.450  1.00  0.00    -0.386 OA
ATOM     17  H4  UNL     1      35.955  17.889 -17.620  1.00  0.00     0.210 HD
ENDBRANCH   6  16
BRANCH   4  18
HETATM   18  O3  UNL     1      35.673  15.454 -20.839  1.00  0.00    -0.363 OA
ATOM     19  H3  UNL     1      36.458  15.263 -20.340  1.00  0.00     0.213 HD
ENDBRANCH   4  18
BRANCH   1  20
HETATM   20  O1  UNL     1      32.026  14.824 -18.132  1.00  0.00    -0.364 OA
HETATM   21  C1  UNL     1      30.999  14.051 -17.640  1.00  0.00     0.204 C
ENDBRANCH   1  20
TORSDOF 5
ENDMDL