MODEL 2
REMARK VINA RESULT: -5.808555456      2.627      3.736
REMARK  4 active torsions:
REMARK  status: ('A' for Active; 'I' for Inactive)
REMARK    1  A    between atoms: C2_3  and  C3_4
REMARK    2  A    between atoms: C5_6  and  O1_7
REMARK    3  A    between atoms: C6_9  and  O2_10
REMARK    4  A    between atoms: C7_12  and  N2_13
ROOT
HETATM    1  N1  UNL     1      32.101  14.327 -20.075  1.00  0.00    -0.197 NA
HETATM    2  C1  UNL     1      32.233  14.623 -18.963  1.00  0.00     0.061 C
HETATM    3  C2  UNL     1      32.391  14.995 -17.561  1.00  0.00     0.156 C
ENDROOT
BRANCH   3   4
HETATM    4  C3  UNL     1      33.851  15.300 -17.305  1.00  0.00     0.140 C
HETATM    5  C4  UNL     1      34.040  16.520 -16.453  1.00  0.00     0.067 C
HETATM    6  C5  UNL     1      35.454  17.015 -16.683  1.00  0.00     0.153 C
HETATM    7  C6  UNL     1      35.584  17.493 -18.134  1.00  0.00     0.197 C
HETATM    8  C7  UNL     1      34.532  16.782 -18.938  1.00  0.00     0.274 C
HETATM    9  O3  UNL     1      34.514  15.451 -18.535  1.00  0.00    -0.356 OA
BRANCH   6  10
HETATM   10  O1  UNL     1      35.770  18.057 -15.837  1.00  0.00    -0.393 OA
ATOM     11  H1  UNL     1      35.019  18.618 -15.679  1.00  0.00     0.210 HD
ENDBRANCH   6  10
BRANCH   7  12
HETATM   12  O2  UNL     1      35.465  18.874 -18.173  1.00  0.00    -0.389 OA
ATOM     13  H2  UNL     1      36.257  19.265 -17.822  1.00  0.00     0.210 HD
ENDBRANCH   7  12
BRANCH   8  14
HETATM   14  N2  UNL     1      34.767  16.853 -20.353  1.00  0.00    -0.272 N
HETATM   15  C8  UNL     1      35.193  15.842 -21.121  1.00  0.00     0.114 A
HETATM   16  C9  UNL     1      35.282  16.345 -22.402  1.00  0.00     0.037 A
HETATM   17  C10 UNL     1      34.902  17.671 -22.390  1.00  0.00     0.108 A
HETATM   18  N3  UNL     1      34.599  17.919 -21.103  1.00  0.00    -0.308 N
ATOM     19  H3  UNL     1      34.279  18.822 -20.753  1.00  0.00     0.186 HD
ENDBRANCH   8  14
ENDBRANCH   3   4
TORSDOF 4
ENDMDL