MODEL 5
REMARK VINA RESULT: -5.861418835      2.130      4.870
REMARK  4 active torsions:
REMARK  status: ('A' for Active; 'I' for Inactive)
REMARK    1  A    between atoms: N2_3  and  C2_4
REMARK    2  A    between atoms: N2_3  and  C3_7
REMARK    3  A    between atoms: C2_4  and  O1_5
REMARK    4  A    between atoms: C6_11  and  O3_12
ROOT
HETATM    1  N1  UNL     1      33.933  15.776 -16.048  1.00  0.00    -0.172 NA
HETATM    2  C1  UNL     1      34.320  15.876 -17.135  1.00  0.00     0.185 C
HETATM    3  N2  UNL     1      34.784  16.003 -18.443  1.00  0.00    -0.252 N
ENDROOT
BRANCH   3   4
HETATM    4  C2  UNL     1      34.977  17.327 -18.984  1.00  0.00     0.305 C
BRANCH   4   5
HETATM    5  O1  UNL     1      34.986  18.300 -17.988  1.00  0.00    -0.381 OA
ATOM      6  H1  UNL     1      34.110  18.600 -17.778  1.00  0.00     0.211 HD
ENDBRANCH   4   5
ENDBRANCH   3   4
BRANCH   3   7
HETATM    7  C3  UNL     1      35.054  14.831 -19.217  1.00  0.00     0.352 C
HETATM    8  O2  UNL     1      36.330  14.917 -19.873  1.00  0.00    -0.319 OA
HETATM    9  C4  UNL     1      36.411  15.238 -21.219  1.00  0.00     0.140 C
HETATM   10  C5  UNL     1      35.508  14.723 -22.037  1.00  0.00     0.062 C
HETATM   11  C6  UNL     1      34.469  13.831 -21.406  1.00  0.00     0.177 A
HETATM   12  C7  UNL     1      33.364  13.566 -22.341  1.00  0.00     0.038 A
HETATM   13  N3  UNL     1      34.038  14.525 -20.206  1.00  0.00    -0.308 N
HETATM   14  C8  UNL     1      32.113  13.889 -22.180  1.00  0.00     0.002 A
HETATM   15  C9  UNL     1      31.740  14.588 -20.951  1.00  0.00     0.017 A
HETATM   16  C10 UNL     1      32.670  14.868 -20.051  1.00  0.00     0.093 A
BRANCH  11  17
HETATM   17  O3  UNL     1      35.090  12.612 -21.108  1.00  0.00    -0.364 OA
ATOM     18  H3  UNL     1      35.009  12.057 -21.874  1.00  0.00     0.213 HD
ENDBRANCH  11  17
ENDBRANCH   3   7
TORSDOF 4
ENDMDL