MODEL 4
REMARK VINA RESULT: -5.508927968      1.730      3.880
REMARK  4 active torsions:
REMARK  status: ('A' for Active; 'I' for Inactive)
REMARK    1  A    between atoms: C4_6  and  C5_7
REMARK    2  A    between atoms: C5_7  and  O3_8
REMARK    3  A    between atoms: C7_11  and  C8_12
REMARK    4  A    between atoms: C8_12  and  O4_13
ROOT
HETATM    1  C1  UNL     1      31.848  14.510 -17.691  1.00  0.00     0.052 C
HETATM    2  C2  UNL     1      33.342  14.591 -17.970  1.00  0.00     0.118 C
HETATM    3  C3  UNL     1      33.938  13.211 -17.941  1.00  0.00     0.052 C
HETATM    4  O1  UNL     1      33.881  15.358 -16.905  1.00  0.00    -0.227 OA
HETATM    5  O2  UNL     1      33.820  16.656 -17.206  1.00  0.00    -0.232 OA
HETATM    6  C4  UNL     1      34.892  17.028 -18.062  1.00  0.00     0.193 C
HETATM    7  C6  UNL     1      35.099  15.860 -18.946  1.00  0.00     0.089 C
HETATM    8  C7  UNL     1      35.563  16.061 -20.320  1.00  0.00     0.193 C
HETATM    9  O5  UNL     1      34.464  15.618 -21.097  1.00  0.00    -0.232 OA
HETATM   10  O6  UNL     1      33.892  14.659 -20.356  1.00  0.00    -0.231 OA
HETATM   11  C9  UNL     1      33.663  15.343 -19.203  1.00  0.00     0.206 C
ENDROOT
BRANCH   6  12
HETATM   12  C5  UNL     1      36.029  17.387 -17.166  1.00  0.00     0.199 C
BRANCH  12  13
HETATM   13  O3  UNL     1      35.836  17.119 -15.834  1.00  0.00    -0.398 OA
ATOM     14  H3  UNL     1      36.447  17.540 -15.241  1.00  0.00     0.209 HD
ENDBRANCH  12  13
ENDBRANCH   6  12
BRANCH   8  15
HETATM   15  C8  UNL     1      36.687  15.085 -20.706  1.00  0.00     0.199 C
BRANCH  15  16
HETATM   16  O4  UNL     1      36.899  14.112 -19.765  1.00  0.00    -0.398 OA
ATOM     17  H4  UNL     1      36.172  14.011 -19.162  1.00  0.00     0.209 HD
ENDBRANCH  15  16
ENDBRANCH   8  15
TORSDOF 4
ENDMDL