MODEL 4
REMARK VINA RESULT: -5.165497415      1.746      2.277
REMARK  4 active torsions:
REMARK  status: ('A' for Active; 'I' for Inactive)
REMARK    1  A    between atoms: C2_2  and  C3_3
REMARK    2  A    between atoms: C5_6  and  O2_7
REMARK    3  A    between atoms: C9_13  and  C10_14
REMARK    4  A    between atoms: C10_14  and  O4_15
ROOT
HETATM    1  C3  UNL     1      32.845  15.039 -21.775  1.00  0.00     0.182 C
HETATM    2  C4  UNL     1      32.272  13.717 -22.259  1.00  0.00     0.084 C
HETATM    3  O1  UNL     1      34.073  15.279 -22.373  1.00  0.00    -0.320 OA
HETATM    4  C5  UNL     1      34.921  16.045 -21.624  1.00  0.00     0.289 C
HETATM    5  C6  UNL     1      35.437  15.353 -20.373  1.00  0.00     0.179 C
HETATM    6  C7  UNL     1      34.964  13.898 -20.516  1.00  0.00     0.071 C
HETATM    7  C8  UNL     1      33.615  14.086 -19.802  1.00  0.00     0.159 C
HETATM    8  O3  UNL     1      32.851  15.045 -20.418  1.00  0.00    -0.344 OA
HETATM    9  C9  UNL     1      34.221  14.772 -18.575  1.00  0.00     0.174 C
HETATM   10  O5  UNL     1      34.838  15.843 -19.223  1.00  0.00    -0.371 OA
ENDROOT
BRANCH   1  11
HETATM   11  C2  UNL     1      31.917  16.101 -22.250  1.00  0.00     0.030 C
HETATM   12  C1  UNL     1      31.698  16.377 -23.524  1.00  0.00     0.012 C
ENDBRANCH   1  11
BRANCH   4  13
HETATM   13  O2  UNL     1      34.387  17.298 -21.333  1.00  0.00    -0.368 OA
ATOM     14  H2  UNL     1      34.192  17.402 -20.410  1.00  0.00     0.212 HD
ENDBRANCH   4  13
BRANCH   9  15
HETATM   15  C10 UNL     1      33.173  15.192 -17.602  1.00  0.00     0.198 C
BRANCH  15  16
HETATM   16  O4  UNL     1      32.020  14.442 -17.898  1.00  0.00    -0.398 OA
ATOM     17  H4  UNL     1      31.374  14.661 -17.238  1.00  0.00     0.209 HD
ENDBRANCH  15  16
ENDBRANCH   9  15
TORSDOF 4
ENDMDL