MODEL 4
REMARK VINA RESULT: -5.254886471      1.903      4.973
REMARK  3 active torsions:
REMARK  status: ('A' for Active; 'I' for Inactive)
REMARK    1  A    between atoms: O1_1  and  C1_3
REMARK    2  A    between atoms: C1_3  and  C2_4
REMARK    3  A    between atoms: C7_13  and  N2_14
ROOT
HETATM    1  C2  UNL     1      34.620  17.474 -20.142  1.00  0.00     0.173 C
HETATM    2  C3  UNL     1      34.708  17.284 -21.664  1.00  0.00     0.266 C
HETATM    3  N1  UNL     1      34.767  15.836 -21.847  1.00  0.00    -0.064 N
ATOM      4  H11 UNL     1      35.676  15.442 -21.607  1.00  0.00     0.277 HD
ATOM      5  H12 UNL     1      34.758  15.560 -22.829  1.00  0.00     0.277 HD
HETATM    6  C4  UNL     1      33.701  15.264 -21.101  1.00  0.00     0.242 C
HETATM    7  C5  UNL     1      33.498  13.771 -21.314  1.00  0.00     0.204 C
HETATM    8  O2  UNL     1      34.424  13.546 -20.317  1.00  0.00    -0.377 OA
HETATM    9  C6  UNL     1      34.037  14.779 -19.743  1.00  0.00     0.204 C
HETATM   10  C7  UNL     1      35.101  15.501 -19.017  1.00  0.00     0.274 C
HETATM   11  O3  UNL     1      35.562  16.653 -19.588  1.00  0.00    -0.353 OA
ENDROOT
BRANCH  10  12
HETATM   12  N2  UNL     1      34.701  15.748 -17.639  1.00  0.00    -0.272 N
HETATM   13  C8  UNL     1      33.774  15.139 -16.888  1.00  0.00     0.114 A
HETATM   14  C9  UNL     1      33.753  15.722 -15.640  1.00  0.00     0.037 A
HETATM   15  C10 UNL     1      34.713  16.710 -15.681  1.00  0.00     0.108 A
HETATM   16  N3  UNL     1      35.257  16.691 -16.899  1.00  0.00    -0.308 N
ATOM     17  H3  UNL     1      35.999  17.316 -17.214  1.00  0.00     0.186 HD
ENDBRANCH  10  12
BRANCH   1  18
HETATM   18  C1  UNL     1      35.010  18.915 -19.879  1.00  0.00     0.197 C
BRANCH  18  19
HETATM   19  O1  UNL     1      35.455  19.069 -18.582  1.00  0.00    -0.398 OA
ATOM     20  H1  UNL     1      35.352  18.260 -18.094  1.00  0.00     0.209 HD
ENDBRANCH  18  19
ENDBRANCH   1  18
TORSDOF 3
ENDMDL