MODEL 1
REMARK VINA RESULT: -5.034443554      0.000      0.000
REMARK  6 active torsions:
REMARK  status: ('A' for Active; 'I' for Inactive)
REMARK    1  A    between atoms: N1_1  and  N2_4
REMARK    2  A    between atoms: N2_4  and  N3_5
REMARK    3  A    between atoms: N3_5  and  C1_7
REMARK    4  A    between atoms: C2_8  and  C3_9
REMARK    5  A    between atoms: C3_9  and  O1_10
REMARK    6  A    between atoms: C7_18  and  O5_19
ROOT
HETATM    1  C1  UNL     1      34.743  15.673 -17.329  1.00  0.00     0.182 C
HETATM    2  C2  UNL     1      33.965  14.567 -18.006  1.00  0.00     0.179 C
HETATM    3  O2  UNL     1      34.344  14.584 -19.335  1.00  0.00    -0.321 OA
HETATM    4  C4  UNL     1      35.009  15.746 -19.599  1.00  0.00     0.312 C
HETATM    5  O3  UNL     1      36.369  15.488 -19.685  1.00  0.00    -0.329 OA
HETATM    6  C5  UNL     1      36.511  14.957 -20.965  1.00  0.00     0.200 C
HETATM    7  C6  UNL     1      35.246  15.356 -21.703  1.00  0.00     0.200 C
HETATM    8  O4  UNL     1      34.720  16.315 -20.825  1.00  0.00    -0.329 OA
HETATM    9  C7  UNL     1      34.724  16.698 -18.444  1.00  0.00     0.239 C
ENDROOT
BRANCH   1  10
HETATM   10  N3  UNL     1      34.133  16.136 -16.123  1.00  0.00    -0.242 N
ATOM     11  H3  UNL     1      33.332  15.653 -15.714  1.00  0.00     0.197 HD
BRANCH  10  12
HETATM   12  N2  UNL     1      34.619  17.153 -15.590  1.00  0.00    -0.248 NA
BRANCH  12  13
HETATM   13  N1  UNL     1      35.148  18.161 -15.124  1.00  0.00    -0.261 N
ATOM     14  H12 UNL     1      35.478  18.094 -16.087  1.00  0.00     0.193 HD
ATOM     15  H11 UNL     1      35.557  18.985 -14.683  1.00  0.00     0.193 HD
ENDBRANCH  12  13
ENDBRANCH  10  12
ENDBRANCH   1  10
BRANCH   2  16
HETATM   16  C3  UNL     1      32.462  14.850 -17.958  1.00  0.00     0.198 C
BRANCH  16  17
HETATM   17  O1  UNL     1      31.917  14.505 -19.208  1.00  0.00    -0.398 OA
ATOM     18  H1  UNL     1      31.047  14.885 -19.262  1.00  0.00     0.209 HD
ENDBRANCH  16  17
ENDBRANCH   2  16
BRANCH   9  19
HETATM   19  O5  UNL     1      35.739  17.636 -18.313  1.00  0.00    -0.385 OA
ATOM     20  H5  UNL     1      35.593  18.402 -18.856  1.00  0.00     0.210 HD
ENDBRANCH   9  19
TORSDOF 6
ENDMDL