MODEL 2
REMARK VINA RESULT: -5.012011970      2.903      4.428
REMARK  5 active torsions:
REMARK  status: ('A' for Active; 'I' for Inactive)
REMARK    1  A    between atoms: N1_1  and  N2_4
REMARK    2  A    between atoms: N3_6  and  C1_8
REMARK    3  A    between atoms: C2_10  and  C3_11
REMARK    4  A    between atoms: C3_11  and  O2_12
REMARK    5  A    between atoms: C7_19  and  O5_20
ROOT
HETATM    1  C1  UNL     1      34.917  16.456 -21.061  1.00  0.00     0.292 C
HETATM    2  O1  UNL     1      35.109  17.376 -20.066  1.00  0.00    -0.350 OA
HETATM    3  C2  UNL     1      34.655  16.934 -18.813  1.00  0.00     0.179 C
HETATM    4  C4  UNL     1      35.182  15.577 -18.466  1.00  0.00     0.186 C
HETATM    5  O3  UNL     1      36.031  15.100 -19.483  1.00  0.00    -0.346 OA
HETATM    6  C5  UNL     1      35.315  15.052 -20.676  1.00  0.00     0.310 C
HETATM    7  O4  UNL     1      34.214  14.198 -20.601  1.00  0.00    -0.354 OA
HETATM    8  C6  UNL     1      34.305  13.507 -19.397  1.00  0.00     0.205 C
HETATM    9  C7  UNL     1      34.109  14.540 -18.281  1.00  0.00     0.173 C
ENDROOT
BRANCH   1  10
HETATM   10  N3  UNL     1      33.554  16.445 -21.567  1.00  0.00    -0.289 N
HETATM   11  N2  UNL     1      33.442  16.426 -22.805  1.00  0.00    -0.251 N
ATOM     12  H2  UNL     1      34.286  15.930 -23.093  1.00  0.00     0.207 HD
ATOM     13  H3  UNL     1      32.744  16.452 -20.948  1.00  0.00     0.184 HD
BRANCH  11  14
HETATM   14  N1  UNL     1      32.894  16.664 -23.885  1.00  0.00    -0.331 N
ATOM     15  H12 UNL     1      33.337  15.952 -24.465  1.00  0.00     0.178 HD
ATOM     16  H11 UNL     1      32.261  17.160 -24.513  1.00  0.00     0.178 HD
ENDBRANCH  11  14
ENDBRANCH   1  10
BRANCH   3  17
HETATM   17  C3  UNL     1      35.165  17.992 -17.824  1.00  0.00     0.198 C
BRANCH  17  18
HETATM   18  O2  UNL     1      35.546  19.149 -18.455  1.00  0.00    -0.398 OA
ATOM     19  H2  UNL     1      35.025  19.322 -19.231  1.00  0.00     0.209 HD
ENDBRANCH  17  18
ENDBRANCH   3  17
BRANCH   9  20
HETATM   20  O5  UNL     1      32.831  15.025 -18.394  1.00  0.00    -0.391 OA
ATOM     21  H5  UNL     1      32.618  15.365 -19.255  1.00  0.00     0.210 HD
ENDBRANCH   9  20
TORSDOF 5
ENDMDL