MODEL 4
REMARK VINA RESULT: -5.072969486      2.080      4.741
REMARK  3 active torsions:
REMARK  status: ('A' for Active; 'I' for Inactive)
REMARK    1  A    between atoms: O1_2  and  C2_3
REMARK    2  A    between atoms: C8_12  and  O5_13
REMARK    3  A    between atoms: C9_15  and  O6_16
ROOT
HETATM    1  C2  UNL     1      34.715  14.563 -18.939  1.00  0.00     0.293 C
HETATM    2  O2  UNL     1      33.809  13.778 -19.690  1.00  0.00    -0.326 OA
HETATM    3  C3  UNL     1      33.212  14.618 -20.583  1.00  0.00     0.298 C
HETATM    4  O3  UNL     1      32.254  14.074 -21.393  1.00  0.00    -0.323 OA
HETATM    5  C4  UNL     1      32.229  14.926 -22.520  1.00  0.00     0.160 C
HETATM    6  C5  UNL     1      31.100  15.904 -22.283  1.00  0.00     0.078 C
HETATM    7  C6  UNL     1      32.049  14.112 -23.761  1.00  0.00     0.078 C
HETATM    8  O4  UNL     1      33.464  15.550 -22.583  1.00  0.00    -0.343 OA
HETATM    9  C7  UNL     1      34.275  14.965 -21.642  1.00  0.00     0.211 C
HETATM   10  C8  UNL     1      35.250  15.870 -20.972  1.00  0.00     0.185 C
HETATM   11  C9  UNL     1      35.858  15.062 -19.815  1.00  0.00     0.204 C
ENDROOT
BRANCH   1  12
HETATM   12  O1  UNL     1      34.014  15.684 -18.523  1.00  0.00    -0.363 OA
HETATM   13  C1  UNL     1      33.732  15.675 -17.172  1.00  0.00     0.204 C
ENDBRANCH   1  12
BRANCH  11  14
HETATM   14  O6  UNL     1      36.681  15.826 -19.027  1.00  0.00    -0.388 OA
ATOM     15  H6  UNL     1      36.907  15.309 -18.262  1.00  0.00     0.210 HD
ENDBRANCH  11  14
BRANCH  10  16
HETATM   16  O5  UNL     1      34.595  16.993 -20.513  1.00  0.00    -0.390 OA
ATOM     17  H5  UNL     1      33.771  17.091 -20.976  1.00  0.00     0.210 HD
ENDBRANCH  10  16
TORSDOF 3
ENDMDL