MODEL 5
REMARK VINA RESULT: -5.151959714      2.144      4.127
REMARK  3 active torsions:
REMARK  status: ('A' for Active; 'I' for Inactive)
REMARK    1  A    between atoms: O1_2  and  C2_3
REMARK    2  A    between atoms: C8_12  and  O4_13
REMARK    3  A    between atoms: C9_15  and  O5_17
ROOT
HETATM    1  C2  UNL     1      33.271  14.679 -20.298  1.00  0.00     0.161 C
HETATM    2  C3  UNL     1      34.545  15.454 -20.110  1.00  0.00     0.057 C
HETATM    3  C4  UNL     1      35.699  14.628 -20.661  1.00  0.00     0.129 C
HETATM    4  C5  UNL     1      36.872  14.812 -19.808  1.00  0.00     0.067 C
HETATM    5  N1  UNL     1      37.775  14.966 -19.132  1.00  0.00    -0.197 NA
HETATM    6  C6  UNL     1      35.991  14.961 -22.099  1.00  0.00     0.197 C
HETATM    7  O2  UNL     1      34.838  15.631 -22.574  1.00  0.00    -0.346 OA
HETATM    8  C7  UNL     1      33.912  14.631 -22.726  1.00  0.00     0.300 C
HETATM    9  O3  UNL     1      34.531  13.416 -22.701  1.00  0.00    -0.326 OA
HETATM   10  C8  UNL     1      35.866  13.714 -22.989  1.00  0.00     0.290 C
HETATM   11  C9  UNL     1      32.815  14.799 -21.712  1.00  0.00     0.130 C
HETATM   12  C10 UNL     1      31.686  13.817 -22.021  1.00  0.00     0.054 C
ENDROOT
BRANCH   1  13
HETATM   13  O1  UNL     1      32.268  14.992 -19.449  1.00  0.00    -0.387 OA
HETATM   14  C1  UNL     1      32.426  14.614 -18.138  1.00  0.00     0.202 C
ENDBRANCH   1  13
BRANCH  10  15
HETATM   15  O4  UNL     1      36.739  12.730 -22.645  1.00  0.00    -0.368 OA
ATOM     16  H4  UNL     1      37.473  12.661 -23.244  1.00  0.00     0.212 HD
ENDBRANCH  10  15
BRANCH  11  17
HETATM   17  O5  UNL     1      32.285  16.081 -21.905  1.00  0.00    -0.383 OA
ATOM     18  H5  UNL     1      32.520  16.380 -22.776  1.00  0.00     0.210 HD
ENDBRANCH  11  17
TORSDOF 3
ENDMDL