MODEL 1
REMARK VINA RESULT: -7.282152387      0.000      0.000
REMARK  16 active torsions:
REMARK  status: ('A' for Active; 'I' for Inactive)
REMARK    1  A    between atoms: N1_1  and  C1_5
REMARK    2  A    between atoms: C1_5  and  C2_6
REMARK    3  A    between atoms: C3_10  and  C4_11
REMARK    4  A    between atoms: C6_16  and  N4_17
REMARK    5  A    between atoms: N4_17  and  C7_19
REMARK    6  A    between atoms: C8_22  and  N7_23
REMARK    7  A    between atoms: C9_30  and  C10_31
REMARK    8  A    between atoms: C10_31  and  O3_32
REMARK    9  A    between atoms: C10_31  and  C11_34
REMARK   10  A    between atoms: C11_34  and  O4_35
REMARK   11  A    between atoms: C11_34  and  C12_37
REMARK   12  A    between atoms: C12_37  and  O5_38
REMARK   13  A    between atoms: C12_37  and  C13_40
REMARK   14  A    between atoms: C13_40  and  O6_41
REMARK   15  A    between atoms: N11_49  and  O7_51
REMARK   16  A    between atoms: N12_54  and  O8_56
ROOT
HETATM    1  C4  UNL     1       2.073   1.350  37.800  1.00  0.00     0.155 A
HETATM    2  O1  UNL     1       2.076   0.474  38.792  1.00  0.00    -0.235 OA
HETATM    3  N3  UNL     1       2.931  -0.468  38.601  1.00  0.00    -0.255 N
ATOM      4  H3  UNL     1       3.107  -1.251  39.231  1.00  0.00     0.195 HD
HETATM    5  C5  UNL     1       3.548  -0.247  37.440  1.00  0.00     0.128 A
HETATM    6  C6  UNL     1       4.534  -0.921  36.751  1.00  0.00     0.137 A
HETATM    7  N8  UNL     1       4.933  -0.407  35.575  1.00  0.00    -0.328 N
ATOM      8  H8  UNL     1       5.661  -0.888  35.047  1.00  0.00     0.169 HD
HETATM    9  C9  UNL     1       4.400   0.728  35.071  1.00  0.00     0.115 A
HETATM   10  N9  UNL     1       3.440   1.393  35.734  1.00  0.00    -0.340 N
ATOM     11  H9  UNL     1       3.043   2.249  35.347  1.00  0.00     0.167 HD
HETATM   12  C14 UNL     1       3.016   0.921  36.899  1.00  0.00     0.102 A
ENDROOT
BRANCH   1  13
HETATM   13  C3  UNL     1       1.175   2.506  37.812  1.00  0.00     0.349 C
HETATM   14  N2  UNL     1       1.971   3.709  37.653  1.00  0.00    -0.036 N
HETATM   15  C2  UNL     1       1.217   4.914  37.585  1.00  0.00     0.269 C
ATOM     16  H22 UNL     1       2.580   3.625  36.839  1.00  0.00     0.281 HD
ATOM     17  H21 UNL     1       2.672   3.771  38.391  1.00  0.00     0.281 HD
HETATM   18  C16 UNL     1      -0.241   4.768  37.639  1.00  0.00     0.109 C
HETATM   19  C15 UNL     1      -0.830   3.579  37.007  1.00  0.00     0.149 C
HETATM   20  N12 UNL     1      -1.016   5.647  38.220  1.00  0.00    -0.267 N
HETATM   21  N10 UNL     1       0.074   2.454  36.902  1.00  0.00    -0.340 N
HETATM   22  N11 UNL     1      -2.033   3.557  36.594  1.00  0.00    -0.251 N
ATOM     23  H10 UNL     1      -0.062   1.692  36.238  1.00  0.00     0.163 HD
ATOM     24  H11 UNL     1      -2.421   2.720  36.158  1.00  0.00     0.196 HD
ATOM     25  H12 UNL     1      -2.029   5.531  38.249  1.00  0.00     0.194 HD
BRANCH  15  26
HETATM   26  C1  UNL     1       1.572   5.588  36.258  1.00  0.00     0.269 C
BRANCH  26  27
HETATM   27  N1  UNL     1       2.917   5.328  35.847  1.00  0.00    -0.077 N
ATOM     28  H13 UNL     1       3.441   6.197  35.739  1.00  0.00     0.274 HD
ATOM     29  H12 UNL     1       3.455   4.904  36.603  1.00  0.00     0.274 HD
ATOM     30  H11 UNL     1       2.969   4.762  35.000  1.00  0.00     0.274 HD
ENDBRANCH  26  27
ENDBRANCH  15  26
BRANCH  22  31
HETATM   31  O7  UNL     1      -2.796   4.685  36.747  1.00  0.00    -0.288 OA
ATOM     32  H7  UNL     1      -3.647   4.717  36.326  1.00  0.00     0.244 HD
ENDBRANCH  22  31
BRANCH  20  33
HETATM   33  O8  UNL     1      -0.398   6.731  38.789  1.00  0.00    -0.290 OA
ATOM     34  H8  UNL     1      -0.868   7.172  39.487  1.00  0.00     0.244 HD
ENDBRANCH  20  33
ENDBRANCH   1  13
BRANCH   6  35
HETATM   35  N4  UNL     1       5.117  -2.134  37.270  1.00  0.00    -0.334 N
ATOM     36  H4  UNL     1       4.599  -3.009  37.181  1.00  0.00     0.165 HD
BRANCH  35  37
HETATM   37  C7  UNL     1       6.399  -2.150  37.906  1.00  0.00     0.341 C
HETATM   38  N5  UNL     1       7.189  -1.057  37.409  1.00  0.00    -0.091 NA
HETATM   39  N6  UNL     1       7.856  -1.511  36.287  1.00  0.00    -0.084 NA
HETATM   40  C8  UNL     1       7.827  -2.938  36.388  1.00  0.00     0.434 C
HETATM   41  O2  UNL     1       7.154  -3.268  37.561  1.00  0.00    -0.305 OA
BRANCH  40  42
HETATM   42  N7  UNL     1       9.174  -3.458  36.471  1.00  0.00    -0.037 N
ATOM     43  H73 UNL     1       9.591  -3.584  35.549  1.00  0.00     0.279 HD
ATOM     44  H72 UNL     1       9.828  -2.767  36.839  1.00  0.00     0.279 HD
ATOM     45  H71 UNL     1       9.184  -4.321  37.015  1.00  0.00     0.279 HD
ENDBRANCH  40  42
ENDBRANCH  35  37
ENDBRANCH   6  35
BRANCH   9  46
HETATM   46  C10 UNL     1       4.852   1.292  33.761  1.00  0.00     0.217 C
BRANCH  46  47
HETATM   47  O3  UNL     1       3.845   2.015  33.148  1.00  0.00    -0.385 OA
ATOM     48  H3  UNL     1       4.083   2.259  32.261  1.00  0.00     0.210 HD
ENDBRANCH  46  47
BRANCH  46  49
HETATM   49  C11 UNL     1       6.023   2.176  34.036  1.00  0.00     0.185 C
BRANCH  49  50
HETATM   50  O4  UNL     1       5.636   3.516  34.099  1.00  0.00    -0.390 OA
ATOM     51  H4  UNL     1       5.652   3.916  33.238  1.00  0.00     0.210 HD
ENDBRANCH  49  50
BRANCH  49  52
HETATM   52  C12 UNL     1       7.156   2.054  33.072  1.00  0.00     0.173 C
BRANCH  52  53
HETATM   53  O5  UNL     1       7.906   3.196  32.917  1.00  0.00    -0.391 OA
ATOM     54  H5  UNL     1       7.578   3.802  32.262  1.00  0.00     0.210 HD
ENDBRANCH  52  53
BRANCH  52  55
HETATM   55  C13 UNL     1       8.021   0.824  33.315  1.00  0.00     0.198 C
BRANCH  55  56
HETATM   56  O6  UNL     1       9.371   1.201  33.155  1.00  0.00    -0.398 OA
ATOM     57  H6  UNL     1       9.600   1.783  33.870  1.00  0.00     0.209 HD
ENDBRANCH  55  56
ENDBRANCH  52  55
ENDBRANCH  49  52
ENDBRANCH  46  49
ENDBRANCH   9  46
TORSDOF 16
ENDMDL