MODEL 2
REMARK VINA RESULT: -7.117977055      2.085      2.468
REMARK  13 active torsions:
REMARK  status: ('A' for Active; 'I' for Inactive)
REMARK    1  A    between atoms: N1_1  and  C1_4
REMARK    2  A    between atoms: C2_7  and  N3_8
REMARK    3  A    between atoms: N4_11  and  O1_12
REMARK    4  A    between atoms: N7_21  and  C7_22
REMARK    5  A    between atoms: C8_25  and  C9_26
REMARK    6  A    between atoms: C9_26  and  N9_27
REMARK    7  A    between atoms: N9_27  and  O3_28
REMARK    8  A    between atoms: O3_28  and  C10_29
REMARK    9  A    between atoms: C10_29  and  C11_30
REMARK   10  A    between atoms: C11_30  and  O4_31
REMARK   11  A    between atoms: C11_30  and  N10_33
REMARK       I    between atoms: N10_33  and  C12_35
REMARK       I    between atoms: C12_35  and  N11_36
REMARK       I    between atoms: C12_35  and  N12_40
REMARK   12  A    between atoms: C13_44  and  O5_45
REMARK   13  A    between atoms: C14_47  and  O6_48
ROOT
HETATM    1  C7  UNL     1       0.685   4.732  37.051  1.00  0.00     0.286 C
HETATM    2  O2  UNL     1       0.700   5.699  36.056  1.00  0.00    -0.257 OA
HETATM    3  N8  UNL     1       1.149   5.069  34.906  1.00  0.00    -0.089 NA
HETATM    4  C8  UNL     1       2.514   4.759  35.092  1.00  0.00     0.154 C
HETATM    5  C13 UNL     1       2.836   3.927  36.300  1.00  0.00     0.174 C
HETATM    6  C14 UNL     1       2.118   4.507  37.516  1.00  0.00     0.199 C
ENDROOT
BRANCH   1   7
HETATM    7  N7  UNL     1      -0.208   4.998  38.121  1.00  0.00    -0.295 N
HETATM    8  C6  UNL     1      -0.155   5.937  39.101  1.00  0.00     0.188 A
HETATM    9  N6  UNL     1      -1.253   5.777  39.882  1.00  0.00    -0.347 N
HETATM   10  C5  UNL     1      -1.997   4.740  39.397  1.00  0.00     0.105 A
ATOM     11  H6  UNL     1      -1.486   6.341  40.699  1.00  0.00     0.167 HD
HETATM   12  C4  UNL     1      -3.187   4.172  39.798  1.00  0.00     0.109 A
HETATM   13  C15 UNL     1      -1.343   4.268  38.311  1.00  0.00     0.140 A
HETATM   14  C3  UNL     1      -3.740   3.107  39.092  1.00  0.00     0.138 A
HETATM   15  N5  UNL     1      -3.866   4.629  40.925  1.00  0.00    -0.097 NA
HETATM   16  N4  UNL     1      -4.882   2.548  39.416  1.00  0.00    -0.049 N
HETATM   17  C16 UNL     1      -3.036   2.653  37.990  1.00  0.00     0.110 A
HETATM   18  C2  UNL     1      -5.423   1.533  38.721  1.00  0.00     0.704 A
HETATM   19  N2  UNL     1      -4.789   1.033  37.627  1.00  0.00    -0.173 N
HETATM   20  C1  UNL     1      -3.606   1.607  37.286  1.00  0.00     0.144 A
ATOM     21  H2  UNL     1      -5.184   0.263  37.088  1.00  0.00     0.186 HD
HETATM   22  N13 UNL     1      -1.867   3.233  37.625  1.00  0.00    -0.335 N
ATOM     23  H13 UNL     1      -1.371   2.878  36.808  1.00  0.00     0.168 HD
BRANCH  16  24
HETATM   24  O1  UNL     1      -5.555   3.041  40.535  1.00  0.00    -0.269 OA
ATOM     25  H1  UNL     1      -5.931   2.427  41.156  1.00  0.00     0.245 HD
ENDBRANCH  16  24
BRANCH  18  26
HETATM   26  N3  UNL     1      -6.547   1.004  39.038  1.00  0.00    -0.232 N
ATOM     27  H32 UNL     1      -7.388   1.126  38.475  1.00  0.00     0.174 HD
ATOM     28  H31 UNL     1      -6.571   0.435  39.884  1.00  0.00     0.174 HD
ENDBRANCH  18  26
BRANCH  20  29
HETATM   29  N1  UNL     1      -2.948   1.193  36.259  1.00  0.00    -0.383 N
ATOM     30  H12 UNL     1      -2.804   1.875  35.514  1.00  0.00     0.157 HD
ATOM     31  H11 UNL     1      -2.603   0.234  36.215  1.00  0.00     0.157 HD
ENDBRANCH  20  29
ENDBRANCH   1   7
BRANCH   6  32
HETATM   32  O6  UNL     1       2.105   3.535  38.496  1.00  0.00    -0.388 OA
ATOM     33  H6  UNL     1       2.076   3.967  39.341  1.00  0.00     0.210 HD
ENDBRANCH   6  32
BRANCH   5  34
HETATM   34  O5  UNL     1       2.551   2.594  36.085  1.00  0.00    -0.391 OA
ATOM     35  H5  UNL     1       2.774   2.064  36.842  1.00  0.00     0.210 HD
ENDBRANCH   5  34
BRANCH   4  36
HETATM   36  C9  UNL     1       3.178   4.279  33.831  1.00  0.00     0.168 C
BRANCH  36  37
HETATM   37  N9  UNL     1       4.601   3.971  34.187  1.00  0.00    -0.099 NA
BRANCH  37  38
HETATM   38  O3  UNL     1       4.836   2.789  33.894  1.00  0.00    -0.282 OA
BRANCH  38  39
HETATM   39  C10 UNL     1       5.783   1.895  34.039  1.00  0.00     0.248 C
BRANCH  39  40
HETATM   40  C11 UNL     1       6.768   2.162  32.864  1.00  0.00     0.242 C
BRANCH  40  41
HETATM   41  O4  UNL     1       7.660   3.166  33.262  1.00  0.00    -0.375 OA
ATOM     42  H4  UNL     1       7.498   3.359  34.178  1.00  0.00     0.212 HD
ENDBRANCH  40  41
BRANCH  40  43
HETATM   43  N10 UNL     1       7.335   1.014  32.374  1.00  0.00    -0.347 N
HETATM   44  C12 UNL     1       8.651   0.868  31.950  1.00  0.00     0.478 C
HETATM   45  N11 UNL     1       8.948   1.692  30.762  1.00  0.00    -0.033 N
HETATM   46  N12 UNL     1       9.721   0.941  32.892  1.00  0.00    -0.033 N
ATOM     47 3H11 UNL     1       8.292   1.498  30.005  1.00  0.00     0.278 HD
ATOM     48 2H11 UNL     1       8.720   2.672  30.927  1.00  0.00     0.278 HD
ATOM     49 1H11 UNL     1       9.913   1.584  30.451  1.00  0.00     0.278 HD
ATOM     50 3H12 UNL     1       9.643   1.822  33.399  1.00  0.00     0.278 HD
ATOM     51 2H12 UNL     1       9.544   0.262  33.632  1.00  0.00     0.278 HD
ATOM     52 1H12 UNL     1      10.687   0.833  32.580  1.00  0.00     0.278 HD
ATOM     53  H10 UNL     1       6.735   0.191  32.315  1.00  0.00     0.159 HD
ENDBRANCH  40  43
ENDBRANCH  39  40
ENDBRANCH  38  39
ENDBRANCH  37  38
ENDBRANCH  36  37
ENDBRANCH   4  36
TORSDOF 13
ENDMDL