MODEL 1
REMARK VINA RESULT: -6.490543469      0.000      0.000
REMARK  18 active torsions:
REMARK  status: ('A' for Active; 'I' for Inactive)
REMARK    1  A    between atoms: N1_1  and  C1_4
REMARK    2  A    between atoms: C3_9  and  N4_10
REMARK    3  A    between atoms: N4_10  and  C4_12
REMARK    4  A    between atoms: C4_12  and  N5_13
REMARK    5  A    between atoms: C4_12  and  O1_17
REMARK    6  A    between atoms: C5_19  and  O2_20
REMARK    7  A    between atoms: N6_25  and  C8_26
REMARK    8  A    between atoms: C9_28  and  O4_29
REMARK    9  A    between atoms: C9_28  and  C10_31
REMARK   10  A    between atoms: C10_31  and  O5_32
REMARK   11  A    between atoms: C11_34  and  C12_35
REMARK   12  A    between atoms: C12_35  and  O6_36
REMARK   13  A    between atoms: O6_36  and  C13_37
REMARK   14  A    between atoms: C13_37  and  O7_38
REMARK   15  A    between atoms: C13_37  and  O8_40
REMARK   16  A    between atoms: C13_37  and  O9_42
REMARK   17  A    between atoms: C14_44  and  O10_45
REMARK   18  A    between atoms: C15_47  and  O11_48
ROOT
HETATM    1  C1  UNL     1       6.386  -1.006  36.261  1.00  0.00     0.121 C
HETATM    2  N2  UNL     1       7.277  -1.195  35.301  1.00  0.00    -0.328 N
ATOM      3  H2  UNL     1       8.065  -1.798  35.536  1.00  0.00     0.168 HD
HETATM    4  C2  UNL     1       7.272  -0.690  34.047  1.00  0.00     0.147 C
HETATM    5  N3  UNL     1       8.164  -1.312  33.139  1.00  0.00    -0.080 NA
HETATM    6  C3  UNL     1       6.533   0.341  33.507  1.00  0.00     0.109 C
HETATM    7  C5  UNL     1       5.475   0.982  34.152  1.00  0.00     0.124 C
HETATM    8  C6  UNL     1       4.661   0.514  35.203  1.00  0.00     0.101 A
HETATM    9  C7  UNL     1       5.133  -0.391  36.135  1.00  0.00     0.095 A
HETATM   10  S1  UNL     1       3.614  -0.294  36.823  1.00  0.00    -0.003 SA
HETATM   11  N6  UNL     1       3.389   0.771  35.548  1.00  0.00    -0.282 N
ENDROOT
BRANCH  11  12
HETATM   12  C8  UNL     1       2.263   1.586  35.075  1.00  0.00     0.270 C
HETATM   13  O3  UNL     1       2.747   2.810  34.659  1.00  0.00    -0.324 OA
HETATM   14  C9  UNL     1       2.699   3.813  35.598  1.00  0.00     0.193 C
HETATM   15  C11 UNL     1       1.274   4.187  35.974  1.00  0.00     0.106 C
HETATM   16  C14 UNL     1       0.396   2.972  35.802  1.00  0.00     0.162 C
HETATM   17  C15 UNL     1       1.156   1.688  36.080  1.00  0.00     0.197 C
BRANCH  14  18
HETATM   18  O4  UNL     1       3.503   3.621  36.694  1.00  0.00    -0.363 OA
ATOM     19  H4  UNL     1       3.065   3.262  37.456  1.00  0.00     0.213 HD
ENDBRANCH  14  18
BRANCH  14  20
HETATM   20  C10 UNL     1       3.271   5.047  34.893  1.00  0.00     0.233 C
BRANCH  20  21
HETATM   21  O5  UNL     1       3.981   4.626  33.761  1.00  0.00    -0.396 OA
ATOM     22  H5  UNL     1       4.649   5.272  33.566  1.00  0.00     0.209 HD
ENDBRANCH  20  21
ENDBRANCH  14  20
BRANCH  15  23
HETATM   23  C12 UNL     1       1.202   4.748  37.379  1.00  0.00     0.189 C
BRANCH  23  24
HETATM   24  O6  UNL     1       0.241   5.757  37.377  1.00  0.00    -0.308 OA
BRANCH  24  25
HETATM   25  C13 UNL     1      -0.615   5.693  38.461  1.00  0.00     0.409 C
BRANCH  25  26
HETATM   26  O7  UNL     1      -0.340   4.499  39.131  1.00  0.00    -0.319 OA
ATOM     27  H7  UNL     1      -0.380   4.685  40.062  1.00  0.00     0.218 HD
ENDBRANCH  25  26
BRANCH  25  28
HETATM   28  O8  UNL     1      -0.505   6.749  39.333  1.00  0.00    -0.319 OA
ATOM     29  H8  UNL     1      -0.760   6.547  40.226  1.00  0.00     0.218 HD
ENDBRANCH  25  28
BRANCH  25  30
HETATM   30  O9  UNL     1      -1.940   5.610  37.997  1.00  0.00    -0.319 OA
ATOM     31  H9  UNL     1      -2.317   4.783  38.276  1.00  0.00     0.218 HD
ENDBRANCH  25  30
ENDBRANCH  24  25
ENDBRANCH  23  24
ENDBRANCH  15  23
BRANCH  16  32
HETATM   32  O10 UNL     1      -0.780   3.051  36.536  1.00  0.00    -0.392 OA
ATOM     33  H10 UNL     1      -1.332   2.285  36.430  1.00  0.00     0.210 HD
ENDBRANCH  16  32
BRANCH  17  34
HETATM   34  O11 UNL     1       1.572   1.585  37.386  1.00  0.00    -0.389 OA
ATOM     35  H11 UNL     1       0.864   1.571  38.020  1.00  0.00     0.210 HD
ENDBRANCH  17  34
ENDBRANCH  11  12
BRANCH   7  36
HETATM   36  O2  UNL     1       5.245   2.248  33.645  1.00  0.00    -0.356 OA
ATOM     37  H2  UNL     1       5.021   2.872  34.326  1.00  0.00     0.218 HD
ENDBRANCH   7  36
BRANCH   6  38
HETATM   38  N4  UNL     1       6.877   0.788  32.183  1.00  0.00    -0.337 N
ATOM     39  H4  UNL     1       6.378   0.383  31.391  1.00  0.00     0.164 HD
BRANCH  38  40
HETATM   40  C4  UNL     1       7.878   1.764  31.920  1.00  0.00     0.424 C
BRANCH  40  41
HETATM   41  N5  UNL     1       9.144   1.101  31.680  1.00  0.00    -0.035 N
ATOM     42  H53 UNL     1       9.504   0.643  32.517  1.00  0.00     0.279 HD
ATOM     43  H52 UNL     1       9.041   0.274  31.093  1.00  0.00     0.279 HD
ATOM     44  H51 UNL     1       9.807   1.771  31.291  1.00  0.00     0.279 HD
ENDBRANCH  40  41
BRANCH  40  45
HETATM   45  O1  UNL     1       8.072   2.599  33.038  1.00  0.00    -0.355 OA
ATOM     46  H1  UNL     1       8.903   2.415  33.459  1.00  0.00     0.213 HD
ENDBRANCH  40  45
ENDBRANCH  38  40
ENDBRANCH   6  38
BRANCH   1  47
HETATM   47  N1  UNL     1       6.655  -1.416  37.454  1.00  0.00    -0.384 N
ATOM     48  H12 UNL     1       6.934  -2.395  37.506  1.00  0.00     0.157 HD
ATOM     49  H11 UNL     1       6.575  -0.762  38.233  1.00  0.00     0.157 HD
ENDBRANCH   1  47
TORSDOF 18
ENDMDL