MODEL 1
REMARK VINA RESULT: -7.076449213      0.000      0.000
REMARK  19 active torsions:
REMARK  status: ('A' for Active; 'I' for Inactive)
REMARK    1  A    between atoms: C2_3  and  O1_4
REMARK    2  A    between atoms: C3_8  and  O2_9
REMARK    3  A    between atoms: O2_9  and  C4_10
REMARK    4  A    between atoms: C5_11  and  C6_12
REMARK    5  A    between atoms: C6_12  and  O3_13
REMARK    6  A    between atoms: C8_17  and  O5_18
REMARK    7  A    between atoms: C8_17  and  C9_20
REMARK    8  A    between atoms: C9_20  and  O6_21
REMARK    9  A    between atoms: C9_20  and  C10_23
REMARK   10  A    between atoms: C11_24  and  O7_25
REMARK   11  A    between atoms: C12_27  and  O8_28
REMARK   12  A    between atoms: C13_30  and  O9_31
REMARK   13  A    between atoms: C14_33  and  O10_34
REMARK   14  A    between atoms: C15_38  and  O11_39
REMARK   15  A    between atoms: C16_41  and  C17_42
REMARK   16  A    between atoms: C17_42  and  N4_43
REMARK   17  A    between atoms: N4_43  and  O12_44
REMARK   18  A    between atoms: N4_43  and  C18_46
REMARK   19  A    between atoms: C18_46  and  O13_47
ROOT
HETATM    1  C4  UNL     1       1.023   5.042  38.471  1.00  0.00     0.161 C
HETATM    2  C5  UNL     1       1.331   4.496  39.638  1.00  0.00     0.067 C
HETATM    3  C7  UNL     1       0.081   4.170  40.353  1.00  0.00     0.219 C
HETATM    4  O4  UNL     1      -0.092   3.969  41.573  1.00  0.00    -0.287 OA
HETATM    5  C8  UNL     1      -0.965   4.130  39.269  1.00  0.00     0.227 C
HETATM    6  N3  UNL     1      -0.412   5.105  38.357  1.00  0.00    -0.330 N
ATOM      7  H3  UNL     1      -0.941   5.725  37.744  1.00  0.00     0.165 HD
ENDROOT
BRANCH   1   8
HETATM    8  O2  UNL     1       1.879   5.496  37.485  1.00  0.00    -0.274 OA
BRANCH   8   9
HETATM    9  C3  UNL     1       2.305   4.692  36.430  1.00  0.00     0.186 A
HETATM   10  N2  UNL     1       3.461   4.109  36.349  1.00  0.00    -0.313 N
HETATM   11  C2  UNL     1       3.811   3.348  35.308  1.00  0.00     0.167 A
ATOM     12  H2  UNL     1       4.129   4.237  37.109  1.00  0.00     0.170 HD
HETATM   13  C1  UNL     1       2.929   3.163  34.278  1.00  0.00     0.111 A
HETATM   14  N1  UNL     1       3.274   2.356  33.161  1.00  0.00    -0.097 NA
HETATM   15  C16 UNL     1       1.641   3.765  34.286  1.00  0.00     0.043 A
HETATM   16  C15 UNL     1       1.350   4.533  35.381  1.00  0.00     0.131 A
BRANCH  11  17
HETATM   17  O1  UNL     1       5.076   2.727  35.248  1.00  0.00    -0.345 OA
ATOM     18  H1  UNL     1       5.730   3.066  34.646  1.00  0.00     0.219 HD
ENDBRANCH  11  17
BRANCH  15  19
HETATM   19  C17 UNL     1       0.819   3.499  33.098  1.00  0.00     0.108 C
BRANCH  19  20
HETATM   20  N4  UNL     1      -0.456   2.936  33.213  1.00  0.00    -0.151 NA
BRANCH  20  21
HETATM   21  O12 UNL     1      -1.414   3.910  33.407  1.00  0.00    -0.307 OA
ATOM     22  H12 UNL     1      -2.290   3.548  33.337  1.00  0.00     0.237 HD
ENDBRANCH  20  21
BRANCH  20  23
HETATM   23  C18 UNL     1      -0.547   2.042  34.347  1.00  0.00     0.289 C
BRANCH  23  24
HETATM   24  O13 UNL     1      -1.464   2.497  35.289  1.00  0.00    -0.384 OA
ATOM     25  H13 UNL     1      -1.309   3.406  35.520  1.00  0.00     0.211 HD
ENDBRANCH  23  24
ENDBRANCH  20  23
ENDBRANCH  19  20
ENDBRANCH  15  19
BRANCH  16  26
HETATM   26  O11 UNL     1       0.172   5.178  35.526  1.00  0.00    -0.356 OA
ATOM     27  H11 UNL     1      -0.601   4.740  35.189  1.00  0.00     0.218 HD
ENDBRANCH  16  26
ENDBRANCH   8   9
ENDBRANCH   1   8
BRANCH   2  28
HETATM   28  C6  UNL     1       2.685   4.228  40.195  1.00  0.00     0.211 C
BRANCH  28  29
HETATM   29  O3  UNL     1       3.480   5.389  40.208  1.00  0.00    -0.396 OA
ATOM     30  H3  UNL     1       4.003   5.446  40.998  1.00  0.00     0.209 HD
ENDBRANCH  28  29
ENDBRANCH   2  28
BRANCH   5  31
HETATM   31  O5  UNL     1      -0.872   2.883  38.684  1.00  0.00    -0.362 OA
ATOM     32  H5  UNL     1      -0.602   3.028  37.785  1.00  0.00     0.213 HD
ENDBRANCH   5  31
BRANCH   5  33
HETATM   33  C9  UNL     1      -2.324   4.470  39.771  1.00  0.00     0.191 C
BRANCH  33  34
HETATM   34  O6  UNL     1      -2.929   5.314  38.844  1.00  0.00    -0.390 OA
ATOM     35  H6  UNL     1      -2.317   6.009  38.633  1.00  0.00     0.210 HD
ENDBRANCH  33  34
BRANCH  33  36
HETATM   36  C10 UNL     1      -3.136   3.219  39.884  1.00  0.00     0.082 C
HETATM   37  C11 UNL     1      -4.152   3.168  38.744  1.00  0.00     0.158 C
HETATM   38  C12 UNL     1      -5.031   2.021  39.200  1.00  0.00     0.178 C
HETATM   39  C13 UNL     1      -5.015   2.064  40.701  1.00  0.00     0.178 C
HETATM   40  C14 UNL     1      -4.012   3.159  41.088  1.00  0.00     0.158 C
BRANCH  37  41
HETATM   41  O7  UNL     1      -3.533   2.845  37.539  1.00  0.00    -0.392 OA
ATOM     42  H7  UNL     1      -3.444   3.612  36.987  1.00  0.00     0.210 HD
ENDBRANCH  37  41
BRANCH  38  43
HETATM   43  O8  UNL     1      -6.363   2.192  38.798  1.00  0.00    -0.390 OA
ATOM     44  H8  UNL     1      -6.896   1.434  39.006  1.00  0.00     0.210 HD
ENDBRANCH  38  43
BRANCH  39  45
HETATM   45  O9  UNL     1      -4.589   0.838  41.209  1.00  0.00    -0.390 OA
ATOM     46  H9  UNL     1      -5.339   0.281  41.386  1.00  0.00     0.210 HD
ENDBRANCH  39  45
BRANCH  40  47
HETATM   47  O10 UNL     1      -4.648   4.370  41.277  1.00  0.00    -0.392 OA
ATOM     48  H10 UNL     1      -5.459   4.245  41.755  1.00  0.00     0.210 HD
ENDBRANCH  40  47
ENDBRANCH  33  36
ENDBRANCH   5  33
TORSDOF 19
ENDMDL