MODEL 5
REMARK VINA RESULT: -6.957864910      3.363      8.021
REMARK  17 active torsions:
REMARK  status: ('A' for Active; 'I' for Inactive)
REMARK    1  A    between atoms: N1_1  and  C1_4
REMARK    2  A    between atoms: C2_7  and  O1_8
REMARK    3  A    between atoms: C3_10  and  N3_11
REMARK    4  A    between atoms: N3_11  and  C4_13
REMARK    5  A    between atoms: C4_13  and  C5_14
REMARK    6  A    between atoms: C4_13  and  C11_34
REMARK    7  A    between atoms: N6_19  and  C6_20
REMARK    8  A    between atoms: C8_22  and  O2_23
REMARK    9  A    between atoms: C8_22  and  O3_25
REMARK   10  A    between atoms: C9_27  and  C10_28
REMARK   11  A    between atoms: C10_28  and  O4_29
REMARK   12  A    between atoms: C11_34  and  N8_35
REMARK   13  A    between atoms: C11_34  and  C12_38
REMARK   14  A    between atoms: C11_34  and  C13_41
REMARK   15  A    between atoms: N8_35  and  O6_36
REMARK   16  A    between atoms: C13_41  and  O9_42
REMARK   17  A    between atoms: N9_44  and  O10_46
ROOT
HETATM    1  C4  UNL     1       0.507   2.972  37.193  1.00  0.00     0.199 C
ENDROOT
BRANCH   1   2
HETATM    2  N3  UNL     1       1.870   3.437  37.024  1.00  0.00    -0.367 N
ATOM      3  H3  UNL     1       2.165   4.216  37.613  1.00  0.00     0.161 HD
BRANCH   2   4
HETATM    4  C3  UNL     1       2.824   2.927  36.132  1.00  0.00     0.150 A
HETATM    5  C2  UNL     1       3.404   3.778  35.198  1.00  0.00     0.187 A
HETATM    6  N2  UNL     1       4.341   3.316  34.351  1.00  0.00    -0.168 N
HETATM    7  C1  UNL     1       4.748   2.035  34.371  1.00  0.00     0.680 A
ATOM      8  H2  UNL     1       4.754   3.957  33.673  1.00  0.00     0.186 HD
HETATM    9  N10 UNL     1       4.207   1.185  35.263  1.00  0.00    -0.154 N
HETATM   10  C14 UNL     1       3.251   1.624  36.141  1.00  0.00     0.290 A
ATOM     11  H10 UNL     1       4.509   0.211  35.287  1.00  0.00     0.187 HD
HETATM   12  O11 UNL     1       2.820   0.753  36.927  1.00  0.00    -0.265 OA
BRANCH   5  13
HETATM   13  O1  UNL     1       3.065   5.119  35.083  1.00  0.00    -0.344 OA
ATOM     14  H1  UNL     1       2.807   5.565  35.881  1.00  0.00     0.219 HD
ENDBRANCH   5  13
BRANCH   7  15
HETATM   15  N1  UNL     1       5.645   1.591  33.560  1.00  0.00    -0.234 N
ATOM     16  H12 UNL     1       6.476   2.158  33.391  1.00  0.00     0.174 HD
ATOM     17  H11 UNL     1       5.547   0.695  33.084  1.00  0.00     0.174 HD
ENDBRANCH   7  15
ENDBRANCH   2   4
ENDBRANCH   1   2
BRANCH   1  18
HETATM   18  C5  UNL     1       0.188   2.363  38.477  1.00  0.00     0.139 A
HETATM   19  N4  UNL     1      -0.412   1.202  38.746  1.00  0.00    -0.270 N
HETATM   20  N5  UNL     1      -0.528   1.049  40.046  1.00  0.00    -0.222 N
ATOM     21  H4  UNL     1      -0.733   0.532  38.047  1.00  0.00     0.190 HD
HETATM   22  N6  UNL     1      -0.012   2.100  40.668  1.00  0.00    -0.188 N
ATOM     23  H5  UNL     1      -0.951   0.244  40.507  1.00  0.00     0.210 HD
HETATM   24  N7  UNL     1       0.416   2.886  39.736  1.00  0.00    -0.266 N
ATOM     25  H7  UNL     1       0.869   3.784  39.908  1.00  0.00     0.190 HD
BRANCH  22  26
HETATM   26  C6  UNL     1       0.022   2.252  42.102  1.00  0.00     0.270 C
HETATM   27  C7  UNL     1      -0.721   3.497  42.536  1.00  0.00     0.128 C
HETATM   28  C8  UNL     1      -1.298   3.137  43.878  1.00  0.00     0.192 C
HETATM   29  C9  UNL     1      -0.913   1.689  44.022  1.00  0.00     0.209 C
HETATM   30  O5  UNL     1      -0.657   1.245  42.741  1.00  0.00    -0.350 OA
BRANCH  28  31
HETATM   31  O2  UNL     1      -2.676   3.333  43.946  1.00  0.00    -0.363 OA
ATOM     32  H2  UNL     1      -3.130   3.035  43.167  1.00  0.00     0.213 HD
ENDBRANCH  28  31
BRANCH  28  33
HETATM   33  O3  UNL     1      -0.736   3.892  44.911  1.00  0.00    -0.363 OA
ATOM     34  H3  UNL     1      -1.373   4.465  45.321  1.00  0.00     0.213 HD
ENDBRANCH  28  33
BRANCH  29  35
HETATM   35  C10 UNL     1      -2.067   0.953  44.667  1.00  0.00     0.201 C
BRANCH  35  36
HETATM   36  O4  UNL     1      -2.184   1.363  45.986  1.00  0.00    -0.398 OA
ATOM     37  H4  UNL     1      -2.919   1.961  46.061  1.00  0.00     0.209 HD
ENDBRANCH  35  36
ENDBRANCH  29  35
ENDBRANCH  22  26
ENDBRANCH   1  18
BRANCH   1  38
HETATM   38  C11 UNL     1      -0.396   4.107  36.762  1.00  0.00     0.236 C
BRANCH  38  39
HETATM   39  N8  UNL     1      -1.781   3.795  37.206  1.00  0.00    -0.070 NA
BRANCH  39  40
HETATM   40  O6  UNL     1      -2.632   4.671  36.667  1.00  0.00    -0.294 OA
ATOM     41  H6  UNL     1      -2.150   5.310  36.157  1.00  0.00     0.238 HD
ENDBRANCH  39  40
ENDBRANCH  38  39
BRANCH  38  42
HETATM   42  C12 UNL     1      -0.471   4.208  35.284  1.00  0.00     0.212 C
HETATM   43  O7  UNL     1      -1.216   3.392  34.620  1.00  0.00    -0.646 OA
HETATM   44  O8  UNL     1       0.191   5.114  34.494  1.00  0.00    -0.646 OA
ENDBRANCH  38  42
BRANCH  38  45
HETATM   45  C13 UNL     1      -0.101   5.412  37.350  1.00  0.00     0.176 C
HETATM   46  N9  UNL     1      -0.737   5.869  38.350  1.00  0.00    -0.249 N
ATOM     47  H9  UNL     1      -1.477   5.284  38.739  1.00  0.00     0.196 HD
BRANCH  45  48
HETATM   48  O9  UNL     1       0.911   6.173  36.789  1.00  0.00    -0.346 OA
ATOM     49  H9  UNL     1       1.655   6.406  37.332  1.00  0.00     0.219 HD
ENDBRANCH  45  48
BRANCH  46  50
HETATM   50  O10 UNL     1      -0.516   7.070  38.946  1.00  0.00    -0.288 OA
ATOM     51  H10 UNL     1      -1.146   7.550  39.471  1.00  0.00     0.244 HD
ENDBRANCH  46  50
ENDBRANCH  38  45
ENDBRANCH   1  38
TORSDOF 17
ENDMDL