MODEL 2
REMARK VINA RESULT: -6.194657928      2.541      4.326
REMARK  20 active torsions:
REMARK  status: ('A' for Active; 'I' for Inactive)
REMARK    1  A    between atoms: N1_1  and  N2_4
REMARK    2  A    between atoms: N3_6  and  C1_8
REMARK    3  A    between atoms: C2_9  and  O1_10
REMARK    4  A    between atoms: C3_12  and  O2_13
REMARK    5  A    between atoms: C4_15  and  O3_16
REMARK    6  A    between atoms: N4_18  and  N5_19
REMARK    7  A    between atoms: C5_20  and  O4_21
REMARK    8  A    between atoms: O4_21  and  C6_22
REMARK    9  A    between atoms: C7_24  and  C8_25
REMARK   10  A    between atoms: C8_25  and  O6_26
REMARK   11  A    between atoms: C9_28  and  O7_29
REMARK   12  A    between atoms: C10_31  and  O8_32
REMARK   13  A    between atoms: C11_34  and  O9_35
REMARK   14  A    between atoms: C12_37  and  C13_38
REMARK   15  A    between atoms: C13_38  and  O10_39
REMARK   16  A    between atoms: C13_38  and  O11_41
REMARK   17  A    between atoms: N6_43  and  C14_44
REMARK   18  A    between atoms: C14_44  and  O12_45
REMARK   19  A    between atoms: C14_44  and  N7_47
REMARK   20  A    between atoms: N7_47  and  N8_48
ROOT
HETATM    1  N5  UNL     1       1.073   1.876  39.137  1.00  0.00    -0.207 N
HETATM    2  C5  UNL     1       0.566   2.616  37.968  1.00  0.00     0.285 C
HETATM    3  C12 UNL     1      -0.127   3.599  38.894  1.00  0.00     0.192 C
HETATM    4  N6  UNL     1       0.701   2.968  39.887  1.00  0.00    -0.152 NA
ENDROOT
BRANCH   1   5
HETATM    5  N4  UNL     1       1.630   0.600  39.191  1.00  0.00    -0.195 N
HETATM    6  C1  UNL     1       2.720   0.153  38.494  1.00  0.00     0.183 A
HETATM    7  C2  UNL     1       2.965  -1.163  38.811  1.00  0.00     0.151 A
HETATM    8  C3  UNL     1       2.004  -1.555  39.734  1.00  0.00     0.156 A
HETATM    9  C4  UNL     1       1.206  -0.450  39.940  1.00  0.00     0.201 A
BRANCH   6  10
HETATM   10  N3  UNL     1       3.436   1.005  37.583  1.00  0.00    -0.267 N
HETATM   11  N2  UNL     1       3.741   0.492  36.460  1.00  0.00    -0.248 N
ATOM     12  H2  UNL     1       3.457  -0.473  36.293  1.00  0.00     0.207 HD
ATOM     13  H3  UNL     1       3.685   1.965  37.823  1.00  0.00     0.190 HD
BRANCH  11  14
HETATM   14  N1  UNL     1       4.427   1.138  35.447  1.00  0.00    -0.331 N
ATOM     15  H12 UNL     1       4.443   2.157  35.492  1.00  0.00     0.178 HD
ATOM     16  H11 UNL     1       4.907   0.677  34.675  1.00  0.00     0.178 HD
ENDBRANCH  11  14
ENDBRANCH   6  10
BRANCH   7  17
HETATM   17  O1  UNL     1       3.978  -1.924  38.298  1.00  0.00    -0.355 OA
ATOM     18  H1  UNL     1       3.866  -2.676  37.729  1.00  0.00     0.218 HD
ENDBRANCH   7  17
BRANCH   8  19
HETATM   19  O2  UNL     1       1.877  -2.821  40.330  1.00  0.00    -0.354 OA
ATOM     20  H2  UNL     1       1.178  -3.114  40.902  1.00  0.00     0.218 HD
ENDBRANCH   8  19
BRANCH   9  21
HETATM   21  O3  UNL     1       0.132  -0.509  40.821  1.00  0.00    -0.343 OA
ATOM     22  H3  UNL     1      -0.314   0.285  41.092  1.00  0.00     0.219 HD
ENDBRANCH   9  21
ENDBRANCH   1   5
BRANCH   2  23
HETATM   23  O4  UNL     1      -0.262   1.812  37.231  1.00  0.00    -0.329 OA
BRANCH  23  24
HETATM   24  C6  UNL     1       0.150   1.697  35.903  1.00  0.00     0.294 C
HETATM   25  O5  UNL     1       1.366   2.317  35.814  1.00  0.00    -0.348 OA
HETATM   26  C7  UNL     1       1.380   3.625  35.456  1.00  0.00     0.179 C
HETATM   27  C9  UNL     1       0.556   4.038  34.314  1.00  0.00     0.180 C
HETATM   28  C10 UNL     1      -0.313   2.916  33.804  1.00  0.00     0.183 C
HETATM   29  C11 UNL     1      -0.918   2.272  35.026  1.00  0.00     0.204 C
BRANCH  26  30
HETATM   30  C8  UNL     1       2.813   4.069  35.254  1.00  0.00     0.198 C
BRANCH  30  31
HETATM   31  O6  UNL     1       3.546   3.736  36.371  1.00  0.00    -0.398 OA
ATOM     32  H6  UNL     1       3.381   4.378  37.051  1.00  0.00     0.209 HD
ENDBRANCH  30  31
ENDBRANCH  26  30
BRANCH  27  33
HETATM   33  O7  UNL     1      -0.276   5.101  34.673  1.00  0.00    -0.390 OA
ATOM     34  H7  UNL     1      -0.095   5.861  34.132  1.00  0.00     0.210 HD
ENDBRANCH  27  33
BRANCH  28  35
HETATM   35  O8  UNL     1      -1.314   3.482  33.007  1.00  0.00    -0.390 OA
ATOM     36  H8  UNL     1      -1.604   2.818  32.393  1.00  0.00     0.210 HD
ENDBRANCH  28  35
BRANCH  29  37
HETATM   37  O9  UNL     1      -1.629   3.228  35.740  1.00  0.00    -0.388 OA
ATOM     38  H9  UNL     1      -1.859   2.874  36.592  1.00  0.00     0.210 HD
ENDBRANCH  29  37
ENDBRANCH  23  24
ENDBRANCH   2  23
BRANCH   4  39
HETATM   39  C14 UNL     1       0.103   2.775  41.168  1.00  0.00     0.331 C
BRANCH  39  40
HETATM   40  O12 UNL     1       0.994   2.216  42.083  1.00  0.00    -0.364 OA
ATOM     41  H12 UNL     1       0.550   1.695  42.742  1.00  0.00     0.213 HD
ENDBRANCH  39  40
BRANCH  39  42
HETATM   42  N7  UNL     1      -0.369   4.030  41.748  1.00  0.00    -0.098 NA
BRANCH  42  43
HETATM   43  N8  UNL     1      -1.760   3.973  41.800  1.00  0.00    -0.345 N
ATOM     44  H82 UNL     1      -2.358   3.504  41.119  1.00  0.00     0.172 HD
ATOM     45  H81 UNL     1      -2.058   4.479  42.633  1.00  0.00     0.172 HD
ENDBRANCH  42  43
ENDBRANCH  39  42
ENDBRANCH   4  39
BRANCH   3  46
HETATM   46  C13 UNL     1       0.245   5.026  38.640  1.00  0.00     0.277 C
BRANCH  46  47
HETATM   47  O10 UNL     1      -0.454   5.514  37.537  1.00  0.00    -0.370 OA
ATOM     48  H10 UNL     1      -0.617   6.444  37.639  1.00  0.00     0.212 HD
ENDBRANCH  46  47
BRANCH  46  49
HETATM   49  O11 UNL     1      -0.056   5.843  39.752  1.00  0.00    -0.370 OA
ATOM     50  H11 UNL     1      -0.376   6.696  39.480  1.00  0.00     0.212 HD
ENDBRANCH  46  49
ENDBRANCH   3  46
TORSDOF 20
ENDMDL