MODEL 1
REMARK VINA RESULT: -6.897766774      0.000      0.000
REMARK  15 active torsions:
REMARK  status: ('A' for Active; 'I' for Inactive)
REMARK       I    between atoms: C1_2  and  N3_6
REMARK    1  A    between atoms: N3_6  and  C2_8
REMARK    2  A    between atoms: C3_9  and  O1_10
REMARK    3  A    between atoms: C4_12  and  O2_13
REMARK    4  A    between atoms: C5_15  and  O3_16
REMARK    5  A    between atoms: C6_18  and  O4_19
REMARK    6  A    between atoms: C7_21  and  C8_22
REMARK    7  A    between atoms: C8_22  and  N4_23
REMARK    8  A    between atoms: C8_22  and  N12_39
REMARK       I    between atoms: C9_25  and  N6_27
REMARK    9  A    between atoms: N6_27  and  N7_29
REMARK   10  A    between atoms: C10_35  and  N11_36
REMARK   11  A    between atoms: C11_44  and  C12_45
REMARK   12  A    between atoms: C12_45  and  C13_46
REMARK   13  A    between atoms: C13_46  and  N15_47
REMARK   14  A    between atoms: C13_46  and  O5_51
REMARK   15  A    between atoms: C13_46  and  C14_53
ROOT
HETATM    1  C8  UNL     1       1.985   1.683  36.842  1.00  0.00     0.267 C
ENDROOT
BRANCH   1   2
HETATM    2  C7  UNL     1       1.355   2.863  37.462  1.00  0.00     0.053 A
HETATM    3  C2  UNL     1       0.196   3.391  36.945  1.00  0.00     0.084 A
HETATM    4  C3  UNL     1      -0.419   4.505  37.517  1.00  0.00     0.129 A
HETATM    5  C4  UNL     1       0.138   5.092  38.620  1.00  0.00     0.137 A
HETATM    6  C5  UNL     1       1.320   4.553  39.147  1.00  0.00     0.136 A
HETATM    7  C6  UNL     1       1.914   3.454  38.570  1.00  0.00     0.114 A
BRANCH   3   8
HETATM    8  N3  UNL     1      -0.464   2.866  35.809  1.00  0.00    -0.328 N
HETATM    9  C1  UNL     1      -0.271   3.392  34.516  1.00  0.00     0.186 C
HETATM   10  N1  UNL     1      -1.273   3.248  33.485  1.00  0.00    -0.064 NA
HETATM   11  N2  UNL     1       0.796   4.028  34.171  1.00  0.00    -0.373 N
ATOM     12  H22 UNL     1       0.936   4.408  33.235  1.00  0.00     0.158 HD
ATOM     13  H21 UNL     1       1.503   4.130  34.898  1.00  0.00     0.158 HD
ATOM     14  H3  UNL     1      -1.101   2.079  35.931  1.00  0.00     0.168 HD
ENDBRANCH   3   8
BRANCH   4  15
HETATM   15  O1  UNL     1      -1.602   5.055  36.995  1.00  0.00    -0.356 OA
ATOM     16  H1  UNL     1      -2.079   5.745  37.442  1.00  0.00     0.218 HD
ENDBRANCH   4  15
BRANCH   5  17
HETATM   17  O2  UNL     1      -0.481   6.199  39.181  1.00  0.00    -0.356 OA
ATOM     18  H2  UNL     1      -1.245   6.073  39.731  1.00  0.00     0.218 HD
ENDBRANCH   5  17
BRANCH   6  19
HETATM   19  O3  UNL     1       1.807   5.214  40.261  1.00  0.00    -0.356 OA
ATOM     20  H3  UNL     1       2.284   6.013  40.071  1.00  0.00     0.218 HD
ENDBRANCH   6  19
BRANCH   7  21
HETATM   21  O4  UNL     1       3.083   2.975  39.146  1.00  0.00    -0.357 OA
ATOM     22  H4  UNL     1       3.151   2.039  39.293  1.00  0.00     0.217 HD
ENDBRANCH   7  21
ENDBRANCH   1   2
BRANCH   1  23
HETATM   23  N4  UNL     1       2.451   0.729  37.806  1.00  0.00    -0.335 N
HETATM   24  C9  UNL     1       1.787  -0.355  37.991  1.00  0.00     0.206 C
HETATM   25  N5  UNL     1       0.595  -0.594  37.231  1.00  0.00    -0.062 NA
HETATM   26  N6  UNL     1       2.151  -1.356  38.906  1.00  0.00    -0.239 N
ATOM     27  H6  UNL     1       3.134  -1.609  39.001  1.00  0.00     0.192 HD
ATOM     28  H4  UNL     1       3.301   0.910  38.339  1.00  0.00     0.164 HD
BRANCH  26  29
HETATM   29  N7  UNL     1       1.204  -2.012  39.687  1.00  0.00    -0.000 N
HETATM   30  N8  UNL     1       0.796  -1.646  40.910  1.00  0.00     0.033 NA
HETATM   31  N9  UNL     1      -0.117  -2.518  41.339  1.00  0.00    -0.210 N
HETATM   32  N10 UNL     1      -0.317  -3.445  40.422  1.00  0.00    -0.117 N
ATOM     33  H9  UNL     1      -0.592  -2.474  42.241  1.00  0.00     0.206 HD
HETATM   34  C10 UNL     1       0.503  -3.125  39.407  1.00  0.00     0.726 A
ATOM     35  H10 UNL     1      -0.958  -4.237  40.474  1.00  0.00     0.207 HD
BRANCH  34  36
HETATM   36  N11 UNL     1       0.624  -3.783  38.289  1.00  0.00    -0.231 N
ATOM     37 2H11 UNL     1       1.370  -4.441  38.063  1.00  0.00     0.174 HD
ATOM     38 1H11 UNL     1      -0.035  -3.698  37.516  1.00  0.00     0.174 HD
ENDBRANCH  34  36
ENDBRANCH  26  29
ENDBRANCH   1  23
BRANCH   1  39
HETATM   39  N12 UNL     1       3.041   1.984  35.908  1.00  0.00    -0.189 N
HETATM   40  N13 UNL     1       3.811   3.056  35.984  1.00  0.00    -0.222 N
HETATM   41  N14 UNL     1       4.683   3.070  35.019  1.00  0.00    -0.272 N
ATOM     42  H13 UNL     1       3.732   3.775  36.703  1.00  0.00     0.210 HD
HETATM   43  C11 UNL     1       4.490   1.972  34.274  1.00  0.00     0.118 A
ATOM     44  H14 UNL     1       5.389   3.789  34.858  1.00  0.00     0.190 HD
HETATM   45  N16 UNL     1       3.465   1.323  34.854  1.00  0.00    -0.268 N
ATOM     46  H16 UNL     1       3.072   0.442  34.522  1.00  0.00     0.190 HD
BRANCH  43  47
HETATM   47  C12 UNL     1       5.194   1.498  33.072  1.00  0.00     0.160 C
BRANCH  47  48
HETATM   48  C13 UNL     1       6.457   0.738  33.403  1.00  0.00     0.317 C
BRANCH  48  49
HETATM   49  N15 UNL     1       6.650  -0.377  32.496  1.00  0.00    -0.036 N
ATOM     50 3H15 UNL     1       6.004  -1.140  32.697  1.00  0.00     0.278 HD
ATOM     51 2H15 UNL     1       6.336  -0.151  31.551  1.00  0.00     0.278 HD
ATOM     52 1H15 UNL     1       7.619  -0.694  32.502  1.00  0.00     0.278 HD
ENDBRANCH  48  49
BRANCH  48  53
HETATM   53  O5  UNL     1       6.460   0.271  34.709  1.00  0.00    -0.357 OA
ATOM     54  H5  UNL     1       6.357  -0.673  34.753  1.00  0.00     0.213 HD
ENDBRANCH  48  53
BRANCH  48  55
HETATM   55  C14 UNL     1       7.617   1.650  33.226  1.00  0.00     0.239 C
HETATM   56  O6  UNL     1       8.771   1.180  33.103  1.00  0.00    -0.644 OA
HETATM   57  O7  UNL     1       7.477   3.036  33.189  1.00  0.00    -0.644 OA
ENDBRANCH  48  55
ENDBRANCH  47  48
ENDBRANCH  43  47
ENDBRANCH   1  39
TORSDOF 15
ENDMDL