MODEL 2
REMARK VINA RESULT: -6.803017605      3.335      6.714
REMARK  19 active torsions:
REMARK  status: ('A' for Active; 'I' for Inactive)
REMARK    1  A    between atoms: C2_2  and  C3_4
REMARK    2  A    between atoms: C6_8  and  O3_9
REMARK    3  A    between atoms: C7_11  and  O4_12
REMARK    4  A    between atoms: C8_14  and  C9_15
REMARK    5  A    between atoms: C9_15  and  O5_16
REMARK    6  A    between atoms: C9_15  and  O6_18
REMARK    7  A    between atoms: O6_18  and  C10_19
REMARK    8  A    between atoms: C11_21  and  C12_22
REMARK    9  A    between atoms: C12_22  and  O8_23
REMARK   10  A    between atoms: C13_25  and  O9_26
REMARK   11  A    between atoms: C13_25  and  C14_28
REMARK   12  A    between atoms: C14_28  and  O10_29
REMARK   13  A    between atoms: C15_31  and  O11_32
REMARK   14  A    between atoms: O11_32  and  C16_33
REMARK   15  A    between atoms: C17_37  and  N2_38
REMARK   16  A    between atoms: N2_38  and  N3_39
REMARK   17  A    between atoms: C18_42  and  O12_43
REMARK   18  A    between atoms: C18_42  and  O13_45
REMARK   19  A    between atoms: C19_47  and  O14_48
ROOT
HETATM    1  C10 UNL     1      -1.297   2.196  36.359  1.00  0.00     0.296 C
HETATM    2  O7  UNL     1      -2.591   2.333  36.899  1.00  0.00    -0.348 OA
HETATM    3  C11 UNL     1      -2.518   3.337  37.846  1.00  0.00     0.187 C
HETATM    4  C13 UNL     1      -1.029   3.517  38.202  1.00  0.00     0.137 C
HETATM    5  C15 UNL     1      -0.506   2.226  37.659  1.00  0.00     0.218 C
ENDROOT
BRANCH   1   6
HETATM    6  O6  UNL     1      -1.091   3.240  35.522  1.00  0.00    -0.325 OA
BRANCH   6   7
HETATM    7  C9  UNL     1      -0.545   2.959  34.275  1.00  0.00     0.298 C
BRANCH   7   8
HETATM    8  C8  UNL     1       0.879   3.152  34.180  1.00  0.00     0.050 A
HETATM    9  C3  UNL     1       1.788   2.273  33.702  1.00  0.00     0.073 A
HETATM   10  C4  UNL     1       3.182   2.564  33.638  1.00  0.00     0.189 A
HETATM   11  O2  UNL     1       4.087   1.752  33.188  1.00  0.00    -0.287 OA
HETATM   12  C5  UNL     1       3.617   3.817  34.094  1.00  0.00     0.095 A
HETATM   13  C6  UNL     1       2.707   4.709  34.578  1.00  0.00     0.103 A
HETATM   14  C7  UNL     1       1.371   4.410  34.630  1.00  0.00     0.111 A
BRANCH   9  15
HETATM   15  C2  UNL     1       1.417   0.958  33.226  1.00  0.00     0.160 C
HETATM   16  C1  UNL     1       1.606   0.482  31.820  1.00  0.00     0.097 C
HETATM   17  O1  UNL     1       0.903   0.124  33.989  1.00  0.00    -0.293 OA
ENDBRANCH   9  15
BRANCH  13  18
HETATM   18  O3  UNL     1       3.144   5.959  35.033  1.00  0.00    -0.358 OA
ATOM     19  H3  UNL     1       3.349   6.075  35.953  1.00  0.00     0.217 HD
ENDBRANCH  13  18
BRANCH  14  20
HETATM   20  O4  UNL     1       0.412   5.281  35.112  1.00  0.00    -0.357 OA
ATOM     21  H4  UNL     1      -0.233   5.041  35.767  1.00  0.00     0.217 HD
ENDBRANCH  14  20
ENDBRANCH   7   8
BRANCH   7  22
HETATM   22  O5  UNL     1      -1.098   3.959  33.381  1.00  0.00    -0.367 OA
ATOM     23  H5  UNL     1      -2.032   3.934  33.555  1.00  0.00     0.213 HD
ENDBRANCH   7  22
ENDBRANCH   6   7
ENDBRANCH   1   6
BRANCH   5  24
HETATM   24  O11 UNL     1       0.825   2.077  37.505  1.00  0.00    -0.343 OA
BRANCH  24  25
HETATM   25  C16 UNL     1       1.149   0.731  37.719  1.00  0.00     0.358 C
HETATM   26  N1  UNL     1       1.907   0.196  36.603  1.00  0.00    -0.021 N
HETATM   27  C17 UNL     1       2.301  -1.104  37.101  1.00  0.00     0.364 C
ATOM     28  H12 UNL     1       1.413   0.185  35.711  1.00  0.00     0.282 HD
ATOM     29  H11 UNL     1       2.674   0.785  36.280  1.00  0.00     0.282 HD
HETATM   30  C18 UNL     1       2.881  -0.701  38.450  1.00  0.00     0.236 C
HETATM   31  C19 UNL     1       1.984   0.453  38.903  1.00  0.00     0.240 C
BRANCH  27  32
HETATM   32  N2  UNL     1       3.272  -1.746  36.260  1.00  0.00    -0.109 NA
BRANCH  32  33
HETATM   33  N3  UNL     1       3.694  -0.789  35.315  1.00  0.00    -0.346 N
ATOM     34  H32 UNL     1       3.233   0.100  35.120  1.00  0.00     0.172 HD
ATOM     35  H31 UNL     1       4.536  -1.159  34.873  1.00  0.00     0.172 HD
ENDBRANCH  32  33
ENDBRANCH  27  32
BRANCH  30  36
HETATM   36  O12 UNL     1       2.808  -1.798  39.278  1.00  0.00    -0.361 OA
ATOM     37  H12 UNL     1       1.932  -1.824  39.642  1.00  0.00     0.213 HD
ENDBRANCH  30  36
BRANCH  30  38
HETATM   38  O13 UNL     1       4.150  -0.183  38.321  1.00  0.00    -0.361 OA
ATOM     39  H13 UNL     1       4.188   0.725  38.600  1.00  0.00     0.213 HD
ENDBRANCH  30  38
BRANCH  31  40
HETATM   40  O14 UNL     1       1.242  -0.066  39.983  1.00  0.00    -0.386 OA
ATOM     41  H14 UNL     1       1.785  -0.521  40.617  1.00  0.00     0.210 HD
ENDBRANCH  31  40
ENDBRANCH  24  25
ENDBRANCH   5  24
BRANCH   3  42
HETATM   42  C12 UNL     1      -3.135   4.625  37.386  1.00  0.00     0.199 C
BRANCH  42  43
HETATM   43  O8  UNL     1      -3.053   5.612  38.362  1.00  0.00    -0.398 OA
ATOM     44  H8  UNL     1      -3.795   6.204  38.326  1.00  0.00     0.209 HD
ENDBRANCH  42  43
ENDBRANCH   3  42
BRANCH   4  45
HETATM   45  O9  UNL     1      -0.544   4.635  37.517  1.00  0.00    -0.382 OA
ATOM     46  H9  UNL     1      -0.366   5.320  38.150  1.00  0.00     0.210 HD
ENDBRANCH   4  45
BRANCH   4  47
HETATM   47  C14 UNL     1      -0.911   3.699  39.678  1.00  0.00     0.207 C
BRANCH  47  48
HETATM   48  O10 UNL     1      -0.454   2.524  40.273  1.00  0.00    -0.398 OA
ATOM     49  H10 UNL     1      -0.096   2.710  41.133  1.00  0.00     0.209 HD
ENDBRANCH  47  48
ENDBRANCH   4  47
TORSDOF 19
ENDMDL