MODEL 1
REMARK VINA RESULT: -6.906897038      0.000      0.000
REMARK  18 active torsions:
REMARK  status: ('A' for Active; 'I' for Inactive)
REMARK    1  A    between atoms: N1_1  and  C1_5
REMARK    2  A    between atoms: C1_5  and  O1_6
REMARK    3  A    between atoms: C1_5  and  C2_8
REMARK    4  A    between atoms: C3_9  and  N2_10
REMARK    5  A    between atoms: N2_10  and  O2_12
REMARK    6  A    between atoms: C4_14  and  O3_15
REMARK    7  A    between atoms: C5_17  and  N3_18
REMARK    8  A    between atoms: N3_18  and  C6_20
REMARK    9  A    between atoms: C7_22  and  O5_23
REMARK   10  A    between atoms: O5_23  and  C8_24
REMARK   11  A    between atoms: C9_26  and  C10_27
REMARK   12  A    between atoms: C10_27  and  O7_28
REMARK   13  A    between atoms: C11_30  and  O8_31
REMARK   14  A    between atoms: C12_33  and  O9_34
REMARK   15  A    between atoms: C13_36  and  O10_37
REMARK   16  A    between atoms: C14_39  and  O11_40
REMARK   17  A    between atoms: C15_42  and  O12_43
REMARK   18  A    between atoms: C18_48  and  O14_49
ROOT
HETATM    1  C6  UNL     1       0.320   5.176  37.842  1.00  0.00     0.256 C
HETATM    2  O4  UNL     1       1.420   5.025  38.675  1.00  0.00    -0.332 OA
HETATM    3  C7  UNL     1       0.946   4.851  39.945  1.00  0.00     0.297 C
HETATM    4  C14 UNL     1      -0.432   5.385  40.027  1.00  0.00     0.206 C
HETATM    5  C15 UNL     1      -0.705   5.921  38.652  1.00  0.00     0.200 C
ENDROOT
BRANCH   1   6
HETATM    6  N3  UNL     1       0.564   5.663  36.540  1.00  0.00    -0.359 N
ATOM      7  H3  UNL     1       0.451   6.666  36.393  1.00  0.00     0.162 HD
BRANCH   6   8
HETATM    8  C5  UNL     1       0.949   4.892  35.420  1.00  0.00     0.070 C
HETATM    9  C4  UNL     1       2.332   4.700  35.256  1.00  0.00     0.121 C
HETATM   10  C3  UNL     1       2.988   3.585  34.755  1.00  0.00     0.103 C
HETATM   11  C2  UNL     1       2.434   2.455  34.219  1.00  0.00     0.066 C
HETATM   12  C18 UNL     1       1.158   2.358  33.660  1.00  0.00     0.129 C
HETATM   13  C17 UNL     1       0.091   3.225  33.840  1.00  0.00     0.207 C
HETATM   14  C16 UNL     1      -0.035   4.389  34.596  1.00  0.00     0.089 C
HETATM   15  O13 UNL     1      -0.957   2.932  33.224  1.00  0.00    -0.285 OA
BRANCH   9  16
HETATM   16  O3  UNL     1       3.138   5.738  35.637  1.00  0.00    -0.356 OA
ATOM     17  H3  UNL     1       3.263   5.838  36.573  1.00  0.00     0.218 HD
ENDBRANCH   9  16
BRANCH  10  18
HETATM   18  N2  UNL     1       4.403   3.614  34.802  1.00  0.00    -0.266 N
ATOM     19  H2  UNL     1       4.904   3.197  35.586  1.00  0.00     0.194 HD
BRANCH  18  20
HETATM   20  O2  UNL     1       5.079   4.207  33.788  1.00  0.00    -0.289 OA
ATOM     21  H2  UNL     1       5.991   4.437  33.919  1.00  0.00     0.244 HD
ENDBRANCH  18  20
ENDBRANCH  10  18
BRANCH  11  22
HETATM   22  C1  UNL     1       3.174   1.192  34.187  1.00  0.00     0.356 C
BRANCH  22  23
HETATM   23  N1  UNL     1       3.491   0.840  35.571  1.00  0.00    -0.049 N
ATOM     24  H13 UNL     1       2.676   0.882  36.183  1.00  0.00     0.277 HD
ATOM     25  H12 UNL     1       3.700  -0.153  35.685  1.00  0.00     0.277 HD
ATOM     26  H11 UNL     1       4.251   1.440  35.890  1.00  0.00     0.277 HD
ENDBRANCH  22  23
BRANCH  22  27
HETATM   27  O1  UNL     1       4.336   1.190  33.464  1.00  0.00    -0.366 OA
ATOM     28  H1  UNL     1       4.319   0.448  32.871  1.00  0.00     0.212 HD
ENDBRANCH  22  27
ENDBRANCH  11  22
BRANCH  12  29
HETATM   29  O14 UNL     1       0.942   1.263  32.827  1.00  0.00    -0.356 OA
ATOM     30  H14 UNL     1       1.383   1.288  31.987  1.00  0.00     0.218 HD
ENDBRANCH  12  29
ENDBRANCH   6   8
ENDBRANCH   1   6
BRANCH   5  31
HETATM   31  O12 UNL     1      -2.008   5.617  38.231  1.00  0.00    -0.388 OA
ATOM     32  H12 UNL     1      -2.539   5.296  38.951  1.00  0.00     0.210 HD
ENDBRANCH   5  31
BRANCH   3  33
HETATM   33  O5  UNL     1       1.058   3.533  40.385  1.00  0.00    -0.326 OA
BRANCH  33  34
HETATM   34  C8  UNL     1       0.798   2.645  39.383  1.00  0.00     0.294 C
HETATM   35  O6  UNL     1      -0.295   1.819  39.636  1.00  0.00    -0.348 OA
HETATM   36  C9  UNL     1      -0.707   1.313  38.384  1.00  0.00     0.179 C
HETATM   37  C11 UNL     1       0.337   0.381  37.814  1.00  0.00     0.180 C
HETATM   38  C12 UNL     1       1.552   0.366  38.713  1.00  0.00     0.183 C
HETATM   39  C13 UNL     1       1.980   1.737  39.124  1.00  0.00     0.204 C
BRANCH  36  40
HETATM   40  C10 UNL     1      -2.068   0.707  38.471  1.00  0.00     0.198 C
BRANCH  40  41
HETATM   41  O7  UNL     1      -2.274  -0.016  37.281  1.00  0.00    -0.398 OA
ATOM     42  H7  UNL     1      -2.249   0.610  36.567  1.00  0.00     0.209 HD
ENDBRANCH  40  41
ENDBRANCH  36  40
BRANCH  37  43
HETATM   43  O8  UNL     1       0.760   0.777  36.546  1.00  0.00    -0.390 OA
ATOM     44  H8  UNL     1       1.627   0.450  36.339  1.00  0.00     0.210 HD
ENDBRANCH  37  43
BRANCH  38  45
HETATM   45  O9  UNL     1       1.201  -0.376  39.853  1.00  0.00    -0.390 OA
ATOM     46  H9  UNL     1       0.598  -1.051  39.565  1.00  0.00     0.210 HD
ENDBRANCH  38  45
BRANCH  39  47
HETATM   47  O10 UNL     1       2.735   2.313  38.086  1.00  0.00    -0.388 OA
ATOM     48  H10 UNL     1       2.349   2.035  37.264  1.00  0.00     0.210 HD
ENDBRANCH  39  47
ENDBRANCH  33  34
ENDBRANCH   3  33
BRANCH   4  49
HETATM   49  O11 UNL     1      -1.372   4.377  40.265  1.00  0.00    -0.388 OA
ATOM     50  H11 UNL     1      -1.707   4.005  39.458  1.00  0.00     0.210 HD
ENDBRANCH   4  49
TORSDOF 18
ENDMDL