MODEL 2
REMARK VINA RESULT: -6.429310777      2.013      3.734
REMARK  19 active torsions:
REMARK  status: ('A' for Active; 'I' for Inactive)
REMARK    1  A    between atoms: N1_1  and  O1_4
REMARK    2  A    between atoms: O1_4  and  C1_5
REMARK    3  A    between atoms: C1_5  and  O2_6
REMARK    4  A    between atoms: C1_5  and  N2_8
REMARK    5  A    between atoms: N2_8  and  C2_10
REMARK    6  A    between atoms: C3_11  and  C4_12
REMARK    7  A    between atoms: C6_14  and  C7_15
REMARK    8  A    between atoms: C7_15  and  O3_16
REMARK    9  A    between atoms: C7_15  and  O4_18
REMARK   10  A    between atoms: C8_21  and  N3_22
REMARK   11  A    between atoms: N3_22  and  C9_24
REMARK   12  A    between atoms: C10_25  and  O6_26
REMARK   13  A    between atoms: C11_28  and  O7_29
REMARK   14  A    between atoms: C12_31  and  O8_32
REMARK   15  A    between atoms: C13_34  and  O9_35
REMARK   16  A    between atoms: C14_37  and  O10_38
REMARK   17  A    between atoms: C15_41  and  C16_42
REMARK   18  A    between atoms: C16_42  and  N4_43
REMARK   19  A    between atoms: C16_42  and  O12_47
ROOT
HETATM    1  C4  UNL     1      -1.273   2.170  37.748  1.00  0.00     0.054 A
HETATM    2  C5  UNL     1      -2.424   1.787  38.483  1.00  0.00     0.056 A
HETATM    3  C6  UNL     1      -3.436   1.665  37.588  1.00  0.00     0.111 A
HETATM    4  O5  UNL     1      -2.970   1.942  36.428  1.00  0.00    -0.292 OA
HETATM    5  C8  UNL     1      -1.672   2.257  36.460  1.00  0.00     0.157 A
ENDROOT
BRANCH   1   6
HETATM    6  C3  UNL     1      -0.035   2.441  38.456  1.00  0.00     0.124 A
HETATM    7  C2  UNL     1       0.269   3.506  39.240  1.00  0.00     0.136 A
HETATM    8  C17 UNL     1       1.527   3.598  39.837  1.00  0.00     0.276 A
HETATM    9  N5  UNL     1       2.421   2.642  39.630  1.00  0.00    -0.302 N
HETATM   10  O13 UNL     1       1.810   4.571  40.561  1.00  0.00    -0.266 OA
HETATM   11  C15 UNL     1       2.110   1.599  38.852  1.00  0.00     0.183 A
ATOM     12  H5  UNL     1       3.343   2.701  40.063  1.00  0.00     0.171 HD
HETATM   13  O11 UNL     1       0.951   1.528  38.312  1.00  0.00    -0.289 OA
BRANCH   7  14
HETATM   14  N2  UNL     1      -0.613   4.627  39.432  1.00  0.00    -0.334 N
ATOM     15  H2  UNL     1      -1.224   4.659  40.248  1.00  0.00     0.164 HD
BRANCH  14  16
HETATM   16  C1  UNL     1      -0.636   5.714  38.469  1.00  0.00     0.394 C
BRANCH  16  17
HETATM   17  O1  UNL     1      -1.597   5.437  37.510  1.00  0.00    -0.234 OA
BRANCH  17  18
HETATM   18  N1  UNL     1      -2.864   5.565  37.974  1.00  0.00    -0.306 N
ATOM     19  H12 UNL     1      -3.072   5.869  38.925  1.00  0.00     0.184 HD
ATOM     20  H11 UNL     1      -3.570   5.328  37.279  1.00  0.00     0.184 HD
ENDBRANCH  17  18
ENDBRANCH  16  17
BRANCH  16  21
HETATM   21  O2  UNL     1       0.580   5.877  37.854  1.00  0.00    -0.353 OA
ATOM     22  H2  UNL     1       1.227   6.125  38.503  1.00  0.00     0.214 HD
ENDBRANCH  16  21
ENDBRANCH  14  16
ENDBRANCH   7  14
BRANCH  11  23
HETATM   23  C16 UNL     1       3.156   0.535  38.640  1.00  0.00     0.392 C
BRANCH  23  24
HETATM   24  N4  UNL     1       3.649   0.588  37.281  1.00  0.00    -0.045 N
ATOM     25  H43 UNL     1       2.981   0.196  36.616  1.00  0.00     0.277 HD
ATOM     26  H42 UNL     1       3.676   1.541  36.920  1.00  0.00     0.277 HD
ATOM     27  H41 UNL     1       4.560   0.132  37.221  1.00  0.00     0.277 HD
ENDBRANCH  23  24
BRANCH  23  28
HETATM   28  O12 UNL     1       2.581  -0.726  38.904  1.00  0.00    -0.364 OA
ATOM     29  H12 UNL     1       3.129  -1.187  39.529  1.00  0.00     0.212 HD
ENDBRANCH  23  28
ENDBRANCH  11  23
ENDBRANCH   1   6
BRANCH   5  30
HETATM   30  N3  UNL     1      -0.927   2.626  35.306  1.00  0.00    -0.360 N
ATOM     31  H3  UNL     1      -1.414   2.697  34.412  1.00  0.00     0.162 HD
BRANCH  30  32
HETATM   32  C9  UNL     1       0.485   2.905  35.345  1.00  0.00     0.146 C
HETATM   33  C10 UNL     1       1.305   1.770  34.878  1.00  0.00     0.174 C
HETATM   34  C11 UNL     1       2.497   2.087  34.034  1.00  0.00     0.180 C
HETATM   35  C12 UNL     1       3.210   3.349  34.393  1.00  0.00     0.180 C
HETATM   36  C13 UNL     1       2.308   4.422  34.940  1.00  0.00     0.180 C
HETATM   37  C14 UNL     1       0.846   4.142  34.546  1.00  0.00     0.174 C
BRANCH  33  38
HETATM   38  O6  UNL     1       0.494   0.846  34.225  1.00  0.00    -0.391 OA
ATOM     39  H6  UNL     1       0.928   0.002  34.200  1.00  0.00     0.210 HD
ENDBRANCH  33  38
BRANCH  34  40
HETATM   40  O7  UNL     1       2.192   2.060  32.676  1.00  0.00    -0.390 OA
ATOM     41  H7  UNL     1       2.886   1.658  32.166  1.00  0.00     0.210 HD
ENDBRANCH  34  40
BRANCH  35  42
HETATM   42  O8  UNL     1       4.237   3.109  35.306  1.00  0.00    -0.390 OA
ATOM     43  H8  UNL     1       5.017   3.606  35.089  1.00  0.00     0.210 HD
ENDBRANCH  35  42
BRANCH  36  44
HETATM   44  O9  UNL     1       2.399   4.450  36.331  1.00  0.00    -0.390 OA
ATOM     45  H9  UNL     1       1.706   3.920  36.708  1.00  0.00     0.210 HD
ENDBRANCH  36  44
BRANCH  37  46
HETATM   46  O10 UNL     1       0.120   5.255  34.946  1.00  0.00    -0.391 OA
ATOM     47  H10 UNL     1      -0.542   5.499  34.311  1.00  0.00     0.210 HD
ENDBRANCH  37  46
ENDBRANCH  30  32
ENDBRANCH   5  30
BRANCH   3  48
HETATM   48  C7  UNL     1      -4.858   1.279  37.853  1.00  0.00     0.312 C
BRANCH  48  49
HETATM   49  O3  UNL     1      -5.354   2.061  38.896  1.00  0.00    -0.365 OA
ATOM     50  H3  UNL     1      -6.105   2.553  38.584  1.00  0.00     0.213 HD
ENDBRANCH  48  49
BRANCH  48  51
HETATM   51  O4  UNL     1      -5.577   1.638  36.706  1.00  0.00    -0.365 OA
ATOM     52  H4  UNL     1      -5.421   0.948  36.072  1.00  0.00     0.213 HD
ENDBRANCH  48  51
ENDBRANCH   3  48
TORSDOF 19
ENDMDL