MODEL 1
REMARK VINA RESULT: -9.750681997      0.000      0.000
REMARK  15 active torsions:
REMARK  status: ('A' for Active; 'I' for Inactive)
REMARK    1  A    between atoms: C2_2  and  C3_3
REMARK    2  A    between atoms: C3_3  and  C4_4
REMARK    3  A    between atoms: C4_4  and  C5_5
REMARK    4  A    between atoms: C5_5  and  O1_6
REMARK    5  A    between atoms: O1_6  and  C6_7
REMARK       I    between atoms: C6_7  and  N1_9
REMARK       I    between atoms: N2_12  and  C9_13
REMARK    6  A    between atoms: C9_13  and  C10_15
REMARK    7  A    between atoms: C10_15  and  C11_16
REMARK    8  A    between atoms: C10_15  and  N6_24
REMARK    9  A    between atoms: C11_16  and  C12_17
REMARK   10  A    between atoms: C12_17  and  C13_18
REMARK   11  A    between atoms: C13_18  and  N3_19
REMARK       I    between atoms: N6_24  and  C15_26
REMARK       I    between atoms: C15_26  and  N7_28
REMARK   12  A    between atoms: C20_33  and  C21_34
REMARK   13  A    between atoms: C21_34  and  O5_35
REMARK   14  A    between atoms: C21_34  and  N8_37
REMARK   15  A    between atoms: N8_37  and  C22_39
REMARK       I    between atoms: N9_46  and  C29_47
ROOT
HETATM    1  N6  UNL     1       6.944  -1.035  14.505  1.00  0.00    -0.330 N
ATOM      2  H6  UNL     1       6.636  -0.168  14.946  1.00  0.00     0.165 HD
HETATM    3  C15 UNL     1       7.356  -1.042  13.180  1.00  0.00     0.319 C
HETATM    4  O4  UNL     1       7.712  -2.177  12.687  1.00  0.00    -0.247 OA
HETATM    5  N7  UNL     1       7.425   0.087  12.307  1.00  0.00    -0.322 N
HETATM    6  C16 UNL     1       7.835  -0.096  10.964  1.00  0.00     0.128 C
HETATM    7  C17 UNL     1       8.230   1.088  10.184  1.00  0.00     0.020 C
HETATM    8  C18 UNL     1       8.513   2.328  10.929  1.00  0.00     0.004 C
HETATM    9  C19 UNL     1       8.247   2.311  12.382  1.00  0.00     0.034 C
HETATM   10  C20 UNL     1       7.123   1.383  12.813  1.00  0.00     0.163 C
ENDROOT
BRANCH   1  11
HETATM   11  C10 UNL     1       6.960  -2.307  15.272  1.00  0.00     0.178 C
BRANCH  11  12
HETATM   12  C9  UNL     1       5.720  -2.352  16.076  1.00  0.00     0.242 C
HETATM   13  N2  UNL     1       4.903  -3.491  16.298  1.00  0.00    -0.347 N
HETATM   14  C8  UNL     1       3.743  -3.272  17.151  1.00  0.00     0.146 C
HETATM   15  C32 UNL     1       5.230  -4.745  15.686  1.00  0.00     0.146 C
HETATM   16  C7  UNL     1       2.796  -4.408  17.250  1.00  0.00     0.148 C
HETATM   17  N1  UNL     1       3.262  -5.611  16.615  1.00  0.00    -0.325 N
HETATM   18  C6  UNL     1       3.102  -6.870  17.221  1.00  0.00     0.362 C
HETATM   19  C33 UNL     1       3.903  -5.442  15.331  1.00  0.00     0.148 C
HETATM   20  O2  UNL     1       2.530  -7.009  18.354  1.00  0.00    -0.238 OA
HETATM   21  O3  UNL     1       5.369  -1.229  16.612  1.00  0.00    -0.271 OA
BRANCH  18  22
HETATM   22  O1  UNL     1       3.553  -8.056  16.639  1.00  0.00    -0.304 OA
BRANCH  22  23
HETATM   23  C5  UNL     1       4.752  -8.708  16.991  1.00  0.00     0.180 C
BRANCH  23  24
HETATM   24  C4  UNL     1       4.710 -10.193  16.927  1.00  0.00     0.027 C
BRANCH  24  25
HETATM   25  C3  UNL     1       5.187 -10.720  15.582  1.00  0.00     0.002 C
BRANCH  25  26
HETATM   26  C2  UNL     1       3.920 -11.135  14.834  1.00  0.00    -0.004 C
HETATM   27  C1  UNL     1       3.798 -10.383  13.526  1.00  0.00     0.005 C
ENDBRANCH  25  26
ENDBRANCH  24  25
ENDBRANCH  23  24
ENDBRANCH  22  23
ENDBRANCH  18  22
ENDBRANCH  11  12
BRANCH  11  28
HETATM   28  C11 UNL     1       8.228  -2.274  16.059  1.00  0.00     0.037 C
BRANCH  28  29
HETATM   29  C12 UNL     1       9.346  -3.125  15.594  1.00  0.00     0.022 C
BRANCH  29  30
HETATM   30  C13 UNL     1       9.695  -4.213  16.611  1.00  0.00     0.122 C
BRANCH  30  31
HETATM   31  N3  UNL     1       8.449  -4.647  17.189  1.00  0.00    -0.367 N
HETATM   32  C14 UNL     1       8.436  -5.496  18.133  1.00  0.00     0.196 C
HETATM   33  N4  UNL     1       9.640  -6.033  18.636  1.00  0.00    -0.067 NA
HETATM   34  N5  UNL     1       7.201  -5.912  18.682  1.00  0.00    -0.067 NA
ATOM     35  H3  UNL     1       7.569  -4.268  16.838  1.00  0.00     0.161 HD
ENDBRANCH  30  31
ENDBRANCH  29  30
ENDBRANCH  28  29
ENDBRANCH  11  28
ENDBRANCH   1  11
BRANCH  10  36
HETATM   36  C21 UNL     1       5.812   1.848  12.409  1.00  0.00     0.135 C
BRANCH  36  37
HETATM   37  O5  UNL     1       5.719   3.149  12.339  1.00  0.00    -0.348 OA
ATOM     38  H5  UNL     1       5.404   3.462  11.499  1.00  0.00     0.219 HD
ENDBRANCH  36  37
BRANCH  36  39
HETATM   39  N8  UNL     1       4.640   1.173  12.086  1.00  0.00    -0.368 N
ATOM     40  H8  UNL     1       4.708   0.340  11.501  1.00  0.00     0.161 HD
BRANCH  39  41
HETATM   41  C22 UNL     1       3.311   1.598  12.540  1.00  0.00     0.089 C
HETATM   42  C23 UNL     1       2.694   0.595  13.455  1.00  0.00     0.026 C
HETATM   43  C24 UNL     1       1.753  -0.374  12.798  1.00  0.00     0.002 C
HETATM   44  C25 UNL     1       0.702   0.364  11.982  1.00  0.00     0.005 C
HETATM   45  C26 UNL     1       1.464   1.089  10.891  1.00  0.00    -0.005 C
HETATM   46  C27 UNL     1       0.424   1.873  10.093  1.00  0.00     0.025 C
HETATM   47  C31 UNL     1       2.430   2.102  11.450  1.00  0.00     0.030 C
HETATM   48  C28 UNL     1       1.029   2.785   9.070  1.00  0.00     0.126 C
HETATM   49  N9  UNL     1       2.246   3.434   9.498  1.00  0.00    -0.355 N
HETATM   50  C29 UNL     1       2.508   4.775   9.140  1.00  0.00     0.183 C
HETATM   51  C30 UNL     1       3.186   2.673  10.296  1.00  0.00     0.132 C
HETATM   52  N10 UNL     1       3.728   5.232   9.174  1.00  0.00    -0.374 N
HETATM   53  N11 UNL     1       1.498   5.686   8.733  1.00  0.00    -0.064 NA
ATOM     54 2H10 UNL     1       4.454   4.578   9.467  1.00  0.00     0.158 HD
ATOM     55 1H10 UNL     1       3.916   6.201   8.916  1.00  0.00     0.158 HD
ENDBRANCH  39  41
ENDBRANCH  36  39
ENDBRANCH  10  36
TORSDOF 15
ENDMDL