MODEL 5
REMARK VINA RESULT: -8.337466144      2.901     10.671
REMARK  19 active torsions:
REMARK  status: ('A' for Active; 'I' for Inactive)
REMARK    1  A    between atoms: C3_3  and  N1_4
REMARK       I    between atoms: N1_4  and  C4_6
REMARK    2  A    between atoms: C4_6  and  C5_8
REMARK    3  A    between atoms: C5_8  and  C6_9
REMARK    4  A    between atoms: C5_8  and  N2_12
REMARK    5  A    between atoms: C6_9  and  C7_10
REMARK       I    between atoms: N2_12  and  C9_14
REMARK    6  A    between atoms: C9_14  and  C10_16
REMARK    7  A    between atoms: C10_16  and  N3_17
REMARK    8  A    between atoms: N3_17  and  C11_19
REMARK    9  A    between atoms: C11_19  and  O3_20
REMARK   10  A    between atoms: C11_19  and  C12_22
REMARK   11  A    between atoms: C12_22  and  C13_23
REMARK   12  A    between atoms: C13_23  and  N4_24
REMARK   13  A    between atoms: N4_24  and  C14_26
REMARK   14  A    between atoms: C14_26  and  O4_27
REMARK   15  A    between atoms: C14_26  and  C15_29
REMARK   16  A    between atoms: C15_29  and  N5_30
REMARK   17  A    between atoms: C15_29  and  C21_39
REMARK       I    between atoms: N5_30  and  C16_32
REMARK   18  A    between atoms: C16_32  and  O6_34
REMARK   19  A    between atoms: O6_34  and  C17_35
ROOT
HETATM    1  C1  UNL     1       7.441   3.952  10.748  1.00  0.00     0.014 C
HETATM    2  C2  UNL     1       6.478   3.568  10.181  1.00  0.00    -0.098 C
HETATM    3  C3  UNL     1       5.283   3.116   9.491  1.00  0.00     0.216 C
ENDROOT
BRANCH   3   4
HETATM    4  N1  UNL     1       4.834   1.809   9.931  1.00  0.00    -0.349 N
HETATM    5  C4  UNL     1       3.674   1.661  10.734  1.00  0.00     0.241 C
HETATM    6  O1  UNL     1       2.999   2.651  11.090  1.00  0.00    -0.271 OA
ATOM      7  H1  UNL     1       5.363   0.980   9.659  1.00  0.00     0.163 HD
BRANCH   5   8
HETATM    8  C5  UNL     1       3.251   0.289  11.160  1.00  0.00     0.180 C
BRANCH   8   9
HETATM    9  C6  UNL     1       1.758   0.222  11.172  1.00  0.00     0.061 C
BRANCH   9  10
HETATM   10  C7  UNL     1       1.199  -0.032  12.515  1.00  0.00    -0.034 C
HETATM   11  C8  UNL     1       0.313   0.768  13.067  1.00  0.00     0.007 C
ENDBRANCH   9  10
ENDBRANCH   8   9
BRANCH   8  12
HETATM   12  N2  UNL     1       3.894  -0.010  12.404  1.00  0.00    -0.343 N
HETATM   13  C9  UNL     1       4.710  -1.129  12.638  1.00  0.00     0.275 C
HETATM   14  O2  UNL     1       4.920  -1.950  11.722  1.00  0.00    -0.268 OA
ATOM     15  H2  UNL     1       3.749   0.638  13.178  1.00  0.00     0.163 HD
BRANCH  13  16
HETATM   16  C10 UNL     1       5.339  -1.357  13.956  1.00  0.00     0.232 C
HETATM   17  O7  UNL     1       6.204  -2.463  13.934  1.00  0.00    -0.279 OA
HETATM   18  C30 UNL     1       7.514  -1.998  13.783  1.00  0.00     0.267 C
HETATM   19  O8  UNL     1       8.479  -2.514  13.163  1.00  0.00    -0.265 OA
HETATM   20  C31 UNL     1       7.560  -0.736  14.518  1.00  0.00     0.104 A
HETATM   21  C32 UNL     1       6.111  -0.188  14.474  1.00  0.00     0.075 A
HETATM   22  C33 UNL     1       7.212   0.503  13.818  1.00  0.00    -0.025 A
HETATM   23  C34 UNL     1       7.423   0.639  12.351  1.00  0.00     0.016 C
HETATM   24  C35 UNL     1       7.688   1.768  14.577  1.00  0.00     0.016 C
BRANCH  16  25
HETATM   25  N3  UNL     1       4.237  -1.591  14.904  1.00  0.00    -0.332 N
ATOM     26  H3  UNL     1       3.309  -1.233  14.677  1.00  0.00     0.165 HD
BRANCH  25  27
HETATM   27  C11 UNL     1       4.415  -2.279  16.093  1.00  0.00     0.153 C
BRANCH  27  28
HETATM   28  O3  UNL     1       4.823  -1.577  17.112  1.00  0.00    -0.348 OA
ATOM     29  H3  UNL     1       4.478  -1.826  17.962  1.00  0.00     0.219 HD
ENDBRANCH  27  28
BRANCH  27  30
HETATM   30  C12 UNL     1       4.222  -3.692  16.419  1.00  0.00     0.213 C
HETATM   31  C25 UNL     1       4.013  -4.480  15.117  1.00  0.00     0.060 C
HETATM   32  C26 UNL     1       3.896  -5.890  15.608  1.00  0.00     0.037 C
HETATM   33  C29 UNL     1       2.582  -4.019  15.339  1.00  0.00     0.246 C
HETATM   34  C27 UNL     1       3.077  -5.629  16.859  1.00  0.00     0.239 C
HETATM   35  N6  UNL     1       2.919  -4.173  16.753  1.00  0.00    -0.052 N
HETATM   36  C28 UNL     1       2.116  -3.563  17.717  1.00  0.00     0.274 C
BRANCH  30  37
HETATM   37  C13 UNL     1       5.351  -4.254  17.245  1.00  0.00     0.170 C
BRANCH  37  38
HETATM   38  N4  UNL     1       6.657  -3.764  16.941  1.00  0.00    -0.370 N
ATOM     39  H4  UNL     1       6.899  -2.791  17.123  1.00  0.00     0.161 HD
BRANCH  38  40
HETATM   40  C14 UNL     1       7.611  -4.649  16.383  1.00  0.00     0.135 C
BRANCH  40  41
HETATM   41  O4  UNL     1       7.521  -4.872  15.090  1.00  0.00    -0.348 OA
ATOM     42  H4  UNL     1       7.406  -5.776  14.821  1.00  0.00     0.219 HD
ENDBRANCH  40  41
BRANCH  40  43
HETATM   43  C15 UNL     1       8.696  -5.373  17.040  1.00  0.00     0.168 C
BRANCH  43  44
HETATM   44  N5  UNL     1       8.490  -6.814  16.809  1.00  0.00    -0.324 N
HETATM   45  C16 UNL     1       7.654  -7.619  17.618  1.00  0.00     0.362 C
HETATM   46  O5  UNL     1       7.011  -7.178  18.610  1.00  0.00    -0.238 OA
ATOM     47  H5  UNL     1       8.974  -7.253  16.026  1.00  0.00     0.165 HD
BRANCH  45  48
HETATM   48  O6  UNL     1       7.521  -8.962  17.323  1.00  0.00    -0.294 OA
BRANCH  48  49
HETATM   49  C17 UNL     1       7.865 -10.033  18.145  1.00  0.00     0.061 C
HETATM   50  C18 UNL     1       6.678 -10.655  18.866  1.00  0.00     0.046 C
HETATM   51  C19 UNL     1       8.925  -9.673  19.164  1.00  0.00     0.046 C
HETATM   52  C20 UNL     1       8.439 -11.127  17.259  1.00  0.00     0.046 C
ENDBRANCH  48  49
ENDBRANCH  45  48
ENDBRANCH  43  44
BRANCH  43  53
HETATM   53  C21 UNL     1      10.041  -4.965  16.571  1.00  0.00    -0.023 C
HETATM   54  C22 UNL     1      10.292  -3.501  16.771  1.00  0.00     0.017 C
HETATM   55  C23 UNL     1      10.252  -5.249  15.090  1.00  0.00     0.017 C
HETATM   56  C24 UNL     1      11.161  -5.712  17.281  1.00  0.00     0.017 C
ENDBRANCH  43  53
ENDBRANCH  40  43
ENDBRANCH  38  40
ENDBRANCH  37  38
ENDBRANCH  30  37
ENDBRANCH  27  30
ENDBRANCH  25  27
ENDBRANCH  16  25
ENDBRANCH  13  16
ENDBRANCH   8  12
ENDBRANCH   5   8
ENDBRANCH   3   4
TORSDOF 19
ENDMDL