MODEL 4
REMARK VINA RESULT: -8.975896690      3.742     11.436
REMARK  13 active torsions:
REMARK  status: ('A' for Active; 'I' for Inactive)
REMARK    1  A    between atoms: C10_10  and  N1_11
REMARK       I    between atoms: N1_11  and  C11_13
REMARK       I    between atoms: C11_13  and  N2_15
REMARK       I    between atoms: N3_18  and  C14_19
REMARK       I    between atoms: C14_19  and  N4_21
REMARK    2  A    between atoms: N4_21  and  C15_23
REMARK    3  A    between atoms: C15_23  and  C16_24
REMARK    4  A    between atoms: C15_23  and  C29_49
REMARK       I    between atoms: C16_24  and  N5_26
REMARK    5  A    between atoms: C20_30  and  C21_31
REMARK       I    between atoms: C21_31  and  N6_33
REMARK    6  A    between atoms: N6_33  and  C22_35
REMARK    7  A    between atoms: C22_35  and  C23_36
REMARK    8  A    between atoms: C22_35  and  C27_44
REMARK    9  A    between atoms: C23_36  and  C24_37
REMARK   10  A    between atoms: C24_37  and  C25_38
REMARK   11  A    between atoms: C25_38  and  C26_39
REMARK   12  A    between atoms: C26_39  and  N7_40
REMARK   13  A    between atoms: C27_44  and  C28_46
ROOT
HETATM    1  C15 UNL     1       2.209   0.377  11.365  1.00  0.00     0.185 C
ENDROOT
BRANCH   1   2
HETATM    2  N4  UNL     1       2.950   0.266  12.619  1.00  0.00    -0.329 N
HETATM    3  C14 UNL     1       3.021  -0.867  13.422  1.00  0.00     0.320 C
HETATM    4  N3  UNL     1       3.753  -0.946  14.617  1.00  0.00    -0.315 N
HETATM    5  O2  UNL     1       2.384  -1.889  13.052  1.00  0.00    -0.247 OA
HETATM    6  C13 UNL     1       3.728  -2.153  15.403  1.00  0.00     0.151 C
HETATM    7  C33 UNL     1       4.589   0.130  15.137  1.00  0.00     0.268 C
HETATM    8  C12 UNL     1       5.091  -2.681  15.598  1.00  0.00     0.173 C
HETATM    9  N2  UNL     1       6.109  -1.680  15.490  1.00  0.00    -0.244 N
HETATM   10  C11 UNL     1       7.460  -2.132  15.508  1.00  0.00     0.337 C
HETATM   11  N9  UNL     1       5.919  -0.313  15.388  1.00  0.00    -0.312 N
HETATM   12  N1  UNL     1       7.747  -3.494  15.663  1.00  0.00    -0.336 N
HETATM   13  O1  UNL     1       8.384  -1.307  15.389  1.00  0.00    -0.245 OA
ATOM     14  H1  UNL     1       6.984  -4.163  15.764  1.00  0.00     0.164 HD
ATOM     15  H9  UNL     1       6.693   0.345  15.488  1.00  0.00     0.182 HD
ATOM     16  H4  UNL     1       3.461   1.092  12.932  1.00  0.00     0.165 HD
BRANCH  12  17
HETATM   17  C10 UNL     1       9.108  -3.961  15.680  1.00  0.00     0.099 C
HETATM   18  C2  UNL     1       9.446  -4.785  14.477  1.00  0.00     0.006 C
HETATM   19  C1  UNL     1      10.755  -4.376  13.828  1.00  0.00     0.012 C
HETATM   20  C3  UNL     1       9.480  -6.239  14.901  1.00  0.00     0.016 C
HETATM   21  C4  UNL     1       9.290  -6.284  16.392  1.00  0.00    -0.034 C
HETATM   22  C5  UNL     1       8.211  -7.206  16.897  1.00  0.00     0.016 C
HETATM   23  C6  UNL     1      10.609  -6.456  17.137  1.00  0.00     0.011 C
HETATM   24  C8  UNL     1       9.233  -4.877  16.881  1.00  0.00    -0.016 C
HETATM   25  C7  UNL     1      10.653  -4.981  17.387  1.00  0.00     0.012 C
HETATM   26  C9  UNL     1       8.258  -4.560  17.985  1.00  0.00     0.018 C
ENDBRANCH  12  17
ENDBRANCH   1   2
BRANCH   1  27
HETATM   27  C16 UNL     1       2.944   1.217  10.402  1.00  0.00     0.244 C
HETATM   28  O3  UNL     1       2.877   0.818   9.184  1.00  0.00    -0.271 OA
HETATM   29  N5  UNL     1       3.687   2.388  10.704  1.00  0.00    -0.337 N
HETATM   30  C17 UNL     1       3.891   3.035  11.972  1.00  0.00     0.127 C
HETATM   31  C20 UNL     1       4.376   3.157   9.698  1.00  0.00     0.179 C
HETATM   32  C18 UNL     1       3.910   4.504  11.620  1.00  0.00     0.022 C
HETATM   33  C19 UNL     1       3.926   4.572  10.103  1.00  0.00     0.037 C
BRANCH  31  34
HETATM   34  C21 UNL     1       5.848   3.068   9.742  1.00  0.00     0.241 C
HETATM   35  O4  UNL     1       6.599   4.061   9.710  1.00  0.00    -0.271 OA
HETATM   36  N6  UNL     1       6.411   1.741   9.826  1.00  0.00    -0.347 N
ATOM     37  H6  UNL     1       5.821   0.910   9.863  1.00  0.00     0.163 HD
BRANCH  36  38
HETATM   38  C22 UNL     1       7.875   1.648   9.857  1.00  0.00     0.164 C
BRANCH  38  39
HETATM   39  C23 UNL     1       8.369   1.047   8.584  1.00  0.00     0.033 C
BRANCH  39  40
HETATM   40  C24 UNL     1       8.009   1.880   7.374  1.00  0.00     0.004 C
BRANCH  40  41
HETATM   41  C25 UNL     1       7.999   0.983   6.151  1.00  0.00     0.027 C
BRANCH  41  42
HETATM   42  C26 UNL     1       7.900   1.809   4.883  1.00  0.00     0.229 C
BRANCH  42  43
HETATM   43  N7  UNL     1       6.518   2.082   4.588  1.00  0.00    -0.079 N
ATOM     44  H73 UNL     1       6.091   1.344   4.028  1.00  0.00     0.274 HD
ATOM     45  H72 UNL     1       5.926   2.001   5.414  1.00  0.00     0.274 HD
ATOM     46  H71 UNL     1       6.434   2.997   4.143  1.00  0.00     0.274 HD
ENDBRANCH  42  43
ENDBRANCH  41  42
ENDBRANCH  40  41
ENDBRANCH  39  40
ENDBRANCH  38  39
BRANCH  38  47
HETATM   47  C27 UNL     1       8.262   0.858  11.072  1.00  0.00     0.236 C
HETATM   48  O5  UNL     1       9.412   0.376  11.131  1.00  0.00    -0.285 OA
BRANCH  47  49
HETATM   49  C28 UNL     1       7.293   0.669  12.152  1.00  0.00     0.302 C
HETATM   50  N8  UNL     1       6.607  -0.593  12.187  1.00  0.00    -0.054 NA
HETATM   51  O6  UNL     1       7.067   1.548  12.999  1.00  0.00    -0.268 OA
ENDBRANCH  47  49
ENDBRANCH  38  47
ENDBRANCH  36  38
ENDBRANCH  31  34
ENDBRANCH   1  27
BRANCH   1  52
HETATM   52  C29 UNL     1       0.833   0.954  11.629  1.00  0.00    -0.022 C
HETATM   53  C30 UNL     1      -0.204  -0.065  11.242  1.00  0.00     0.017 C
HETATM   54  C31 UNL     1       0.563   2.178  10.794  1.00  0.00     0.017 C
HETATM   55  C32 UNL     1       0.655   1.234  13.111  1.00  0.00     0.017 C
ENDBRANCH   1  52
TORSDOF 13
ENDMDL