MODEL 1
REMARK VINA RESULT: -10.280814934      0.000      0.000
REMARK  13 active torsions:
REMARK  status: ('A' for Active; 'I' for Inactive)
REMARK    1  A    between atoms: C2_2  and  C4_4
REMARK    2  A    between atoms: C4_4  and  C5_5
REMARK    3  A    between atoms: C5_5  and  C35_53
REMARK       I    between atoms: N1_6  and  C6_8
REMARK    4  A    between atoms: C6_8  and  C7_10
REMARK    5  A    between atoms: C7_10  and  C8_11
REMARK    6  A    between atoms: C7_10  and  N3_24
REMARK    7  A    between atoms: C8_11  and  C9_12
REMARK    8  A    between atoms: C9_12  and  C10_13
REMARK       I    between atoms: C10_13  and  N2_15
REMARK    9  A    between atoms: C11_16  and  O3_17
REMARK       I    between atoms: N3_24  and  C17_26
REMARK   10  A    between atoms: C17_26  and  C18_28
REMARK   11  A    between atoms: C27_40  and  C28_41
REMARK       I    between atoms: C28_41  and  N5_43
REMARK   12  A    between atoms: N5_43  and  C29_45
REMARK   13  A    between atoms: C29_45  and  C30_46
ROOT
HETATM    1  N3  UNL     1       5.750  -0.927  13.995  1.00  0.00    -0.346 N
ATOM      2  H3  UNL     1       5.749  -1.328  13.058  1.00  0.00     0.163 HD
HETATM    3  C17 UNL     1       5.111   0.327  14.221  1.00  0.00     0.250 C
HETATM    4  O4  UNL     1       5.135   0.782  15.394  1.00  0.00    -0.271 OA
ENDROOT
BRANCH   1   5
HETATM    5  C7  UNL     1       6.406  -1.648  15.082  1.00  0.00     0.177 C
BRANCH   5   6
HETATM    6  C6  UNL     1       5.889  -3.083  15.090  1.00  0.00     0.244 C
HETATM    7  N1  UNL     1       4.930  -3.486  15.979  1.00  0.00    -0.324 N
HETATM    8  C5  UNL     1       3.684  -3.722  15.896  1.00  0.00     0.077 C
ATOM      9  H1  UNL     1       5.299  -3.630  16.920  1.00  0.00     0.169 HD
HETATM   10  O1  UNL     1       6.390  -3.854  14.247  1.00  0.00    -0.271 OA
BRANCH   8  11
HETATM   11  C4  UNL     1       3.015  -4.148  17.135  1.00  0.00     0.066 C
BRANCH  11  12
HETATM   12  C2  UNL     1       3.422  -5.421  17.754  1.00  0.00    -0.017 C
HETATM   13  C1  UNL     1       3.153  -6.632  16.873  1.00  0.00     0.010 C
HETATM   14  C3  UNL     1       3.049  -5.709  19.159  1.00  0.00     0.010 C
ENDBRANCH  11  12
ENDBRANCH   8  11
BRANCH   8  15
HETATM   15  C35 UNL     1       2.989  -3.603  14.651  1.00  0.00     0.277 C
HETATM   16  N7  UNL     1       2.995  -2.414  13.852  1.00  0.00    -0.056 NA
HETATM   17  O7  UNL     1       2.315  -4.565  14.181  1.00  0.00    -0.270 OA
ENDBRANCH   8  15
ENDBRANCH   5   6
BRANCH   5  18
HETATM   18  C8  UNL     1       7.886  -1.675  14.971  1.00  0.00     0.044 C
BRANCH  18  19
HETATM   19  C9  UNL     1       8.621  -2.045  16.206  1.00  0.00     0.105 C
BRANCH  19  20
HETATM   20  C10 UNL     1       9.486  -3.220  16.135  1.00  0.00     0.222 C
HETATM   21  O2  UNL     1      10.540  -3.221  15.449  1.00  0.00    -0.273 OA
HETATM   22  N2  UNL     1       9.202  -4.427  16.825  1.00  0.00    -0.320 N
HETATM   23  C11 UNL     1       8.144  -4.859  17.708  1.00  0.00     0.229 C
HETATM   24  C16 UNL     1       9.790  -5.717  16.980  1.00  0.00     0.098 C
HETATM   25  C12 UNL     1       9.062  -5.947  18.294  1.00  0.00     0.057 C
HETATM   26  C13 UNL     1       8.487  -7.321  18.276  1.00  0.00     0.011 C
HETATM   27  C14 UNL     1       9.167  -7.985  17.103  1.00  0.00     0.003 C
HETATM   28  C15 UNL     1       9.294  -6.837  16.128  1.00  0.00     0.026 C
BRANCH  23  29
HETATM   29  O3  UNL     1       6.991  -5.337  17.144  1.00  0.00    -0.376 OA
ATOM     30  H3  UNL     1       6.296  -5.623  17.725  1.00  0.00     0.212 HD
ENDBRANCH  23  29
ENDBRANCH  19  20
ENDBRANCH  18  19
ENDBRANCH   5  18
ENDBRANCH   1   5
BRANCH   3  31
HETATM   31  C18 UNL     1       4.460   1.025  13.092  1.00  0.00     0.290 C
HETATM   32  N4  UNL     1       3.029   0.684  13.200  1.00  0.00    -0.057 N
HETATM   33  C19 UNL     1       2.266   1.595  12.413  1.00  0.00     0.195 C
ATOM     34  H42 UNL     1       2.844  -0.289  12.954  1.00  0.00     0.278 HD
ATOM     35  H41 UNL     1       2.712   0.652  14.169  1.00  0.00     0.278 HD
HETATM   36  C20 UNL     1       2.691   1.551  10.963  1.00  0.00     0.018 C
HETATM   37  C24 UNL     1       0.806   1.303  12.489  1.00  0.00     0.016 C
HETATM   38  C21 UNL     1       1.484   1.037  10.186  1.00  0.00     0.011 C
HETATM   39  C26 UNL     1       3.819   0.602  10.723  1.00  0.00     0.023 C
HETATM   40  C22 UNL     1       0.291   1.292  11.084  1.00  0.00    -0.013 C
HETATM   41  C23 UNL     1      -0.358   2.618  10.788  1.00  0.00     0.010 C
HETATM   42  C27 UNL     1       4.917   0.635  11.737  1.00  0.00     0.118 C
HETATM   43  C25 UNL     1       0.488  -0.024  13.138  1.00  0.00     0.012 C
BRANCH  42  44
HETATM   44  C28 UNL     1       6.066   1.468  11.254  1.00  0.00     0.225 C
HETATM   45  O5  UNL     1       7.243   1.332  11.664  1.00  0.00    -0.273 OA
HETATM   46  N5  UNL     1       5.819   2.469  10.276  1.00  0.00    -0.343 N
ATOM     47  H5  UNL     1       4.863   2.582   9.939  1.00  0.00     0.163 HD
BRANCH  46  48
HETATM   48  C29 UNL     1       6.835   3.334   9.731  1.00  0.00     0.111 C
HETATM   49  C31 UNL     1       8.176   2.668   9.582  1.00  0.00     0.040 C
HETATM   50  C32 UNL     1       8.778   3.194   8.299  1.00  0.00     0.003 C
HETATM   51  C33 UNL     1       7.597   3.522   7.445  1.00  0.00     0.003 C
HETATM   52  C34 UNL     1       6.457   3.866   8.368  1.00  0.00     0.040 C
BRANCH  48  53
HETATM   53  C30 UNL     1       7.015   4.497  10.627  1.00  0.00     0.259 C
HETATM   54  N6  UNL     1       5.857   5.105  11.170  1.00  0.00    -0.060 NA
HETATM   55  O6  UNL     1       8.177   4.902  10.873  1.00  0.00    -0.274 OA
ENDBRANCH  48  53
ENDBRANCH  46  48
ENDBRANCH  42  44
ENDBRANCH   3  31
TORSDOF 13
ENDMDL