MODEL 5
REMARK VINA RESULT: -9.387203751      2.171      4.372
REMARK  14 active torsions:
REMARK  status: ('A' for Active; 'I' for Inactive)
REMARK    1  A    between atoms: C2_2  and  N1_3
REMARK    2  A    between atoms: C2_2  and  C16_30
REMARK    3  A    between atoms: N1_3  and  S1_5
REMARK    4  A    between atoms: S1_5  and  N2_8
REMARK    5  A    between atoms: C5_11  and  C6_12
REMARK    6  A    between atoms: C6_12  and  N3_13
REMARK       I    between atoms: N3_13  and  C7_15
REMARK    7  A    between atoms: C7_15  and  C8_17
REMARK       I    between atoms: N4_22  and  C13_23
REMARK       I    between atoms: C16_30  and  N7_32
REMARK    8  A    between atoms: N7_32  and  C17_34
REMARK    9  A    between atoms: C17_34  and  C18_35
REMARK   10  A    between atoms: C17_34  and  C25_42
REMARK   11  A    between atoms: C18_35  and  C19_36
REMARK       I    between atoms: C25_42  and  N8_44
REMARK   12  A    between atoms: C29_48  and  C30_49
REMARK   13  A    between atoms: C30_49  and  O6_50
REMARK   14  A    between atoms: N9_52  and  O7_54
ROOT
HETATM    1  C1  UNL     1       5.313   0.373  15.440  1.00  0.00     0.043 C
HETATM    2  C2  UNL     1       5.638  -0.397  14.183  1.00  0.00     0.181 C
ENDROOT
BRANCH   2   3
HETATM    3  N1  UNL     1       7.026  -0.144  13.845  1.00  0.00    -0.293 N
ATOM      4  H1  UNL     1       7.763   0.020  14.531  1.00  0.00     0.174 HD
BRANCH   3   5
HETATM    5  S1  UNL     1       7.274  -0.156  12.139  1.00  0.00     0.299 S
HETATM    6  O1  UNL     1       8.324  -1.158  11.740  1.00  0.00    -0.188 OA
HETATM    7  O2  UNL     1       6.033  -0.462  11.379  1.00  0.00    -0.188 OA
BRANCH   5   8
HETATM    8  N2  UNL     1       7.880   1.408  11.689  1.00  0.00    -0.193 NA
HETATM    9  C3  UNL     1       7.536   1.745  10.346  1.00  0.00     0.109 C
HETATM   10  C4  UNL     1       7.439   3.220  10.067  1.00  0.00     0.022 C
HETATM   11  C5  UNL     1       6.583   3.986  11.017  1.00  0.00     0.006 C
HETATM   12  C14 UNL     1       6.284   3.125  12.231  1.00  0.00     0.022 C
HETATM   13  C15 UNL     1       7.509   2.366  12.681  1.00  0.00     0.109 C
BRANCH  11  14
HETATM   14  C6  UNL     1       5.327   4.522  10.415  1.00  0.00     0.127 C
BRANCH  14  15
HETATM   15  N3  UNL     1       4.212   3.666  10.745  1.00  0.00    -0.359 N
HETATM   16  C7  UNL     1       2.901   3.870  10.240  1.00  0.00     0.246 C
HETATM   17  O3  UNL     1       2.822   4.891   9.462  1.00  0.00    -0.271 OA
ATOM     18  H3  UNL     1       4.374   2.876  11.371  1.00  0.00     0.162 HD
BRANCH  16  19
HETATM   19  C8  UNL     1       1.723   3.017  10.554  1.00  0.00     0.120 A
HETATM   20  C9  UNL     1       0.451   3.605  10.321  1.00  0.00     0.049 A
HETATM   21  C10 UNL     1       0.762   2.646   9.347  1.00  0.00     0.028 A
HETATM   22  C11 UNL     1       1.924   2.283   8.501  1.00  0.00     0.027 C
HETATM   23  C12 UNL     1       2.536   1.222   9.447  1.00  0.00     0.127 C
HETATM   24  N4  UNL     1       2.119   1.675  10.759  1.00  0.00    -0.337 N
HETATM   25  C13 UNL     1       2.111   0.945  11.960  1.00  0.00     0.185 C
HETATM   26  N5  UNL     1       1.335  -0.046  12.204  1.00  0.00    -0.374 N
HETATM   27  N6  UNL     1       3.022   1.301  13.015  1.00  0.00    -0.064 NA
ATOM     28  H52 UNL     1       0.690  -0.298  11.456  1.00  0.00     0.158 HD
ATOM     29  H51 UNL     1       1.330  -0.576  13.075  1.00  0.00     0.158 HD
ENDBRANCH  16  19
ENDBRANCH  14  15
ENDBRANCH  11  14
ENDBRANCH   5   8
ENDBRANCH   3   5
ENDBRANCH   2   3
BRANCH   2  30
HETATM   30  C16 UNL     1       5.392  -1.835  14.381  1.00  0.00     0.241 C
HETATM   31  O4  UNL     1       4.757  -2.476  13.520  1.00  0.00    -0.271 OA
HETATM   32  N7  UNL     1       5.864  -2.492  15.527  1.00  0.00    -0.346 N
ATOM     33  H7  UNL     1       6.383  -1.966  16.230  1.00  0.00     0.163 HD
BRANCH  32  34
HETATM   34  C17 UNL     1       5.618  -3.945  15.733  1.00  0.00     0.177 C
BRANCH  34  35
HETATM   35  C18 UNL     1       4.468  -4.020  16.674  1.00  0.00     0.039 C
BRANCH  35  36
HETATM   36  C19 UNL     1       3.948  -5.309  17.124  1.00  0.00    -0.012 C
HETATM   37  C20 UNL     1       3.042  -5.293  18.334  1.00  0.00     0.005 C
HETATM   38  C21 UNL     1       3.216  -6.674  18.999  1.00  0.00     0.000 C
HETATM   39  C22 UNL     1       2.722  -7.716  18.011  1.00  0.00     0.000 C
HETATM   40  C23 UNL     1       3.483  -7.642  16.697  1.00  0.00     0.000 C
HETATM   41  C24 UNL     1       3.327  -6.217  16.116  1.00  0.00     0.005 C
ENDBRANCH  35  36
ENDBRANCH  34  35
BRANCH  34  42
HETATM   42  C25 UNL     1       6.913  -4.415  16.319  1.00  0.00     0.243 C
HETATM   43  O5  UNL     1       6.885  -4.693  17.541  1.00  0.00    -0.271 OA
HETATM   44  N8  UNL     1       8.056  -4.519  15.541  1.00  0.00    -0.338 N
HETATM   45  C26 UNL     1       8.251  -4.185  14.119  1.00  0.00     0.127 C
HETATM   46  C29 UNL     1       9.371  -4.985  15.920  1.00  0.00     0.163 C
HETATM   47  C27 UNL     1       9.431  -3.227  14.240  1.00  0.00     0.022 C
HETATM   48  C28 UNL     1      10.272  -3.910  15.326  1.00  0.00     0.035 C
BRANCH  46  49
HETATM   49  C30 UNL     1       9.607  -5.273  17.313  1.00  0.00     0.159 C
HETATM   50  N9  UNL     1       9.289  -6.432  17.801  1.00  0.00    -0.249 N
ATOM     51  H9  UNL     1       8.873  -7.127  17.180  1.00  0.00     0.196 HD
BRANCH  49  52
HETATM   52  O6  UNL     1      10.167  -4.353  18.170  1.00  0.00    -0.347 OA
ATOM     53  H6  UNL     1       9.790  -3.492  18.308  1.00  0.00     0.219 HD
ENDBRANCH  49  52
BRANCH  50  54
HETATM   54  O7  UNL     1       9.490  -6.761  19.115  1.00  0.00    -0.288 OA
ATOM     55  H7  UNL     1       8.785  -6.789  19.751  1.00  0.00     0.244 HD
ENDBRANCH  50  54
ENDBRANCH  46  49
ENDBRANCH  34  42
ENDBRANCH  32  34
ENDBRANCH   2  30
TORSDOF 14
ENDMDL