MODEL 3
REMARK VINA RESULT: -9.498137406      3.821      7.260
REMARK  16 active torsions:
REMARK  status: ('A' for Active; 'I' for Inactive)
REMARK       I    between atoms: C1_4  and  N3_6
REMARK    1  A    between atoms: C6_11  and  C7_12
REMARK    2  A    between atoms: C7_12  and  O1_13
REMARK    3  A    between atoms: C7_12  and  N4_15
REMARK    4  A    between atoms: N4_15  and  C8_17
REMARK    5  A    between atoms: C8_17  and  C9_18
REMARK    6  A    between atoms: C8_17  and  C15_25
REMARK    7  A    between atoms: C9_18  and  N5_19
REMARK    8  A    between atoms: C15_25  and  O2_26
REMARK    9  A    between atoms: C15_25  and  N6_28
REMARK   10  A    between atoms: C19_32  and  C20_33
REMARK       I    between atoms: C20_33  and  N7_35
REMARK   11  A    between atoms: N7_35  and  C21_37
REMARK   12  A    between atoms: C21_37  and  C22_38
REMARK   13  A    between atoms: C21_37  and  C25_43
REMARK   14  A    between atoms: C22_38  and  C23_39
REMARK   15  A    between atoms: C23_39  and  C24_40
REMARK       I    between atoms: C25_43  and  N8_45
REMARK   16  A    between atoms: N8_45  and  C26_47
ROOT
HETATM    1  N6  UNL     1       2.718   1.834  12.107  1.00  0.00    -0.350 N
HETATM    2  C16 UNL     1       1.364   2.083  12.455  1.00  0.00     0.126 C
HETATM    3  C17 UNL     1       0.656   0.746  12.480  1.00  0.00     0.022 C
HETATM    4  C18 UNL     1       1.596  -0.256  11.906  1.00  0.00     0.037 C
HETATM    5  C19 UNL     1       2.948   0.399  12.101  1.00  0.00     0.178 C
ENDROOT
BRANCH   1   6
HETATM    6  C15 UNL     1       3.764   2.724  11.769  1.00  0.00     0.139 C
BRANCH   6   7
HETATM    7  C8  UNL     1       5.022   2.469  11.046  1.00  0.00     0.186 C
BRANCH   7   8
HETATM    8  N4  UNL     1       4.826   2.698   9.604  1.00  0.00    -0.359 N
ATOM      9  H4  UNL     1       4.872   1.889   8.986  1.00  0.00     0.162 HD
BRANCH   8  10
HETATM   10  C7  UNL     1       4.582   3.952   9.021  1.00  0.00     0.135 C
BRANCH  10  11
HETATM   11  C6  UNL     1       3.668   4.287   7.955  1.00  0.00     0.161 C
HETATM   12  N3  UNL     1       2.300   3.962   7.998  1.00  0.00    -0.344 N
HETATM   13  C1  UNL     1       1.417   3.759   9.076  1.00  0.00     0.184 C
HETATM   14  C2  UNL     1       1.678   3.847   6.637  1.00  0.00     0.126 C
HETATM   15  N1  UNL     1       1.198   4.698   9.979  1.00  0.00    -0.374 N
HETATM   16  N2  UNL     1       0.679   2.562   9.280  1.00  0.00    -0.064 NA
ATOM     17  H12 UNL     1       0.558   4.551  10.760  1.00  0.00     0.158 HD
ATOM     18  H11 UNL     1       1.727   5.557   9.832  1.00  0.00     0.158 HD
HETATM   19  C3  UNL     1       1.748   5.249   6.082  1.00  0.00     0.020 C
HETATM   20  C4  UNL     1       2.441   6.241   6.951  1.00  0.00     0.004 C
HETATM   21  C5  UNL     1       3.739   5.769   7.557  1.00  0.00     0.034 C
ENDBRANCH  10  11
BRANCH  10  22
HETATM   22  O1  UNL     1       5.248   4.984   9.468  1.00  0.00    -0.348 OA
ATOM     23  H1  UNL     1       5.910   4.751  10.109  1.00  0.00     0.219 HD
ENDBRANCH  10  22
ENDBRANCH   8  10
ENDBRANCH   7   8
BRANCH   7  24
HETATM   24  C9  UNL     1       6.232   3.123  11.571  1.00  0.00     0.305 C
BRANCH  24  25
HETATM   25  N5  UNL     1       7.431   2.261  11.349  1.00  0.00     0.090 N
HETATM   26  C10 UNL     1       6.995   0.871  11.288  1.00  0.00     0.272 C
HETATM   27  C11 UNL     1       8.232  -0.012  11.414  1.00  0.00     0.030 C
HETATM   28  C12 UNL     1       9.259   0.458  10.395  1.00  0.00     0.003 C
HETATM   29  C13 UNL     1       8.631   1.371   9.390  1.00  0.00     0.030 C
HETATM   30  C14 UNL     1       7.996   2.586  10.030  1.00  0.00     0.272 C
ENDBRANCH  24  25
ENDBRANCH   7  24
ENDBRANCH   6   7
BRANCH   6  31
HETATM   31  O2  UNL     1       3.666   3.978  12.121  1.00  0.00    -0.348 OA
ATOM     32  H2  UNL     1       3.888   4.097  13.037  1.00  0.00     0.219 HD
ENDBRANCH   6  31
ENDBRANCH   1   6
BRANCH   5  33
HETATM   33  C20 UNL     1       3.503  -0.061  13.358  1.00  0.00     0.241 C
HETATM   34  O3  UNL     1       3.818   0.817  14.241  1.00  0.00    -0.271 OA
HETATM   35  N7  UNL     1       3.733  -1.407  13.689  1.00  0.00    -0.346 N
ATOM     36  H7  UNL     1       3.505  -2.146  13.023  1.00  0.00     0.163 HD
BRANCH  35  37
HETATM   37  C21 UNL     1       4.292  -1.736  14.972  1.00  0.00     0.177 C
BRANCH  37  38
HETATM   38  C22 UNL     1       3.508  -2.562  15.889  1.00  0.00     0.045 C
BRANCH  38  39
HETATM   39  C23 UNL     1       2.844  -3.797  15.458  1.00  0.00     0.116 C
BRANCH  39  40
HETATM   40  C24 UNL     1       3.408  -5.081  15.819  1.00  0.00     0.172 C
HETATM   41  O4  UNL     1       4.545  -5.487  15.450  1.00  0.00    -0.648 OA
HETATM   42  O5  UNL     1       2.715  -6.002  16.630  1.00  0.00    -0.648 OA
ENDBRANCH  39  40
ENDBRANCH  38  39
ENDBRANCH  37  38
BRANCH  37  43
HETATM   43  C25 UNL     1       5.728  -2.161  14.820  1.00  0.00     0.241 C
HETATM   44  O6  UNL     1       6.373  -1.672  13.876  1.00  0.00    -0.271 OA
HETATM   45  N8  UNL     1       6.317  -3.067  15.713  1.00  0.00    -0.350 N
ATOM     46  H8  UNL     1       5.736  -3.437  16.464  1.00  0.00     0.163 HD
BRANCH  45  47
HETATM   47  C26 UNL     1       7.676  -3.511  15.644  1.00  0.00     0.034 C
HETATM   48  C27 UNL     1       7.970  -4.110  14.311  1.00  0.00     0.035 C
HETATM   49  C28 UNL     1       9.385  -4.662  14.273  1.00  0.00    -0.012 C
HETATM   50  C29 UNL     1      10.327  -3.503  14.520  1.00  0.00     0.009 C
HETATM   51  C33 UNL     1       9.536  -5.728  15.316  1.00  0.00     0.009 C
HETATM   52  C30 UNL     1      10.042  -2.912  15.879  1.00  0.00    -0.012 C
HETATM   53  C31 UNL     1      10.297  -4.007  16.917  1.00  0.00     0.009 C
HETATM   54  C35 UNL     1       8.641  -2.388  15.993  1.00  0.00     0.035 C
HETATM   55  C32 UNL     1       9.298  -5.098  16.671  1.00  0.00    -0.012 C
HETATM   56  C34 UNL     1       7.899  -4.582  16.719  1.00  0.00     0.035 C
ENDBRANCH  45  47
ENDBRANCH  37  43
ENDBRANCH  35  37
ENDBRANCH   5  33
TORSDOF 16
ENDMDL