MODEL 5
REMARK VINA RESULT: -9.567097688      2.150      4.372
REMARK  13 active torsions:
REMARK  status: ('A' for Active; 'I' for Inactive)
REMARK       I    between atoms: C2_2  and  N1_4
REMARK    1  A    between atoms: N1_4  and  C3_6
REMARK    2  A    between atoms: C3_6  and  C4_7
REMARK    3  A    between atoms: C4_7  and  N2_8
REMARK    4  A    between atoms: C4_7  and  C14_28
REMARK       I    between atoms: N2_8  and  C5_10
REMARK    5  A    between atoms: C5_10  and  C6_12
REMARK    6  A    between atoms: N3_16  and  S1_17
REMARK    7  A    between atoms: S1_17  and  N4_20
REMARK    8  A    between atoms: N4_20  and  C10_22
REMARK    9  A    between atoms: C10_22  and  C13_25
REMARK       I    between atoms: C14_28  and  N5_30
REMARK   10  A    between atoms: N5_30  and  C15_32
REMARK   11  A    between atoms: C15_32  and  C16_33
REMARK       I    between atoms: C16_33  and  N6_35
REMARK   12  A    between atoms: N6_35  and  C17_37
REMARK   13  A    between atoms: C17_37  and  C18_38
ROOT
HETATM    1  C4  UNL     1       6.956  -2.196  12.934  1.00  0.00     0.194 C
ENDROOT
BRANCH   1   2
HETATM    2  C3  UNL     1       8.399  -2.633  13.178  1.00  0.00     0.157 C
BRANCH   2   3
HETATM    3  N1  UNL     1       8.707  -2.675  14.578  1.00  0.00    -0.359 N
HETATM    4  C2  UNL     1       9.774  -3.461  15.052  1.00  0.00     0.213 C
HETATM    5  C1  UNL     1      10.121  -3.529  16.502  1.00  0.00     0.117 C
HETATM    6  O1  UNL     1      10.460  -4.127  14.238  1.00  0.00    -0.274 OA
ATOM      7  H1  UNL     1       8.148  -2.132  15.236  1.00  0.00     0.162 HD
ENDBRANCH   2   3
ENDBRANCH   1   2
BRANCH   1   8
HETATM    8  N2  UNL     1       6.158  -2.613  14.059  1.00  0.00    -0.342 N
HETATM    9  C5  UNL     1       4.753  -2.829  13.983  1.00  0.00     0.260 C
HETATM   10  O2  UNL     1       4.230  -2.643  12.868  1.00  0.00    -0.267 OA
ATOM     11  H2  UNL     1       6.623  -2.760  14.955  1.00  0.00     0.163 HD
BRANCH   9  12
HETATM   12  C6  UNL     1       3.993  -3.238  15.138  1.00  0.00     0.072 C
HETATM   13  C7  UNL     1       3.398  -2.125  15.974  1.00  0.00     0.059 C
HETATM   14  C8  UNL     1       2.877  -2.883  17.177  1.00  0.00     0.022 C
HETATM   15  C9  UNL     1       3.383  -4.302  16.986  1.00  0.00     0.115 C
HETATM   16  N3  UNL     1       4.463  -4.196  16.032  1.00  0.00    -0.158 NA
BRANCH  16  17
HETATM   17  S1  UNL     1       5.952  -4.157  16.753  1.00  0.00     0.304 S
HETATM   18  O3  UNL     1       6.588  -2.777  16.810  1.00  0.00    -0.188 OA
HETATM   19  O4  UNL     1       6.914  -4.898  15.780  1.00  0.00    -0.188 OA
BRANCH  17  20
HETATM   20  N4  UNL     1       6.132  -4.982  18.233  1.00  0.00    -0.287 N
ATOM     21  H4  UNL     1       6.270  -4.481  19.110  1.00  0.00     0.174 HD
BRANCH  20  22
HETATM   22  C10 UNL     1       6.083  -6.394  18.185  1.00  0.00     0.122 C
HETATM   23  C11 UNL     1       5.364  -7.018  17.018  1.00  0.00     0.050 C
HETATM   24  C12 UNL     1       5.225  -6.808  19.419  1.00  0.00     0.050 C
BRANCH  22  25
HETATM   25  C13 UNL     1       7.394  -7.047  18.421  1.00  0.00     0.202 C
HETATM   26  O5  UNL     1       7.497  -8.278  18.352  1.00  0.00    -0.646 OA
HETATM   27  O6  UNL     1       8.490  -6.270  18.717  1.00  0.00    -0.646 OA
ENDBRANCH  22  25
ENDBRANCH  20  22
ENDBRANCH  17  20
ENDBRANCH  16  17
ENDBRANCH   9  12
ENDBRANCH   1   8
BRANCH   1  28
HETATM   28  C14 UNL     1       6.959  -0.704  12.844  1.00  0.00     0.243 C
HETATM   29  O7  UNL     1       6.935  -0.074  13.911  1.00  0.00    -0.271 OA
HETATM   30  N5  UNL     1       6.988  -0.037  11.598  1.00  0.00    -0.341 N
ATOM     31  H5  UNL     1       7.004  -0.611  10.755  1.00  0.00     0.163 HD
BRANCH  30  32
HETATM   32  C15 UNL     1       6.995   1.379  11.432  1.00  0.00     0.114 A
HETATM   33  C31 UNL     1       8.181   2.192  11.839  1.00  0.00     0.044 A
HETATM   34  C32 UNL     1       8.019   1.874  10.411  1.00  0.00     0.044 A
BRANCH  32  35
HETATM   35  C16 UNL     1       5.717   2.163  11.375  1.00  0.00     0.246 C
HETATM   36  O8  UNL     1       5.786   3.263  12.007  1.00  0.00    -0.271 OA
HETATM   37  N6  UNL     1       4.623   1.682  10.694  1.00  0.00    -0.348 N
ATOM     38  H6  UNL     1       4.770   0.769  10.263  1.00  0.00     0.163 HD
BRANCH  37  39
HETATM   39  C17 UNL     1       3.285   2.237  10.473  1.00  0.00     0.047 C
HETATM   40  C22 UNL     1       2.433   1.124   9.976  1.00  0.00     0.015 C
HETATM   41  C23 UNL     1       0.952   1.352  10.017  1.00  0.00     0.012 C
HETATM   42  C27 UNL     1       2.627  -0.094  10.889  1.00  0.00     0.012 C
HETATM   43  C24 UNL     1       0.441   1.753  11.359  1.00  0.00    -0.013 C
HETATM   44  C25 UNL     1       0.650   0.554  12.283  1.00  0.00     0.009 C
HETATM   45  C30 UNL     1       1.269   2.914  11.880  1.00  0.00     0.012 C
HETATM   46  C26 UNL     1       2.110   0.231  12.265  1.00  0.00    -0.013 C
HETATM   47  C28 UNL     1       2.852   1.441  12.790  1.00  0.00     0.012 C
HETATM   48  C29 UNL     1       2.727   2.633  11.831  1.00  0.00     0.015 C
BRANCH  39  49
HETATM   49  C18 UNL     1       3.448   3.330   9.515  1.00  0.00    -0.025 C
HETATM   50  C19 UNL     1       4.719   3.460   8.734  1.00  0.00     0.017 C
HETATM   51  C20 UNL     1       2.444   3.012   8.326  1.00  0.00     0.017 C
HETATM   52  C21 UNL     1       3.040   4.715   9.867  1.00  0.00     0.017 C
ENDBRANCH  39  49
ENDBRANCH  37  39
ENDBRANCH  32  35
ENDBRANCH  30  32
ENDBRANCH   1  28
TORSDOF 13
ENDMDL