MODEL 4
REMARK VINA RESULT: -10.266319790      0.773      1.033
REMARK  13 active torsions:
REMARK  status: ('A' for Active; 'I' for Inactive)
REMARK    1  A    between atoms: C2_2  and  C3_3
REMARK    2  A    between atoms: C3_3  and  C4_4
REMARK    3  A    between atoms: C4_4  and  C5_5
REMARK    4  A    between atoms: C5_5  and  N1_6
REMARK    5  A    between atoms: C5_5  and  C23_40
REMARK       I    between atoms: N1_6  and  C6_8
REMARK    6  A    between atoms: C6_8  and  C7_10
REMARK    7  A    between atoms: C11_14  and  N2_16
REMARK       I    between atoms: N2_16  and  C13_18
REMARK    8  A    between atoms: C13_18  and  C14_20
REMARK       I    between atoms: C14_20  and  N3_22
REMARK    9  A    between atoms: N3_22  and  C15_24
REMARK   10  A    between atoms: C15_24  and  C16_25
REMARK       I    between atoms: N4_29  and  C20_30
REMARK   11  A    between atoms: C23_40  and  C24_42
REMARK       I    between atoms: C24_42  and  N8_44
REMARK   12  A    between atoms: N8_44  and  C25_46
REMARK   13  A    between atoms: C25_46  and  C26_47
ROOT
HETATM    1  C7  UNL     1       3.179  -3.645  16.382  1.00  0.00     0.176 C
HETATM    2  C8  UNL     1       3.267  -4.140  14.903  1.00  0.00     0.035 C
HETATM    3  C9  UNL     1       2.977  -3.065  13.925  1.00  0.00     0.006 C
HETATM    4  C10 UNL     1       4.245  -2.294  13.621  1.00  0.00     0.041 C
HETATM    5  C11 UNL     1       4.293  -1.094  14.555  1.00  0.00     0.110 C
HETATM    6  C12 UNL     1       2.948  -0.422  14.704  1.00  0.00     0.049 C
HETATM    7  C22 UNL     1       4.721  -1.579  15.870  1.00  0.00     0.246 C
HETATM    8  O4  UNL     1       5.585  -0.860  16.442  1.00  0.00    -0.271 OA
HETATM    9  N7  UNL     1       4.304  -2.745  16.586  1.00  0.00    -0.346 N
ATOM     10  H7  UNL     1       4.899  -2.987  17.378  1.00  0.00     0.163 HD
ENDROOT
BRANCH   1  11
HETATM   11  C6  UNL     1       3.431  -4.906  17.131  1.00  0.00     0.241 C
HETATM   12  N1  UNL     1       4.026  -6.040  16.552  1.00  0.00    -0.347 N
ATOM     13  H1  UNL     1       4.221  -5.964  15.553  1.00  0.00     0.163 HD
HETATM   14  O1  UNL     1       3.073  -4.895  18.367  1.00  0.00    -0.271 OA
BRANCH  12  15
HETATM   15  C5  UNL     1       4.392  -7.264  17.138  1.00  0.00     0.164 C
BRANCH  15  16
HETATM   16  C4  UNL     1       3.144  -7.972  17.595  1.00  0.00     0.033 C
BRANCH  16  17
HETATM   17  C3  UNL     1       3.019  -9.403  17.156  1.00  0.00     0.002 C
BRANCH  17  18
HETATM   18  C2  UNL     1       3.903  -9.578  15.897  1.00  0.00    -0.004 C
HETATM   19  C1  UNL     1       3.739 -10.940  15.285  1.00  0.00     0.005 C
ENDBRANCH  17  18
ENDBRANCH  16  17
ENDBRANCH  15  16
BRANCH  15  20
HETATM   20  C23 UNL     1       5.171  -7.085  18.462  1.00  0.00     0.238 C
HETATM   21  O5  UNL     1       4.628  -7.416  19.526  1.00  0.00    -0.285 OA
BRANCH  20  22
HETATM   22  C24 UNL     1       6.510  -6.526  18.325  1.00  0.00     0.289 C
HETATM   23  O6  UNL     1       6.926  -5.714  19.204  1.00  0.00    -0.264 OA
HETATM   24  N8  UNL     1       7.372  -6.845  17.252  1.00  0.00    -0.354 N
ATOM     25  H8  UNL     1       7.102  -7.499  16.517  1.00  0.00     0.162 HD
BRANCH  24  26
HETATM   26  C25 UNL     1       8.674  -6.179  17.259  1.00  0.00     0.132 C
BRANCH  26  27
HETATM   27  C26 UNL     1       8.783  -5.072  16.249  1.00  0.00    -0.023 C
HETATM   28  C27 UNL     1       7.475  -4.473  15.866  1.00  0.00     0.015 C
HETATM   29  C28 UNL     1       7.734  -3.316  14.943  1.00  0.00    -0.013 C
HETATM   30  C29 UNL     1       8.399  -3.835  13.678  1.00  0.00     0.009 C
HETATM   31  C33 UNL     1       8.609  -2.305  15.604  1.00  0.00     0.009 C
HETATM   32  C30 UNL     1       9.682  -4.527  14.042  1.00  0.00    -0.013 C
HETATM   33  C31 UNL     1      10.593  -3.498  14.669  1.00  0.00     0.009 C
HETATM   34  C35 UNL     1       9.484  -5.634  15.030  1.00  0.00     0.015 C
HETATM   35  C32 UNL     1       9.956  -2.938  15.906  1.00  0.00    -0.013 C
HETATM   36  C34 UNL     1       9.716  -4.033  16.880  1.00  0.00     0.015 C
ENDBRANCH  26  27
ENDBRANCH  24  26
ENDBRANCH  20  22
ENDBRANCH  15  20
ENDBRANCH  12  15
ENDBRANCH   1  11
BRANCH   5  37
HETATM   37  N2  UNL     1       5.188  -0.137  13.945  1.00  0.00    -0.335 N
HETATM   38  C13 UNL     1       6.052  -0.386  12.861  1.00  0.00     0.310 C
HETATM   39  O2  UNL     1       6.137  -1.486  12.330  1.00  0.00    -0.262 OA
ATOM     40  H2  UNL     1       5.193   0.806  14.334  1.00  0.00     0.164 HD
BRANCH  38  41
HETATM   41  C14 UNL     1       6.909   0.716  12.313  1.00  0.00     0.313 C
HETATM   42  O3  UNL     1       7.796   0.364  11.540  1.00  0.00    -0.262 OA
HETATM   43  N3  UNL     1       6.688   2.042  12.673  1.00  0.00    -0.332 N
ATOM     44  H3  UNL     1       5.915   2.160  13.329  1.00  0.00     0.168 HD
BRANCH  43  45
HETATM   45  C15 UNL     1       7.307   3.250  12.321  1.00  0.00     0.070 C
BRANCH  45  46
HETATM   46  C16 UNL     1       6.776   4.183  11.328  1.00  0.00     0.042 C
HETATM   47  C17 UNL     1       5.491   4.873  11.505  1.00  0.00     0.013 C
HETATM   48  C18 UNL     1       4.289   3.938  11.410  1.00  0.00     0.021 C
HETATM   49  C19 UNL     1       4.211   3.401  10.008  1.00  0.00     0.125 C
HETATM   50  N4  UNL     1       5.455   3.710   9.300  1.00  0.00    -0.355 N
HETATM   51  C20 UNL     1       5.382   4.266   7.969  1.00  0.00     0.183 C
HETATM   52  C21 UNL     1       6.700   3.457   9.955  1.00  0.00     0.135 C
HETATM   53  N5  UNL     1       4.530   3.811   7.161  1.00  0.00    -0.374 N
HETATM   54  N6  UNL     1       6.285   5.303   7.649  1.00  0.00    -0.064 NA
ATOM     55  H52 UNL     1       3.877   3.061   7.392  1.00  0.00     0.158 HD
ATOM     56  H51 UNL     1       4.479   4.203   6.221  1.00  0.00     0.158 HD
ENDBRANCH  45  46
ENDBRANCH  43  45
ENDBRANCH  38  41
ENDBRANCH   5  37
TORSDOF 13
ENDMDL