MODEL 3
REMARK VINA RESULT: -10.496037848      1.676      2.005
REMARK  17 active torsions:
REMARK  status: ('A' for Active; 'I' for Inactive)
REMARK    1  A    between atoms: C5_5  and  N1_6
REMARK       I    between atoms: N1_6  and  C6_8
REMARK    2  A    between atoms: C6_8  and  C7_10
REMARK    3  A    between atoms: C7_10  and  C8_11
REMARK    4  A    between atoms: C8_11  and  C9_12
REMARK    5  A    between atoms: C9_12  and  C10_13
REMARK    6  A    between atoms: C9_12  and  N4_45
REMARK    7  A    between atoms: C10_13  and  C11_14
REMARK    8  A    between atoms: C11_14  and  C12_15
REMARK    9  A    between atoms: C12_15  and  C13_16
REMARK   10  A    between atoms: C13_16  and  N2_17
REMARK       I    between atoms: N2_17  and  C14_18
REMARK   11  A    between atoms: C14_18  and  C15_20
REMARK   12  A    between atoms: C17_22  and  O3_23
REMARK   13  A    between atoms: C22_30  and  C23_31
REMARK   14  A    between atoms: C23_31  and  C24_32
REMARK       I    between atoms: C24_32  and  N3_34
REMARK   15  A    between atoms: N3_34  and  C25_36
REMARK   16  A    between atoms: N4_45  and  S1_47
REMARK   17  A    between atoms: S1_47  and  N5_48
ROOT
HETATM    1  N2  UNL     1       5.008  -0.169  12.748  1.00  0.00    -0.415 NA
HETATM    2  C14 UNL     1       4.267   0.797  13.512  1.00  0.00     0.292 C
HETATM    3  O2  UNL     1       4.276   0.687  14.672  1.00  0.00    -0.257 OA
ENDROOT
BRANCH   1   4
HETATM    4  C13 UNL     1       5.737  -1.130  12.142  1.00  0.00     0.221 C
BRANCH   4   5
HETATM    5  C12 UNL     1       7.250  -0.747  11.978  1.00  0.00     0.033 C
BRANCH   5   6
HETATM    6  C11 UNL     1       8.125  -1.556  12.838  1.00  0.00     0.005 C
BRANCH   6   7
HETATM    7  C10 UNL     1       7.685  -2.814  13.398  1.00  0.00     0.026 C
BRANCH   7   8
HETATM    8  C9  UNL     1       7.754  -2.872  15.100  1.00  0.00     0.098 C
BRANCH   8   9
HETATM    9  C8  UNL     1       8.566  -4.409  15.149  1.00  0.00     0.058 C
BRANCH   9  10
HETATM   10  C7  UNL     1       9.365  -4.420  16.338  1.00  0.00     0.050 C
BRANCH  10  11
HETATM   11  C6  UNL     1       9.353  -5.565  17.315  1.00  0.00     0.243 C
HETATM   12  N1  UNL     1       9.179  -6.841  16.749  1.00  0.00    -0.310 N
ATOM     13  H1  UNL     1       9.614  -7.009  15.842  1.00  0.00     0.170 HD
HETATM   14  O1  UNL     1       9.489  -5.340  18.507  1.00  0.00    -0.269 OA
BRANCH  12  15
HETATM   15  C5  UNL     1       8.496  -7.849  17.288  1.00  0.00     0.107 A
HETATM   16  C4  UNL     1       9.106  -9.041  17.573  1.00  0.00     0.049 A
HETATM   17  C3  UNL     1       8.389 -10.045  18.146  1.00  0.00     0.012 A
HETATM   18  C2  UNL     1       7.039  -9.841  18.439  1.00  0.00    -0.046 A
HETATM   19  C1  UNL     1       6.212 -10.978  18.991  1.00  0.00     0.049 C
HETATM   20  C34 UNL     1       6.427  -8.673  18.168  1.00  0.00     0.096 A
HETATM   21  N6  UNL     1       7.259  -7.643  17.545  1.00  0.00    -0.352 N
ATOM     22  H6  UNL     1       6.844  -6.742  17.311  1.00  0.00     0.166 HD
ENDBRANCH  12  15
ENDBRANCH  10  11
ENDBRANCH   9  10
ENDBRANCH   8   9
BRANCH   8  23
HETATM   23  N4  UNL     1       6.511  -3.346  15.235  1.00  0.00    -0.298 N
ATOM     24  H4  UNL     1       6.358  -4.211  14.717  1.00  0.00     0.174 HD
BRANCH  23  25
HETATM   25  S1  UNL     1       5.180  -2.847  16.049  1.00  0.00     0.313 S
HETATM   26  O6  UNL     1       4.422  -3.862  16.897  1.00  0.00    -0.183 OA
HETATM   27  O7  UNL     1       4.087  -2.590  14.949  1.00  0.00    -0.183 OA
BRANCH  25  28
HETATM   28  N5  UNL     1       5.213  -1.377  16.895  1.00  0.00    -0.312 N
ATOM     29  H52 UNL     1       5.995  -1.181  17.520  1.00  0.00     0.170 HD
ATOM     30  H51 UNL     1       4.455  -0.705  16.772  1.00  0.00     0.170 HD
ENDBRANCH  25  28
ENDBRANCH  23  25
ENDBRANCH   8  23
ENDBRANCH   7   8
ENDBRANCH   6   7
ENDBRANCH   5   6
ENDBRANCH   4   5
ENDBRANCH   1   4
BRANCH   2  31
HETATM   31  C15 UNL     1       3.557   1.891  12.745  1.00  0.00     0.113 C
HETATM   32  C16 UNL     1       4.662   2.664  12.165  1.00  0.00     0.060 C
HETATM   33  C17 UNL     1       4.387   3.977  11.416  1.00  0.00     0.136 C
HETATM   34  C21 UNL     1       5.112   2.161  10.808  1.00  0.00     0.139 C
HETATM   35  C18 UNL     1       5.622   3.654  10.591  1.00  0.00     0.005 C
HETATM   36  C19 UNL     1       5.605   3.983   9.152  1.00  0.00     0.020 C
HETATM   37  C20 UNL     1       6.921   3.815  11.312  1.00  0.00     0.020 C
HETATM   38  O4  UNL     1       4.121   1.886  10.012  1.00  0.00    -0.378 OA
HETATM   39  C22 UNL     1       3.066   1.100  10.402  1.00  0.00     0.140 C
HETATM   40  C29 UNL     1       2.575   1.289  11.728  1.00  0.00     0.004 C
HETATM   41  C30 UNL     1       1.971  -0.018  12.400  1.00  0.00     0.018 C
HETATM   42  C33 UNL     1       1.210   1.757  11.952  1.00  0.00     0.002 A
HETATM   43  C31 UNL     1       0.660   0.458  11.820  1.00  0.00    -0.008 A
HETATM   44  C32 UNL     1      -0.156   1.595  12.089  1.00  0.00     0.011 A
BRANCH  33  45
HETATM   45  O3  UNL     1       4.418   5.126  12.134  1.00  0.00    -0.394 OA
ATOM     46  H3  UNL     1       5.206   5.654  12.083  1.00  0.00     0.210 HD
ENDBRANCH  33  45
BRANCH  39  47
HETATM   47  C23 UNL     1       2.152   1.206   9.182  1.00  0.00     0.135 C
BRANCH  47  48
HETATM   48  C24 UNL     1       1.916   2.521   8.653  1.00  0.00     0.220 C
HETATM   49  O5  UNL     1       1.107   3.306   8.979  1.00  0.00    -0.274 OA
HETATM   50  N3  UNL     1       2.807   3.014   7.528  1.00  0.00    -0.353 N
ATOM     51  H3  UNL     1       3.566   2.435   7.167  1.00  0.00     0.163 HD
BRANCH  50  52
HETATM   52  C25 UNL     1       2.558   4.292   6.999  1.00  0.00     0.022 C
HETATM   53  C26 UNL     1       3.679   4.655   5.989  1.00  0.00     0.037 C
HETATM   54  C27 UNL     1       1.302   4.343   6.117  1.00  0.00     0.037 C
HETATM   55  C28 UNL     1       2.471   5.452   7.949  1.00  0.00     0.037 C
ENDBRANCH  50  52
ENDBRANCH  47  48
ENDBRANCH  39  47
ENDBRANCH   2  31
TORSDOF 17
ENDMDL