MODEL 5
REMARK VINA RESULT: -8.659788431      1.334      1.820
REMARK  13 active torsions:
REMARK  status: ('A' for Active; 'I' for Inactive)
REMARK    1  A    between atoms: C3_3  and  S1_6
REMARK    2  A    between atoms: S1_6  and  N1_8
REMARK    3  A    between atoms: S1_6  and  C29_50
REMARK    4  A    between atoms: N1_8  and  C6_10
REMARK    5  A    between atoms: C6_10  and  C9_13
REMARK       I    between atoms: C9_13  and  N2_15
REMARK    6  A    between atoms: N2_15  and  C10_17
REMARK    7  A    between atoms: C10_17  and  N3_18
REMARK    8  A    between atoms: C10_17  and  C18_28
REMARK       I    between atoms: N3_18  and  C11_20
REMARK    9  A    between atoms: C11_20  and  C12_22
REMARK       I    between atoms: C18_28  and  N4_30
REMARK   10  A    between atoms: C20_33  and  C21_34
REMARK   11  A    between atoms: C21_34  and  C22_35
REMARK   12  A    between atoms: C22_35  and  C23_36
REMARK   13  A    between atoms: C23_36  and  N5_37
REMARK       I    between atoms: N5_37  and  C24_39
ROOT
HETATM    1  C1  UNL     1       8.664  -2.615  15.292  1.00  0.00     0.014 C
HETATM    2  C2  UNL     1       7.868  -2.013  14.630  1.00  0.00    -0.094 C
HETATM    3  C3  UNL     1       6.892  -1.316  13.861  1.00  0.00     0.100 C
HETATM    4  C4  UNL     1       7.111   0.180  14.142  1.00  0.00     0.044 C
HETATM    5  C5  UNL     1       7.272  -1.488  12.396  1.00  0.00     0.044 C
ENDROOT
BRANCH   3   6
HETATM    6  S1  UNL     1       4.992  -1.706  14.059  1.00  0.00     0.049 S
HETATM    7  O1  UNL     1       4.920  -1.261  15.493  1.00  0.00    -0.247 OA
BRANCH   6   8
HETATM    8  N1  UNL     1       4.497  -3.461  14.472  1.00  0.00    -0.331 N
ATOM      9  H1  UNL     1       5.068  -4.213  14.085  1.00  0.00     0.170 HD
BRANCH   8  10
HETATM   10  C6  UNL     1       3.411  -3.828  15.265  1.00  0.00     0.111 C
HETATM   11  C7  UNL     1       2.243  -4.451  14.535  1.00  0.00     0.049 C
HETATM   12  C8  UNL     1       2.876  -2.779  16.198  1.00  0.00     0.049 C
BRANCH  10  13
HETATM   13  C9  UNL     1       3.904  -4.938  16.161  1.00  0.00     0.247 C
HETATM   14  O2  UNL     1       4.444  -4.624  17.246  1.00  0.00    -0.271 OA
HETATM   15  N2  UNL     1       3.774  -6.284  15.819  1.00  0.00    -0.330 N
ATOM     16  H2  UNL     1       3.323  -6.527  14.937  1.00  0.00     0.165 HD
BRANCH  15  17
HETATM   17  C10 UNL     1       4.269  -7.367  16.690  1.00  0.00     0.281 C
BRANCH  17  18
HETATM   18  N3  UNL     1       5.676  -7.111  16.818  1.00  0.00    -0.332 N
HETATM   19  C11 UNL     1       6.309  -6.972  18.061  1.00  0.00     0.223 C
HETATM   20  O3  UNL     1       5.673  -7.058  19.162  1.00  0.00    -0.273 OA
ATOM     21  H3  UNL     1       6.237  -7.027  15.971  1.00  0.00     0.165 HD
BRANCH  19  22
HETATM   22  C12 UNL     1       7.750  -6.719  18.142  1.00  0.00     0.078 C
HETATM   23  C13 UNL     1       8.501  -7.727  17.310  1.00  0.00     0.014 C
HETATM   24  C14 UNL     1       9.988  -7.541  17.650  1.00  0.00     0.001 C
HETATM   25  C15 UNL     1      10.451  -6.141  17.444  1.00  0.00     0.000 C
HETATM   26  C16 UNL     1       9.546  -5.082  17.996  1.00  0.00     0.001 C
HETATM   27  C17 UNL     1       8.120  -5.352  17.586  1.00  0.00     0.014 C
ENDBRANCH  19  22
ENDBRANCH  17  18
BRANCH  17  28
HETATM   28  C18 UNL     1       4.051  -8.687  16.039  1.00  0.00     0.270 C
HETATM   29  O4  UNL     1       3.912  -8.642  14.768  1.00  0.00    -0.269 OA
HETATM   30  N4  UNL     1       3.985  -9.935  16.715  1.00  0.00    -0.270 N
HETATM   31  C19 UNL     1       3.766 -11.107  15.947  1.00  0.00     0.250 C
HETATM   32  C27 UNL     1       4.131 -10.094  18.151  1.00  0.00     0.184 C
HETATM   33  O5  UNL     1       4.339 -11.299  14.860  1.00  0.00    -0.271 OA
HETATM   34  C20 UNL     1       2.807 -12.172  16.445  1.00  0.00     0.179 C
HETATM   35  N8  UNL     1       2.885 -12.262  17.881  1.00  0.00    -0.341 N
HETATM   36  C25 UNL     1       2.669 -13.486  18.623  1.00  0.00     0.153 C
HETATM   37  C26 UNL     1       3.173 -11.107  18.650  1.00  0.00     0.243 C
HETATM   38  O6  UNL     1       2.630 -10.900  19.773  1.00  0.00    -0.271 OA
HETATM   39  C28 UNL     1       5.508 -10.634  18.505  1.00  0.00     0.043 C
BRANCH  34  40
HETATM   40  C21 UNL     1       3.129 -13.374  15.657  1.00  0.00     0.037 C
BRANCH  40  41
HETATM   41  C22 UNL     1       2.188 -13.924  14.675  1.00  0.00     0.022 C
BRANCH  41  42
HETATM   42  C23 UNL     1       1.447 -12.870  13.872  1.00  0.00     0.122 C
BRANCH  42  43
HETATM   43  N5  UNL     1       2.295 -12.498  12.762  1.00  0.00    -0.365 N
HETATM   44  C24 UNL     1       2.157 -11.231  12.175  1.00  0.00     0.181 C
HETATM   45  N6  UNL     1       3.027 -10.296  12.437  1.00  0.00    -0.374 N
HETATM   46  N7  UNL     1       1.093 -10.915  11.293  1.00  0.00    -0.064 NA
ATOM     47  H62 UNL     1       3.792 -10.523  13.072  1.00  0.00     0.158 HD
ATOM     48  H61 UNL     1       2.926  -9.375  12.011  1.00  0.00     0.158 HD
ATOM     49  H5  UNL     1       2.990 -13.153  12.407  1.00  0.00     0.162 HD
ENDBRANCH  42  43
ENDBRANCH  41  42
ENDBRANCH  40  41
ENDBRANCH  34  40
ENDBRANCH  17  28
ENDBRANCH  15  17
ENDBRANCH  10  13
ENDBRANCH   8  10
ENDBRANCH   6   8
BRANCH   6  50
HETATM   50  C29 UNL     1       3.779  -0.426  13.347  1.00  0.00     0.035 C
HETATM   51  C30 UNL     1       4.172   0.183  11.998  1.00  0.00     0.030 C
HETATM   52  C31 UNL     1       2.314  -0.814  13.161  1.00  0.00     0.030 C
HETATM   53  C32 UNL     1       3.626   0.780  14.298  1.00  0.00     0.030 C
ENDBRANCH   6  50
ENDBRANCH   3   6
TORSDOF 13
ENDMDL