MODEL 1
REMARK VINA RESULT: -8.403148272      0.000      0.000
REMARK  8 active torsions:
REMARK  status: ('A' for Active; 'I' for Inactive)
REMARK    1  A    between atoms: N2_4  and  N3_6
REMARK       I    between atoms: N3_6  and  C1_8
REMARK    2  A    between atoms: C1_8  and  C2_10
REMARK    3  A    between atoms: C2_10  and  O2_11
REMARK    4  A    between atoms: C2_10  and  C3_13
REMARK    5  A    between atoms: N4_18  and  O4_19
REMARK    6  A    between atoms: C14_29  and  C15_30
REMARK    7  A    between atoms: C15_30  and  C16_31
REMARK    8  A    between atoms: C28_47  and  O5_48
ROOT
HETATM    1  C3  UNL     1       3.489   5.189   7.292  1.00  0.00     0.202 C
HETATM    2  O3  UNL     1       2.904   4.473   8.373  1.00  0.00    -0.349 OA
HETATM    3  C4  UNL     1       2.906   3.905   9.562  1.00  0.00     0.153 C
HETATM    4  C5  UNL     1       3.973   3.416  10.572  1.00  0.00     0.054 C
HETATM    5  C6  UNL     1       4.290   2.015  10.818  1.00  0.00     0.140 C
HETATM    6  N4  UNL     1       5.385   1.285  11.019  1.00  0.00    -0.247 N
HETATM    7  C7  UNL     1       6.698   1.045  10.671  1.00  0.00     0.119 C
HETATM    8  C8  UNL     1       7.902   1.732  10.414  1.00  0.00     0.003 C
HETATM    9  C9  UNL     1       8.300   3.092  10.117  1.00  0.00     0.076 A
HETATM   10  C10 UNL     1       8.398   4.058   8.853  1.00  0.00     0.091 A
HETATM   11  C11 UNL     1       7.515   4.539   8.237  1.00  0.00     0.049 A
HETATM   12  C12 UNL     1       7.846   4.010   9.385  1.00  0.00     0.105 A
HETATM   13  N5  UNL     1       9.592   3.809   8.736  1.00  0.00    -0.266 NA
HETATM   14  C13 UNL     1       9.195   4.300   7.742  1.00  0.00     0.137 A
HETATM   15  C14 UNL     1       8.508   4.873   6.723  1.00  0.00     0.018 A
HETATM   16  N6  UNL     1       7.214   5.058   7.096  1.00  0.00    -0.330 N
HETATM   17  C22 UNL     1       6.014   5.458   6.480  1.00  0.00     0.108 C
HETATM   18  C23 UNL     1       4.766   4.730   6.663  1.00  0.00     0.014 C
HETATM   19  C24 UNL     1       4.909   3.391   6.588  1.00  0.00     0.056 C
HETATM   20  N7  UNL     1       4.793   2.225   5.793  1.00  0.00    -0.102 NA
HETATM   21  C25 UNL     1       5.375   3.317   7.938  1.00  0.00     0.029 C
HETATM   22  C26 UNL     1       5.701   4.335   8.853  1.00  0.00     0.029 C
HETATM   23  C27 UNL     1       6.688   4.147   9.804  1.00  0.00     0.041 C
HETATM   24  N8  UNL     1       6.138   4.192  11.113  1.00  0.00    -0.338 N
ATOM     25  H8  UNL     1       6.783   4.273  11.900  1.00  0.00     0.168 HD
HETATM   26  C28 UNL     1       4.837   4.136  11.379  1.00  0.00     0.154 C
ENDROOT
BRANCH   1  27
HETATM   27  C2  UNL     1       2.399   5.104   6.264  1.00  0.00     0.245 C
BRANCH  27  28
HETATM   28  C1  UNL     1       1.325   6.065   6.453  1.00  0.00     0.268 C
HETATM   29  N3  UNL     1       0.776   6.380   7.726  1.00  0.00    -0.254 N
ATOM     30  H3  UNL     1       1.153   5.912   8.550  1.00  0.00     0.191 HD
HETATM   31  O1  UNL     1       0.841   6.656   5.460  1.00  0.00    -0.269 OA
BRANCH  29  32
HETATM   32  N2  UNL     1      -0.254   7.302   7.897  1.00  0.00    -0.247 N
HETATM   33  N1  UNL     1      -1.360   7.103   7.310  1.00  0.00    -0.331 N
ATOM     34  H12 UNL     1      -1.476   6.276   6.725  1.00  0.00     0.178 HD
ATOM     35  H11 UNL     1      -2.114   7.778   7.435  1.00  0.00     0.178 HD
ATOM     36  H2  UNL     1      -0.121   8.124   8.486  1.00  0.00     0.207 HD
ENDBRANCH  29  32
ENDBRANCH  27  28
BRANCH  27  37
HETATM   37  O2  UNL     1       1.827   3.835   6.204  1.00  0.00    -0.383 OA
ATOM     38  H2  UNL     1       2.455   3.218   6.562  1.00  0.00     0.210 HD
ENDBRANCH  27  37
ENDBRANCH   1  27
BRANCH  26  39
HETATM   39  O5  UNL     1       4.537   4.851  12.476  1.00  0.00    -0.345 OA
ATOM     40  H5  UNL     1       4.955   5.646  12.785  1.00  0.00     0.219 HD
ENDBRANCH  26  39
BRANCH  15  41
HETATM   41  C15 UNL     1       9.036   5.239   5.430  1.00  0.00     0.093 C
BRANCH  41  42
HETATM   42  C16 UNL     1       9.290   4.026   4.596  1.00  0.00    -0.053 A
HETATM   43  C17 UNL     1      10.529   3.761   4.073  1.00  0.00     0.007 A
HETATM   44  C18 UNL     1      10.661   2.608   3.335  1.00  0.00     0.001 A
HETATM   45  C19 UNL     1       9.557   1.779   3.154  1.00  0.00     0.000 A
HETATM   46  C20 UNL     1       8.316   2.054   3.683  1.00  0.00     0.001 A
HETATM   47  C21 UNL     1       8.187   3.201   4.417  1.00  0.00     0.007 A
ENDBRANCH  41  42
ENDBRANCH  15  41
BRANCH   6  48
HETATM   48  O4  UNL     1       5.003   0.337  12.029  1.00  0.00    -0.284 OA
ATOM     49  H4  UNL     1       5.538  -0.427  11.850  1.00  0.00     0.245 HD
ENDBRANCH   6  48
TORSDOF 8
ENDMDL