MODEL 3
REMARK VINA RESULT: -9.112124288      2.277      4.452
REMARK  13 active torsions:
REMARK  status: ('A' for Active; 'I' for Inactive)
REMARK    1  A    between atoms: N1_2  and  C2_4
REMARK    2  A    between atoms: C5_9  and  N3_10
REMARK    3  A    between atoms: N3_10  and  C6_12
REMARK    4  A    between atoms: C6_12  and  C8_14
REMARK    5  A    between atoms: C8_14  and  O1_15
REMARK    6  A    between atoms: C8_14  and  N4_17
REMARK    7  A    between atoms: N4_17  and  C10_19
REMARK    8  A    between atoms: C10_19  and  C11_20
REMARK    9  A    between atoms: C10_19  and  C17_33
REMARK       I    between atoms: C11_20  and  N5_22
REMARK   10  A    between atoms: N5_22  and  C12_24
REMARK       I    between atoms: C17_33  and  N8_35
REMARK   11  A    between atoms: N8_35  and  C18_37
REMARK   12  A    between atoms: C18_37  and  C20_39
REMARK       I    between atoms: C20_39  and  N9_41
REMARK   13  A    between atoms: N9_41  and  C21_43
ROOT
HETATM    1  C10 UNL     1       5.987  -0.883  12.857  1.00  0.00     0.271 C
ENDROOT
BRANCH   1   2
HETATM    2  N4  UNL     1       5.775  -0.066  14.001  1.00  0.00    -0.347 N
HETATM    3  C9  UNL     1       6.831   0.923  14.313  1.00  0.00     0.153 C
BRANCH   2   4
HETATM    4  C8  UNL     1       4.645  -0.079  14.809  1.00  0.00     0.138 C
BRANCH   4   5
HETATM    5  C6  UNL     1       3.286  -0.549  14.597  1.00  0.00     0.170 C
HETATM    6  C7  UNL     1       2.643   0.328  13.524  1.00  0.00     0.041 C
BRANCH   5   7
HETATM    7  N3  UNL     1       3.107  -1.935  14.294  1.00  0.00    -0.214 N
ATOM      8  H3  UNL     1       2.918  -2.218  13.333  1.00  0.00     0.178 HD
BRANCH   7   9
HETATM    9  C5  UNL     1       3.180  -2.826  15.212  1.00  0.00     0.680 A
HETATM   10  N2  UNL     1       2.768  -2.436  16.466  1.00  0.00    -0.202 N
HETATM   11  C4  UNL     1       2.803  -3.282  17.496  1.00  0.00     0.110 A
ATOM     12  H2  UNL     1       2.430  -1.484  16.610  1.00  0.00     0.183 HD
HETATM   13  C3  UNL     1       3.258  -4.583  17.328  1.00  0.00     0.066 A
HETATM   14  C2  UNL     1       3.672  -4.974  16.074  1.00  0.00     0.117 A
HETATM   15  N11 UNL     1       3.610  -4.076  15.083  1.00  0.00    -0.177 N
ATOM     16  H11 UNL     1       3.917  -4.374  14.158  1.00  0.00     0.185 HD
BRANCH  14  17
HETATM   17  N1  UNL     1       4.095  -6.179  15.889  1.00  0.00    -0.380 N
HETATM   18  C1  UNL     1       3.577  -7.333  16.545  1.00  0.00     0.147 C
ATOM     19  H1  UNL     1       4.856  -6.315  15.223  1.00  0.00     0.160 HD
ENDBRANCH  14  17
ENDBRANCH   7   9
ENDBRANCH   5   7
ENDBRANCH   4   5
BRANCH   4  20
HETATM   20  O1  UNL     1       4.832   0.432  15.999  1.00  0.00    -0.348 OA
ATOM     21  H1  UNL     1       5.614   0.968  16.056  1.00  0.00     0.219 HD
ENDBRANCH   4  20
ENDBRANCH   2   4
ENDBRANCH   1   2
BRANCH   1  22
HETATM   22  C11 UNL     1       6.573  -2.200  13.267  1.00  0.00     0.268 C
HETATM   23  O2  UNL     1       5.920  -3.277  13.071  1.00  0.00    -0.270 OA
HETATM   24  N5  UNL     1       7.836  -2.361  13.878  1.00  0.00    -0.157 N
ATOM     25  H5  UNL     1       8.643  -1.882  13.479  1.00  0.00     0.187 HD
BRANCH  24  26
HETATM   26  C12 UNL     1       8.000  -3.102  14.933  1.00  0.00     0.685 A
HETATM   27  N6  UNL     1       9.190  -3.455  15.468  1.00  0.00    -0.194 N
HETATM   28  C13 UNL     1       9.039  -4.223  16.540  1.00  0.00     0.045 A
ATOM     29  H6  UNL     1      10.094  -3.166  15.093  1.00  0.00     0.184 HD
HETATM   30  C14 UNL     1      10.067  -4.846  17.440  1.00  0.00     0.071 C
HETATM   31  C15 UNL     1       7.689  -4.384  16.719  1.00  0.00     0.045 A
HETATM   32  C16 UNL     1       6.972  -5.159  17.773  1.00  0.00     0.071 C
HETATM   33  N7  UNL     1       7.074  -3.686  15.718  1.00  0.00    -0.194 N
ATOM     34  H7  UNL     1       6.065  -3.619  15.585  1.00  0.00     0.184 HD
ENDBRANCH  24  26
ENDBRANCH   1  22
BRANCH   1  35
HETATM   35  C17 UNL     1       6.916  -0.254  11.870  1.00  0.00     0.250 C
HETATM   36  O3  UNL     1       8.018  -0.766  11.658  1.00  0.00    -0.271 OA
HETATM   37  N8  UNL     1       6.525   0.917  11.194  1.00  0.00    -0.346 N
ATOM     38  H8  UNL     1       5.604   1.297  11.408  1.00  0.00     0.163 HD
BRANCH  37  39
HETATM   39  C18 UNL     1       7.331   1.622  10.219  1.00  0.00     0.173 C
HETATM   40  C19 UNL     1       8.198   2.643  10.880  1.00  0.00     0.042 C
BRANCH  39  41
HETATM   41  C20 UNL     1       6.451   2.246   9.205  1.00  0.00     0.245 C
HETATM   42  O4  UNL     1       6.294   1.679   8.082  1.00  0.00    -0.271 OA
HETATM   43  N9  UNL     1       5.769   3.459   9.434  1.00  0.00    -0.311 N
ATOM     44  H9  UNL     1       6.304   4.259   9.773  1.00  0.00     0.170 HD
BRANCH  43  45
HETATM   45  C21 UNL     1       4.508   3.607   9.239  1.00  0.00     0.107 A
HETATM   46  C22 UNL     1       3.566   3.728  10.223  1.00  0.00     0.048 A
HETATM   47  C23 UNL     1       2.210   3.865   9.897  1.00  0.00     0.005 A
HETATM   48  C24 UNL     1       1.864   3.874   8.566  1.00  0.00     0.017 A
HETATM   49  C25 UNL     1       2.847   3.749   7.614  1.00  0.00     0.089 A
HETATM   50  N10 UNL     1       4.142   3.618   7.922  1.00  0.00    -0.352 N
ATOM     51  H10 UNL     1       4.844   3.527   7.188  1.00  0.00     0.166 HD
ENDBRANCH  43  45
ENDBRANCH  39  41
ENDBRANCH  37  39
ENDBRANCH   1  35
TORSDOF 13
ENDMDL