MODEL 1
REMARK VINA RESULT: -7.403395237      0.000      0.000
REMARK  7 active torsions:
REMARK  status: ('A' for Active; 'I' for Inactive)
REMARK    1  A    between atoms: C2_2  and  C4_4
REMARK    2  A    between atoms: C4_4  and  C5_5
REMARK    3  A    between atoms: C6_8  and  O1_9
REMARK    4  A    between atoms: C7_11  and  O2_12
REMARK    5  A    between atoms: C9_18  and  C10_19
REMARK    6  A    between atoms: C17_32  and  C18_33
REMARK    7  A    between atoms: C18_33  and  C19_34
ROOT
HETATM    1  C5  UNL     1       6.985  -1.618  15.161  1.00  0.00     0.176 C
HETATM    2  N1  UNL     1       5.718  -1.003  15.438  1.00  0.00    -0.354 N
ATOM      3  H1  UNL     1       5.742  -0.445  16.291  1.00  0.00     0.162 HD
HETATM    4  C6  UNL     1       4.471  -0.977  14.838  1.00  0.00     0.189 C
HETATM    5  C7  UNL     1       3.315  -1.857  14.830  1.00  0.00     0.194 C
HETATM    6  N2  UNL     1       2.690  -2.569  15.881  1.00  0.00    -0.302 N
ATOM      7  H2  UNL     1       1.701  -2.360  16.013  1.00  0.00     0.171 HD
HETATM    8  C8  UNL     1       3.216  -3.516  16.769  1.00  0.00     0.246 C
HETATM    9  O3  UNL     1       3.173  -3.312  18.003  1.00  0.00    -0.271 OA
HETATM   10  C9  UNL     1       3.864  -4.832  16.345  1.00  0.00     0.180 C
HETATM   11  N3  UNL     1       4.853  -5.150  17.337  1.00  0.00    -0.346 N
ATOM     12  H3  UNL     1       5.659  -4.527  17.302  1.00  0.00     0.163 HD
HETATM   13  C13 UNL     1       4.965  -6.108  18.333  1.00  0.00     0.240 C
HETATM   14  O4  UNL     1       4.616  -5.730  19.522  1.00  0.00    -0.271 OA
HETATM   15  C14 UNL     1       5.417  -7.512  18.339  1.00  0.00     0.172 C
HETATM   16  C15 UNL     1       4.395  -8.438  19.025  1.00  0.00     0.042 C
HETATM   17  N4  UNL     1       6.625  -7.641  19.198  1.00  0.00    -0.346 N
ATOM     18  H4  UNL     1       6.499  -7.882  20.181  1.00  0.00     0.163 HD
HETATM   19  C16 UNL     1       7.934  -7.447  18.716  1.00  0.00     0.241 C
HETATM   20  O5  UNL     1       8.880  -7.248  19.577  1.00  0.00    -0.271 OA
HETATM   21  C17 UNL     1       8.402  -7.430  17.321  1.00  0.00     0.177 C
HETATM   22  N5  UNL     1       9.210  -6.198  17.206  1.00  0.00    -0.346 N
ATOM     23  H5  UNL     1      10.125  -6.221  17.657  1.00  0.00     0.163 HD
HETATM   24  C22 UNL     1       8.875  -5.007  16.558  1.00  0.00     0.246 C
HETATM   25  O6  UNL     1       8.778  -3.981  17.329  1.00  0.00    -0.271 OA
HETATM   26  C23 UNL     1       8.620  -4.745  15.135  1.00  0.00     0.106 C
HETATM   27  C24 UNL     1       9.843  -3.979  14.636  1.00  0.00     0.048 C
HETATM   28  C25 UNL     1       8.762  -6.082  14.353  1.00  0.00     0.048 C
HETATM   29  N6  UNL     1       7.366  -4.164  14.788  1.00  0.00    -0.342 N
ATOM     30  H6  UNL     1       6.604  -4.842  14.807  1.00  0.00     0.163 HD
HETATM   31  C26 UNL     1       6.942  -2.904  14.432  1.00  0.00     0.241 C
HETATM   32  O7  UNL     1       6.406  -2.803  13.255  1.00  0.00    -0.271 OA
ENDROOT
BRANCH   1  33
HETATM   33  C4  UNL     1       7.908  -0.640  14.451  1.00  0.00     0.038 C
BRANCH  33  34
HETATM   34  C2  UNL     1       7.417   0.122  13.317  1.00  0.00    -0.020 C
HETATM   35  C1  UNL     1       7.646   1.609  13.654  1.00  0.00     0.009 C
HETATM   36  C3  UNL     1       7.901  -0.086  11.951  1.00  0.00     0.009 C
ENDBRANCH  33  34
ENDBRANCH   1  33
BRANCH   4  37
HETATM   37  O1  UNL     1       4.251   0.094  14.091  1.00  0.00    -0.343 OA
ATOM     38  H1  UNL     1       3.357   0.412  14.121  1.00  0.00     0.219 HD
ENDBRANCH   4  37
BRANCH   5  39
HETATM   39  O2  UNL     1       2.726  -2.048  13.676  1.00  0.00    -0.343 OA
ATOM     40  H2  UNL     1       2.043  -2.708  13.647  1.00  0.00     0.219 HD
ENDBRANCH   5  39
BRANCH  10  41
HETATM   41  C10 UNL     1       2.828  -5.841  16.039  1.00  0.00     0.009 C
HETATM   42  C11 UNL     1       3.366  -7.138  15.549  1.00  0.00     0.012 C
HETATM   43  C12 UNL     1       1.768  -5.349  15.075  1.00  0.00     0.012 C
ENDBRANCH  10  41
BRANCH  21  44
HETATM   44  C18 UNL     1       9.223  -8.627  16.992  1.00  0.00     0.038 C
BRANCH  44  45
HETATM   45  C19 UNL     1       8.987  -9.913  17.663  1.00  0.00    -0.020 C
HETATM   46  C20 UNL     1       7.787 -10.608  16.919  1.00  0.00     0.009 C
HETATM   47  C21 UNL     1      10.089 -10.921  17.728  1.00  0.00     0.009 C
ENDBRANCH  44  45
ENDBRANCH  21  44
TORSDOF 7
ENDMDL