MODEL 2
REMARK VINA RESULT: -9.513189784      1.924      9.178
REMARK  11 active torsions:
REMARK  status: ('A' for Active; 'I' for Inactive)
REMARK    1  A    between atoms: N2_8  and  C5_9
REMARK    2  A    between atoms: C5_9  and  C6_10
REMARK    3  A    between atoms: C6_10  and  O2_11
REMARK    4  A    between atoms: N3_13  and  C7_15
REMARK    5  A    between atoms: C8_18  and  C9_19
REMARK    6  A    between atoms: C9_19  and  C10_20
REMARK    7  A    between atoms: C14_24  and  N5_25
REMARK       I    between atoms: N5_25  and  C15_27
REMARK    8  A    between atoms: C15_27  and  C16_29
REMARK    9  A    between atoms: C21_36  and  O4_37
REMARK   10  A    between atoms: C23_43  and  C24_44
REMARK   11  A    between atoms: C24_44  and  C25_45
ROOT
HETATM    1  C7  UNL     1       7.665  -5.524  17.478  1.00  0.00     0.135 A
HETATM    2  N4  UNL     1       7.533  -4.474  16.654  1.00  0.00    -0.336 N
ATOM      3  H4  UNL     1       6.818  -3.774  16.850  1.00  0.00     0.168 HD
HETATM    4  C8  UNL     1       8.329  -4.323  15.564  1.00  0.00     0.103 A
HETATM    5  C22 UNL     1       9.296  -5.257  15.286  1.00  0.00     0.272 A
HETATM    6  O5  UNL     1      10.076  -5.170  14.277  1.00  0.00    -0.266 OA
HETATM    7  N7  UNL     1       9.433  -6.313  16.111  1.00  0.00    -0.318 N
ATOM      8  H7  UNL     1      10.151  -7.008  15.905  1.00  0.00     0.169 HD
HETATM    9  C23 UNL     1       8.664  -6.483  17.186  1.00  0.00     0.082 A
ENDROOT
BRANCH   4  10
HETATM   10  C9  UNL     1       8.156  -3.272  14.780  1.00  0.00     0.049 C
BRANCH  10  11
HETATM   11  C10 UNL     1       6.944  -2.898  14.099  1.00  0.00     0.002 A
HETATM   12  C11 UNL     1       5.884  -3.765  14.127  1.00  0.00     0.014 A
HETATM   13  C12 UNL     1       4.717  -3.446  13.479  1.00  0.00     0.003 A
HETATM   14  C13 UNL     1       4.634  -2.226  12.794  1.00  0.00     0.032 A
HETATM   15  C14 UNL     1       5.671  -1.333  12.740  1.00  0.00     0.069 A
HETATM   16  C21 UNL     1       6.825  -1.689  13.404  1.00  0.00     0.102 A
BRANCH  15  17
HETATM   17  N5  UNL     1       5.585  -0.105  12.053  1.00  0.00    -0.320 N
HETATM   18  C15 UNL     1       4.732   0.984  12.324  1.00  0.00     0.257 C
HETATM   19  O3  UNL     1       3.880   1.051  13.241  1.00  0.00    -0.267 OA
ATOM     20  H5  UNL     1       6.218   0.009  11.262  1.00  0.00     0.169 HD
BRANCH  18  21
HETATM   21  C16 UNL     1       4.788   2.213  11.480  1.00  0.00     0.047 A
HETATM   22  C17 UNL     1       5.937   2.513  10.780  1.00  0.00     0.020 A
HETATM   23  C18 UNL     1       6.011   3.636   9.990  1.00  0.00     0.018 A
HETATM   24  C19 UNL     1       4.922   4.480   9.892  1.00  0.00     0.087 A
HETATM   25  N6  UNL     1       3.825   4.146  10.590  1.00  0.00    -0.374 N
HETATM   26  C20 UNL     1       3.716   3.058  11.372  1.00  0.00     0.104 A
ATOM     27  H6  UNL     1       3.015   4.764  10.523  1.00  0.00     0.164 HD
ENDBRANCH  18  21
ENDBRANCH  15  17
BRANCH  16  28
HETATM   28  O4  UNL     1       7.914  -0.880  13.418  1.00  0.00    -0.357 OA
ATOM     29  H4  UNL     1       8.271  -0.671  14.273  1.00  0.00     0.217 HD
ENDBRANCH  16  28
ENDBRANCH  10  11
ENDBRANCH   4  10
BRANCH   1  30
HETATM   30  N3  UNL     1       6.987  -5.738  18.489  1.00  0.00    -0.323 N
HETATM   31  C6  UNL     1       5.709  -6.106  18.759  1.00  0.00     0.137 C
ATOM     32  H3  UNL     1       7.530  -5.605  19.342  1.00  0.00     0.169 HD
BRANCH  31  33
HETATM   33  C5  UNL     1       4.587  -6.477  17.880  1.00  0.00     0.232 C
BRANCH  33  34
HETATM   34  N2  UNL     1       3.931  -5.285  17.321  1.00  0.00    -0.292 N
HETATM   35  N1  UNL     1       4.436  -4.072  17.521  1.00  0.00    -0.264 N
HETATM   36  C4  UNL     1       3.872  -2.955  17.030  1.00  0.00     0.260 A
ATOM     37  H1  UNL     1       5.290  -3.984  18.072  1.00  0.00     0.190 HD
HETATM   38  C3  UNL     1       2.718  -3.081  16.286  1.00  0.00     0.084 A
HETATM   39  O1  UNL     1       4.336  -1.800  17.210  1.00  0.00    -0.267 OA
HETATM   40  C2  UNL     1       2.171  -4.346  16.063  1.00  0.00    -0.040 A
HETATM   41  C1  UNL     1       0.925  -4.472  15.257  1.00  0.00     0.050 C
HETATM   42  C29 UNL     1       2.816  -5.427  16.603  1.00  0.00     0.117 A
ENDBRANCH  33  34
ENDBRANCH  31  33
BRANCH  31  43
HETATM   43  O2  UNL     1       5.388  -6.146  20.033  1.00  0.00    -0.348 OA
ATOM     44  H2  UNL     1       5.962  -6.711  20.537  1.00  0.00     0.219 HD
ENDBRANCH  31  43
ENDBRANCH   1  30
BRANCH   9  45
HETATM   45  C24 UNL     1       8.784  -7.511  17.999  1.00  0.00     0.063 C
BRANCH  45  46
HETATM   46  C25 UNL     1       8.376  -8.850  17.668  1.00  0.00     0.034 A
HETATM   47  C26 UNL     1       9.182  -9.959  17.674  1.00  0.00     0.031 A
HETATM   48  C27 UNL     1       8.413 -11.064  17.297  1.00  0.00     0.019 A
HETATM   49  C28 UNL     1       7.153 -10.573  17.074  1.00  0.00     0.088 A
HETATM   50  N8  UNL     1       7.153  -9.250  17.301  1.00  0.00    -0.366 N
ATOM     51  H8  UNL     1       6.341  -8.639  17.208  1.00  0.00     0.165 HD
ENDBRANCH  45  46
ENDBRANCH   9  45
TORSDOF 11
ENDMDL