MODEL 1
REMARK VINA RESULT: -7.882233861      0.000      0.000
REMARK  11 active torsions:
REMARK  status: ('A' for Active; 'I' for Inactive)
REMARK    1  A    between atoms: C3_4  and  C4_5
REMARK    2  A    between atoms: C5_6  and  C6_7
REMARK    3  A    between atoms: C12_13  and  C13_14
REMARK    4  A    between atoms: C16_19  and  C17_20
REMARK       I    between atoms: C17_20  and  N2_22
REMARK    5  A    between atoms: N2_22  and  C18_24
REMARK    6  A    between atoms: C18_24  and  C19_25
REMARK    7  A    between atoms: C18_24  and  C22_30
REMARK    8  A    between atoms: C19_25  and  C20_26
REMARK    9  A    between atoms: C20_26  and  C21_27
REMARK   10  A    between atoms: C22_30  and  O6_31
REMARK   11  A    between atoms: C22_30  and  N3_33
REMARK       I    between atoms: N4_36  and  C25_37
ROOT
HETATM    1  N1  UNL     1       3.116  -4.905  18.089  1.00  0.00    -0.182 NA
HETATM    2  C1  UNL     1       3.230  -4.048  17.297  1.00  0.00     0.153 C
HETATM    3  C2  UNL     1       3.379  -3.028  16.332  1.00  0.00     0.027 C
HETATM    4  C3  UNL     1       3.504  -2.130  15.512  1.00  0.00     0.001 C
ENDROOT
BRANCH   4   5
HETATM    5  C4  UNL     1       3.637  -1.082  14.574  1.00  0.00    -0.009 C
HETATM    6  C5  UNL     1       3.731  -0.169  13.764  1.00  0.00    -0.064 C
BRANCH   6   7
HETATM    7  C6  UNL     1       3.842   0.902  12.826  1.00  0.00     0.070 C
HETATM    8  C7  UNL     1       4.994   1.348  12.380  1.00  0.00    -0.050 C
HETATM    9  C8  UNL     1       6.215   0.649  12.921  1.00  0.00     0.018 C
HETATM   10  C16 UNL     1       5.231   2.416  11.428  1.00  0.00     0.067 C
HETATM   11  C9  UNL     1       7.134   1.647  13.531  1.00  0.00     0.014 C
HETATM   12  C14 UNL     1       6.878   0.031  11.702  1.00  0.00     0.029 C
HETATM   13  C10 UNL     1       7.468   2.703  12.496  1.00  0.00    -0.011 C
HETATM   14  C11 UNL     1       8.104   2.092  11.267  1.00  0.00     0.025 C
HETATM   15  C28 UNL     1       6.228   3.407  12.058  1.00  0.00     0.028 C
HETATM   16  C12 UNL     1       7.147   1.079  10.663  1.00  0.00     0.051 C
HETATM   17  C15 UNL     1       5.901   1.776  10.202  1.00  0.00     0.044 C
BRANCH  16  18
HETATM   18  C13 UNL     1       7.863   0.451   9.533  1.00  0.00     0.181 C
HETATM   19  O1  UNL     1       8.708  -0.450   9.758  1.00  0.00    -0.647 OA
HETATM   20  O2  UNL     1       7.588   0.870   8.237  1.00  0.00    -0.647 OA
ENDBRANCH  16  18
BRANCH  10  21
HETATM   21  C17 UNL     1       4.083   3.232  11.023  1.00  0.00     0.231 C
HETATM   22  O3  UNL     1       3.641   4.184  11.761  1.00  0.00    -0.272 OA
HETATM   23  N2  UNL     1       3.373   3.041   9.809  1.00  0.00    -0.348 N
ATOM     24  H2  UNL     1       3.678   2.310   9.168  1.00  0.00     0.163 HD
BRANCH  23  25
HETATM   25  C18 UNL     1       2.197   3.876   9.445  1.00  0.00     0.159 C
BRANCH  25  26
HETATM   26  C19 UNL     1       0.979   3.041   9.359  1.00  0.00     0.044 C
BRANCH  26  27
HETATM   27  C20 UNL     1       1.101   1.795  10.261  1.00  0.00     0.116 C
BRANCH  27  28
HETATM   28  C21 UNL     1       0.594   2.140  11.613  1.00  0.00     0.172 C
HETATM   29  O4  UNL     1       0.533   3.296  12.062  1.00  0.00    -0.648 OA
HETATM   30  O5  UNL     1       0.158   1.084  12.428  1.00  0.00    -0.648 OA
ENDBRANCH  27  28
ENDBRANCH  26  27
ENDBRANCH  25  26
BRANCH  25  31
HETATM   31  C22 UNL     1       2.503   4.729   8.304  1.00  0.00     0.137 C
BRANCH  31  32
HETATM   32  O6  UNL     1       1.644   5.747   8.138  1.00  0.00    -0.348 OA
ATOM     33  H6  UNL     1       1.871   6.333   7.426  1.00  0.00     0.219 HD
ENDBRANCH  31  32
BRANCH  31  34
HETATM   34  N3  UNL     1       3.487   4.741   7.329  1.00  0.00    -0.361 N
HETATM   35  C23 UNL     1       4.700   5.507   7.329  1.00  0.00     0.144 C
HETATM   36  C24 UNL     1       5.809   4.474   7.599  1.00  0.00     0.145 C
HETATM   37  N4  UNL     1       5.782   3.590   6.455  1.00  0.00    -0.353 N
HETATM   38  C25 UNL     1       7.001   3.357   5.762  1.00  0.00     0.184 C
HETATM   39  C26 UNL     1       4.564   2.970   6.038  1.00  0.00     0.145 C
HETATM   40  N5  UNL     1       8.093   3.199   6.423  1.00  0.00    -0.374 N
HETATM   41  N6  UNL     1       7.056   3.292   4.347  1.00  0.00    -0.064 NA
ATOM     42  H52 UNL     1       8.053   3.246   7.441  1.00  0.00     0.158 HD
ATOM     43  H51 UNL     1       8.967   3.033   5.926  1.00  0.00     0.158 HD
HETATM   44  C27 UNL     1       3.324   3.815   6.162  1.00  0.00     0.144 C
ENDBRANCH  31  34
ENDBRANCH  25  31
ENDBRANCH  23  25
ENDBRANCH  10  21
ENDBRANCH   6   7
ENDBRANCH   4   5
TORSDOF 11
ENDMDL