MODEL 4
REMARK VINA RESULT: -9.273543050      2.647     10.939
REMARK  12 active torsions:
REMARK  status: ('A' for Active; 'I' for Inactive)
REMARK       I    between atoms: N1_2  and  C2_4
REMARK       I    between atoms: C2_4  and  N2_6
REMARK       I    between atoms: C3_8  and  N3_9
REMARK       I    between atoms: C3_8  and  N6_21
REMARK    1  A    between atoms: N3_9  and  O2_11
REMARK    2  A    between atoms: O2_11  and  C4_12
REMARK    3  A    between atoms: C4_12  and  C5_13
REMARK    4  A    between atoms: C5_13  and  C6_14
REMARK    5  A    between atoms: C6_14  and  O3_15
REMARK    6  A    between atoms: N6_21  and  N7_23
REMARK    7  A    between atoms: N7_23  and  C9_24
REMARK    8  A    between atoms: C9_24  and  C10_25
REMARK       I    between atoms: N9_27  and  C11_29
REMARK       I    between atoms: C11_29  and  N11_31
REMARK    9  A    between atoms: N11_31  and  C12_33
REMARK   10  A    between atoms: C12_33  and  O4_34
REMARK   11  A    between atoms: C12_33  and  N12_36
REMARK   12  A    between atoms: N12_36  and  C13_38
ROOT
HETATM    1  C4  UNL     1       3.385   4.046   8.461  1.00  0.00     0.158 C
HETATM    2  N4  UNL     1       3.304   3.456   9.599  1.00  0.00    -0.275 N
ATOM      3  H4  UNL     1       4.070   2.857   9.907  1.00  0.00     0.180 HD
HETATM    4  C8  UNL     1       2.169   3.621  10.435  1.00  0.00     0.183 C
HETATM    5  N5  UNL     1       1.227   3.747  11.097  1.00  0.00    -0.172 NA
ENDROOT
BRANCH   1   6
HETATM    6  O2  UNL     1       4.561   3.792   7.741  1.00  0.00    -0.209 OA
BRANCH   6   7
HETATM    7  N3  UNL     1       5.378   2.751   8.101  1.00  0.00    -0.088 N
HETATM    8  C3  UNL     1       6.587   3.062   8.784  1.00  0.00     0.726 C
HETATM    9  N2  UNL     1       7.359   3.943   8.242  1.00  0.00    -0.138 N
HETATM   10  N6  UNL     1       6.989   2.469  10.011  1.00  0.00    -0.045 N
HETATM   11  C2  UNL     1       7.032   4.582   7.019  1.00  0.00     0.334 C
ATOM     12  H2  UNL     1       8.231   4.188   8.709  1.00  0.00     0.189 HD
HETATM   13  N1  UNL     1       7.231   4.002   5.743  1.00  0.00    -0.347 N
HETATM   14  O1  UNL     1       6.527   5.747   7.018  1.00  0.00    -0.247 OA
HETATM   15  C1  UNL     1       6.895   4.653   4.500  1.00  0.00     0.151 C
ATOM     16  H1  UNL     1       7.637   3.067   5.700  1.00  0.00     0.163 HD
ATOM     17  H6  UNL     1       7.625   1.672   9.964  1.00  0.00     0.213 HD
ATOM     18  H3  UNL     1       5.128   1.785   7.887  1.00  0.00     0.214 HD
BRANCH  10  19
HETATM   19  N7  UNL     1       6.583   2.891  11.268  1.00  0.00     0.032 N
HETATM   20  C19 UNL     1       6.295   4.312  11.366  1.00  0.00     0.268 C
HETATM   21  C20 UNL     1       7.611   4.599  12.005  1.00  0.00     0.060 C
HETATM   22  C21 UNL     1       7.634   3.105  12.238  1.00  0.00     0.268 C
BRANCH  19  23
HETATM   23  C9  UNL     1       5.454   2.127  11.748  1.00  0.00     0.338 C
BRANCH  23  24
HETATM   24  C10 UNL     1       5.865   0.858  12.449  1.00  0.00     0.123 C
HETATM   25  N8  UNL     1       6.608  -0.087  11.715  1.00  0.00    -0.086 NA
HETATM   26  N9  UNL     1       5.557   0.645  13.656  1.00  0.00    -0.321 N
HETATM   27  C11 UNL     1       5.837  -0.453  14.485  1.00  0.00     0.196 C
ATOM     28  H9  UNL     1       5.019   1.390  14.098  1.00  0.00     0.169 HD
HETATM   29  N10 UNL     1       6.828  -1.393  14.092  1.00  0.00    -0.063 NA
HETATM   30  N11 UNL     1       5.199  -0.559  15.551  1.00  0.00    -0.296 N
ATOM     31  H11 UNL     1       4.529   0.198  15.685  1.00  0.00     0.172 HD
BRANCH  30  32
HETATM   32  C12 UNL     1       5.192  -1.447  16.568  1.00  0.00     0.238 C
BRANCH  32  33
HETATM   33  O4  UNL     1       5.207  -0.912  17.772  1.00  0.00    -0.332 OA
ATOM     34  H4  UNL     1       5.007  -1.514  18.480  1.00  0.00     0.221 HD
ENDBRANCH  32  33
BRANCH  32  35
HETATM   35  N12 UNL     1       5.169  -2.857  16.532  1.00  0.00    -0.155 N
ATOM     36  H12 UNL     1       4.294  -3.310  16.269  1.00  0.00     0.188 HD
BRANCH  35  37
HETATM   37  C13 UNL     1       6.168  -3.609  16.807  1.00  0.00     0.685 A
HETATM   38  N13 UNL     1       7.364  -3.278  16.253  1.00  0.00    -0.196 N
HETATM   39  C14 UNL     1       8.437  -4.042  16.530  1.00  0.00     0.024 A
ATOM     40  H13 UNL     1       7.447  -2.466  15.641  1.00  0.00     0.184 HD
HETATM   41  C15 UNL     1       9.743  -3.645  15.941  1.00  0.00     0.068 C
HETATM   42  C16 UNL     1       8.331  -5.147  17.361  1.00  0.00     0.050 A
HETATM   43  C17 UNL     1       7.097  -5.438  17.896  1.00  0.00     0.024 A
HETATM   44  C18 UNL     1       6.878  -6.608  18.797  1.00  0.00     0.068 C
HETATM   45  N14 UNL     1       6.012  -4.678  17.627  1.00  0.00    -0.196 N
ATOM     46  H14 UNL     1       5.102  -4.903  18.028  1.00  0.00     0.184 HD
ENDBRANCH  35  37
ENDBRANCH  32  35
ENDBRANCH  30  32
ENDBRANCH  23  24
ENDBRANCH  19  23
ENDBRANCH  10  19
ENDBRANCH   6   7
ENDBRANCH   1   6
BRANCH   1  47
HETATM   47  C5  UNL     1       2.318   4.944   7.913  1.00  0.00     0.113 C
BRANCH  47  48
HETATM   48  C6  UNL     1       1.387   4.155   7.012  1.00  0.00     0.175 C
BRANCH  48  49
HETATM   49  O3  UNL     1       2.008   3.643   5.896  1.00  0.00    -0.396 OA
HETATM   50  C7  UNL     1       1.569   4.203   4.709  1.00  0.00     0.201 C
ENDBRANCH  48  49
ENDBRANCH  47  48
ENDBRANCH   1  47
TORSDOF 12
ENDMDL