MODEL 3
REMARK VINA RESULT: -7.195217697      2.424      7.192
REMARK  6 active torsions:
REMARK  status: ('A' for Active; 'I' for Inactive)
REMARK    1  A    between atoms: C2_2  and  C4_4
REMARK    2  A    between atoms: C4_4  and  C5_5
REMARK    3  A    between atoms: C9_16  and  C10_17
REMARK    4  A    between atoms: C10_17  and  C11_18
REMARK    5  A    between atoms: C18_31  and  C19_32
REMARK    6  A    between atoms: C19_32  and  C20_33
ROOT
HETATM    1  C5  UNL     1       6.647   5.599   5.809  1.00  0.00     0.177 C
HETATM    2  N1  UNL     1       5.853   6.728   6.236  1.00  0.00    -0.340 N
ATOM      3  H1  UNL     1       6.346   7.395   6.831  1.00  0.00     0.163 HD
HETATM    4  C6  UNL     1       4.528   7.057   5.972  1.00  0.00     0.310 C
HETATM    5  O1  UNL     1       4.017   7.989   6.714  1.00  0.00    -0.262 OA
HETATM    6  C7  UNL     1       3.598   6.526   4.988  1.00  0.00     0.316 C
HETATM    7  O2  UNL     1       2.981   7.354   4.203  1.00  0.00    -0.262 OA
HETATM    8  N2  UNL     1       3.252   5.166   4.752  1.00  0.00    -0.288 N
ATOM      9  H2  UNL     1       3.217   4.870   3.776  1.00  0.00     0.172 HD
HETATM   10  C8  UNL     1       2.953   4.181   5.714  1.00  0.00     0.247 C
HETATM   11  O3  UNL     1       3.454   3.016   5.472  1.00  0.00    -0.271 OA
HETATM   12  C9  UNL     1       2.150   4.325   6.945  1.00  0.00     0.177 C
HETATM   13  N3  UNL     1       2.306   3.166   7.788  1.00  0.00    -0.346 N
ATOM     14  H3  UNL     1       2.809   2.383   7.371  1.00  0.00     0.163 HD
HETATM   15  C14 UNL     1       1.863   2.967   9.097  1.00  0.00     0.240 C
HETATM   16  O4  UNL     1       1.394   1.790   9.332  1.00  0.00    -0.271 OA
HETATM   17  C15 UNL     1       1.860   3.898  10.220  1.00  0.00     0.172 C
HETATM   18  C16 UNL     1       0.873   3.449  11.302  1.00  0.00     0.042 C
HETATM   19  N4  UNL     1       3.111   4.176  10.845  1.00  0.00    -0.346 N
ATOM     20  H4  UNL     1       3.059   4.800  11.651  1.00  0.00     0.163 HD
HETATM   21  C17 UNL     1       4.395   3.734  10.532  1.00  0.00     0.241 C
HETATM   22  O5  UNL     1       5.286   4.655  10.406  1.00  0.00    -0.271 OA
HETATM   23  C18 UNL     1       4.862   2.351  10.328  1.00  0.00     0.177 C
HETATM   24  N5  UNL     1       6.312   2.303  10.302  1.00  0.00    -0.346 N
ATOM     25  H5  UNL     1       6.771   1.734  11.012  1.00  0.00     0.163 HD
HETATM   26  C23 UNL     1       7.132   2.969   9.390  1.00  0.00     0.240 C
HETATM   27  O6  UNL     1       8.210   3.478   9.850  1.00  0.00    -0.271 OA
HETATM   28  C24 UNL     1       6.893   3.154   7.938  1.00  0.00     0.172 C
HETATM   29  C25 UNL     1       6.889   1.755   7.327  1.00  0.00     0.042 C
HETATM   30  N6  UNL     1       7.902   3.995   7.338  1.00  0.00    -0.346 N
ATOM     31  H6  UNL     1       8.852   3.623   7.333  1.00  0.00     0.163 HD
HETATM   32  C26 UNL     1       7.730   5.254   6.766  1.00  0.00     0.241 C
HETATM   33  O7  UNL     1       8.521   6.198   7.048  1.00  0.00    -0.271 OA
ENDROOT
BRANCH   1  34
HETATM   34  C4  UNL     1       7.353   5.951   4.491  1.00  0.00     0.038 C
BRANCH  34  35
HETATM   35  C2  UNL     1       7.525   4.740   3.620  1.00  0.00    -0.020 C
HETATM   36  C1  UNL     1       6.421   3.767   3.969  1.00  0.00     0.009 C
HETATM   37  C3  UNL     1       8.836   4.057   3.720  1.00  0.00     0.009 C
ENDBRANCH  34  35
ENDBRANCH   1  34
BRANCH  12  38
HETATM   38  C10 UNL     1       0.770   4.795   6.749  1.00  0.00     0.038 C
BRANCH  38  39
HETATM   39  C11 UNL     1       0.522   6.247   6.578  1.00  0.00    -0.020 C
HETATM   40  C12 UNL     1      -1.015   6.396   6.427  1.00  0.00     0.009 C
HETATM   41  C13 UNL     1       0.791   7.075   7.846  1.00  0.00     0.009 C
ENDBRANCH  38  39
ENDBRANCH  12  38
BRANCH  23  42
HETATM   42  C19 UNL     1       4.347   1.440  11.441  1.00  0.00     0.038 C
BRANCH  42  43
HETATM   43  C20 UNL     1       5.445   1.106  12.415  1.00  0.00    -0.020 C
HETATM   44  C21 UNL     1       4.739   0.843  13.754  1.00  0.00     0.009 C
HETATM   45  C22 UNL     1       6.110  -0.207  12.051  1.00  0.00     0.009 C
ENDBRANCH  42  43
ENDBRANCH  23  42
TORSDOF 6
ENDMDL