MODEL 2
REMARK VINA RESULT: -8.508411583      2.094      3.403
REMARK  10 active torsions:
REMARK  status: ('A' for Active; 'I' for Inactive)
REMARK    1  A    between atoms: C7_7  and  S1_8
REMARK    2  A    between atoms: S1_8  and  N1_11
REMARK    3  A    between atoms: C8_13  and  N2_14
REMARK    4  A    between atoms: C8_13  and  C12_33
REMARK    5  A    between atoms: N2_14  and  N3_16
REMARK    6  A    between atoms: C9_18  and  N4_20
REMARK    7  A    between atoms: N4_20  and  N5_22
REMARK       I    between atoms: N5_22  and  C10_24
REMARK    8  A    between atoms: C10_24  and  C11_26
REMARK    9  A    between atoms: C11_26  and  N6_27
REMARK   10  A    between atoms: N6_27  and  N7_28
ROOT
HETATM    1  N1  UNL     1       5.396  -2.064  14.954  1.00  0.00    -0.264 N
ATOM      2  H1  UNL     1       6.030  -1.267  14.900  1.00  0.00     0.180 HD
HETATM    3  C8  UNL     1       4.623  -1.830  14.076  1.00  0.00     0.146 C
ENDROOT
BRANCH   3   4
HETATM    4  N2  UNL     1       3.474  -2.656  13.693  1.00  0.00    -0.282 N
ATOM      5  H2  UNL     1       2.648  -2.303  13.210  1.00  0.00     0.188 HD
BRANCH   4   6
HETATM    6  N3  UNL     1       3.661  -4.027  14.084  1.00  0.00    -0.277 N
HETATM    7  C9  UNL     1       2.859  -4.736  14.805  1.00  0.00     0.185 C
HETATM    8  S2  UNL     1       1.573  -3.653  15.463  1.00  0.00    -0.010 SA
ATOM      9  H3  UNL     1       4.513  -4.485  13.760  1.00  0.00     0.189 HD
BRANCH   7  10
HETATM   10  N4  UNL     1       2.564  -6.001  15.396  1.00  0.00    -0.276 N
ATOM     11  H4  UNL     1       1.610  -6.361  15.421  1.00  0.00     0.189 HD
BRANCH  10  12
HETATM   12  N5  UNL     1       3.622  -6.730  15.937  1.00  0.00    -0.267 N
HETATM   13  C10 UNL     1       3.856  -6.966  17.328  1.00  0.00     0.252 C
HETATM   14  O3  UNL     1       3.071  -6.466  18.143  1.00  0.00    -0.270 OA
ATOM     15  H5  UNL     1       4.291  -7.132  15.280  1.00  0.00     0.190 HD
BRANCH  13  16
HETATM   16  C11 UNL     1       5.004  -7.791  17.696  1.00  0.00     0.240 C
BRANCH  16  17
HETATM   17  N6  UNL     1       6.087  -7.193  18.396  1.00  0.00    -0.117 NA
BRANCH  17  18
HETATM   18  N7  UNL     1       5.801  -5.900  18.943  1.00  0.00    -0.253 N
HETATM   19  N8  UNL     1       5.414  -5.811  20.120  1.00  0.00    -0.334 N
ATOM     20  H82 UNL     1       5.307  -6.659  20.677  1.00  0.00     0.177 HD
ATOM     21  H81 UNL     1       5.210  -4.891  20.509  1.00  0.00     0.177 HD
ATOM     22  H7  UNL     1       5.913  -5.062  18.372  1.00  0.00     0.203 HD
ENDBRANCH  17  18
ENDBRANCH  16  17
ENDBRANCH  13  16
ENDBRANCH  10  12
ENDBRANCH   7  10
ENDBRANCH   4   6
ENDBRANCH   3   4
BRANCH   3  23
HETATM   23  C12 UNL     1       4.898  -0.719  13.087  1.00  0.00     0.083 A
HETATM   24  C13 UNL     1       4.034   0.332  12.876  1.00  0.00     0.025 A
HETATM   25  C14 UNL     1       2.745   0.312  13.568  1.00  0.00     0.069 C
HETATM   26  N9  UNL     1       4.442   1.349  12.054  1.00  0.00    -0.353 N
HETATM   27  C15 UNL     1       3.588   2.456  11.801  1.00  0.00     0.156 C
HETATM   28  C16 UNL     1       5.662   1.328  11.461  1.00  0.00     0.048 A
HETATM   29  C17 UNL     1       6.051   2.400  10.664  1.00  0.00     0.030 A
HETATM   30  C21 UNL     1       6.528   0.295  11.657  1.00  0.00     0.042 A
HETATM   31  C18 UNL     1       7.297   2.364  10.105  1.00  0.00     0.002 A
HETATM   32  C19 UNL     1       8.172   1.318  10.299  1.00  0.00     0.001 A
HETATM   33  C20 UNL     1       7.809   0.246  11.087  1.00  0.00     0.018 A
HETATM   34  C22 UNL     1       6.128  -0.732  12.482  1.00  0.00     0.200 A
HETATM   35  O4  UNL     1       6.965  -1.685  12.647  1.00  0.00    -0.286 OA
ENDBRANCH   3  23
BRANCH   1  36
HETATM   36  S1  UNL     1       6.028  -2.924  16.196  1.00  0.00     0.264 S
HETATM   37  O1  UNL     1       5.016  -4.016  16.587  1.00  0.00    -0.200 OA
HETATM   38  O2  UNL     1       6.337  -2.063  17.398  1.00  0.00    -0.200 OA
BRANCH  36  39
HETATM   39  C7  UNL     1       7.501  -3.780  15.830  1.00  0.00     0.085 A
HETATM   40  C2  UNL     1       8.650  -3.124  15.566  1.00  0.00    -0.039 A
HETATM   41  C1  UNL     1       8.791  -1.651  15.510  1.00  0.00     0.050 C
HETATM   42  C3  UNL     1       9.821  -3.842  15.295  1.00  0.00     0.008 A
HETATM   43  C4  UNL     1       9.832  -5.227  15.287  1.00  0.00     0.001 A
HETATM   44  C5  UNL     1       8.661  -5.874  15.552  1.00  0.00     0.002 A
HETATM   45  C6  UNL     1       7.521  -5.176  15.818  1.00  0.00     0.026 A
ENDBRANCH  36  39
ENDBRANCH   1  36
TORSDOF 10
ENDMDL