MODEL 5
REMARK VINA RESULT: -10.589443121      2.448      9.803
REMARK  8 active torsions:
REMARK  status: ('A' for Active; 'I' for Inactive)
REMARK    1  A    between atoms: C9_11  and  C10_12
REMARK    2  A    between atoms: C10_12  and  C11_13
REMARK    3  A    between atoms: C12_16  and  C13_17
REMARK    4  A    between atoms: C13_17  and  C14_18
REMARK    5  A    between atoms: N4_27  and  C21_28
REMARK    6  A    between atoms: C21_28  and  C22_29
REMARK    7  A    between atoms: C22_29  and  N5_30
REMARK       I    between atoms: N6_33  and  C25_34
REMARK    8  A    between atoms: C25_34  and  C26_36
ROOT
HETATM    1  C14 UNL     1       4.915  -2.452  15.548  1.00  0.00     0.067 A
HETATM    2  C15 UNL     1       3.674  -3.056  15.414  1.00  0.00     0.020 A
HETATM    3  C16 UNL     1       2.371  -2.581  15.421  1.00  0.00     0.016 A
HETATM    4  C17 UNL     1       1.369  -3.510  15.253  1.00  0.00     0.001 A
HETATM    5  C18 UNL     1       1.648  -4.851  15.084  1.00  0.00     0.002 A
HETATM    6  C19 UNL     1       2.945  -5.305  15.079  1.00  0.00     0.032 A
HETATM    7  C20 UNL     1       3.966  -4.394  15.246  1.00  0.00     0.060 A
HETATM    8  N3  UNL     1       5.299  -4.570  15.280  1.00  0.00    -0.297 N
ATOM      9  H3  UNL     1       5.786  -5.461  15.181  1.00  0.00     0.187 HD
HETATM   10  N4  UNL     1       5.865  -3.400  15.461  1.00  0.00    -0.289 N
ENDROOT
BRANCH   1  11
HETATM   11  C13 UNL     1       5.061  -1.016  15.750  1.00  0.00     0.080 C
BRANCH  11  12
HETATM   12  C12 UNL     1       5.515  -0.247  14.778  1.00  0.00     0.110 A
HETATM   13  N2  UNL     1       4.968  -0.147  13.535  1.00  0.00    -0.338 N
HETATM   14  C11 UNL     1       5.713   0.741  12.823  1.00  0.00     0.103 A
ATOM     15  H2  UNL     1       4.147  -0.649  13.197  1.00  0.00     0.167 HD
HETATM   16  C29 UNL     1       6.723   1.187  13.639  1.00  0.00     0.273 A
HETATM   17  N10 UNL     1       6.577   0.570  14.819  1.00  0.00    -0.308 N
HETATM   18  O2  UNL     1       7.624   2.013  13.361  1.00  0.00    -0.266 OA
ATOM     19  H10 UNL     1       7.183   0.703  15.628  1.00  0.00     0.170 HD
BRANCH  14  20
HETATM   20  C10 UNL     1       5.475   1.084  11.569  1.00  0.00     0.049 C
BRANCH  20  21
HETATM   21  C9  UNL     1       4.562   2.183  11.260  1.00  0.00     0.001 A
HETATM   22  C2  UNL     1       4.899   3.445  10.841  1.00  0.00     0.017 A
HETATM   23  C1  UNL     1       6.273   3.994  10.601  1.00  0.00     0.069 C
HETATM   24  N1  UNL     1       3.742   4.126  10.678  1.00  0.00    -0.358 N
HETATM   25  C3  UNL     1       2.684   3.351  10.975  1.00  0.00     0.043 A
ATOM     26  H1  UNL     1       3.680   5.097  10.370  1.00  0.00     0.166 HD
HETATM   27  C4  UNL     1       1.305   3.576  10.969  1.00  0.00     0.030 A
HETATM   28  C8  UNL     1       3.173   2.113  11.349  1.00  0.00     0.003 A
HETATM   29  C5  UNL     1       0.496   2.529  11.342  1.00  0.00     0.002 A
HETATM   30  C6  UNL     1       0.960   1.285  11.718  1.00  0.00     0.001 A
HETATM   31  C7  UNL     1       2.324   1.094  11.715  1.00  0.00     0.014 A
ENDBRANCH  20  21
ENDBRANCH  14  20
ENDBRANCH  11  12
ENDBRANCH   1  11
BRANCH  10  32
HETATM   32  C21 UNL     1       7.296  -3.196  15.545  1.00  0.00     0.179 C
BRANCH  32  33
HETATM   33  C22 UNL     1       8.074  -4.402  15.062  1.00  0.00     0.296 C
BRANCH  33  34
HETATM   34  N5  UNL     1       9.251  -4.631  15.881  1.00  0.00     0.109 N
HETATM   35  C23 UNL     1       9.938  -5.843  15.508  1.00  0.00     0.294 C
HETATM   36  C24 UNL     1       9.923  -6.742  16.728  1.00  0.00     0.158 C
HETATM   37  N6  UNL     1       8.842  -6.180  17.485  1.00  0.00    -0.321 N
HETATM   38  C25 UNL     1       7.911  -6.865  18.278  1.00  0.00     0.264 C
HETATM   39  C28 UNL     1       8.893  -4.763  17.277  1.00  0.00     0.400 C
HETATM   40  O1  UNL     1       7.921  -8.133  18.418  1.00  0.00    -0.269 OA
BRANCH  38  41
HETATM   41  C26 UNL     1       6.844  -6.134  19.011  1.00  0.00     0.280 A
HETATM   42  N7  UNL     1       5.696  -6.950  19.361  1.00  0.00    -0.336 N
HETATM   43  C27 UNL     1       4.971  -6.194  18.624  1.00  0.00     0.188 A
ATOM     44  H7  UNL     1       5.536  -7.772  19.944  1.00  0.00     0.164 HD
HETATM   45  N8  UNL     1       3.582  -6.215  18.320  1.00  0.00    -0.064 NA
HETATM   46  N9  UNL     1       5.991  -5.310  18.194  1.00  0.00    -0.336 N
ATOM     47  H9  UNL     1       6.079  -4.489  17.596  1.00  0.00     0.164 HD
ENDBRANCH  38  41
ENDBRANCH  33  34
ENDBRANCH  32  33
ENDBRANCH  10  32
TORSDOF 8
ENDMDL