MODEL 1
REMARK VINA RESULT: -9.109761273      0.000      0.000
REMARK  7 active torsions:
REMARK  status: ('A' for Active; 'I' for Inactive)
REMARK    1  A    between atoms: C2_2  and  C3_3
REMARK    2  A    between atoms: C6_8  and  C7_9
REMARK    3  A    between atoms: C7_9  and  C8_10
REMARK    4  A    between atoms: C10_15  and  C11_16
REMARK    5  A    between atoms: C11_16  and  C13_18
REMARK    6  A    between atoms: C16_24  and  C17_25
REMARK    7  A    between atoms: C17_25  and  O3_27
ROOT
HETATM    1  C8  UNL     1       5.565  -4.846  15.994  1.00  0.00     0.044 C
HETATM    2  C9  UNL     1       6.535  -4.329  16.999  1.00  0.00     0.251 C
HETATM    3  O1  UNL     1       6.182  -3.261  17.626  1.00  0.00    -0.268 OA
HETATM    4  N2  UNL     1       7.777  -4.945  17.279  1.00  0.00    -0.344 N
ATOM      5  H2  UNL     1       8.400  -4.420  17.893  1.00  0.00     0.163 HD
HETATM    6  C10 UNL     1       8.279  -6.196  16.823  1.00  0.00     0.180 C
HETATM    7  C15 UNL     1       8.592  -7.026  18.038  1.00  0.00     0.241 C
HETATM    8  O2  UNL     1       9.050  -6.365  19.034  1.00  0.00    -0.271 OA
HETATM    9  N3  UNL     1       8.404  -8.422  18.100  1.00  0.00    -0.344 N
ATOM     10  H3  UNL     1       9.109  -8.962  18.601  1.00  0.00     0.163 HD
HETATM   11  C16 UNL     1       7.302  -9.160  17.519  1.00  0.00     0.205 C
HETATM   12  C19 UNL     1       6.083  -8.946  18.331  1.00  0.00     0.243 C
HETATM   13  O4  UNL     1       6.105  -9.552  19.469  1.00  0.00    -0.271 OA
HETATM   14  N4  UNL     1       4.970  -8.180  17.986  1.00  0.00    -0.346 N
ATOM     15  H4  UNL     1       4.587  -7.549  18.689  1.00  0.00     0.163 HD
HETATM   16  C20 UNL     1       4.334  -8.227  16.709  1.00  0.00     0.172 C
HETATM   17  C21 UNL     1       3.742  -9.633  16.535  1.00  0.00     0.042 C
HETATM   18  C22 UNL     1       3.245  -7.233  16.569  1.00  0.00     0.244 C
HETATM   19  O5  UNL     1       2.080  -7.678  16.911  1.00  0.00    -0.271 OA
HETATM   20  N5  UNL     1       3.319  -5.913  16.125  1.00  0.00    -0.316 N
HETATM   21  C23 UNL     1       2.470  -5.267  15.085  1.00  0.00     0.253 C
HETATM   22  N6  UNL     1       2.249  -3.988  15.668  1.00  0.00    -0.343 N
ATOM     23  H6  UNL     1       1.407  -3.423  15.559  1.00  0.00     0.164 HD
HETATM   24  C24 UNL     1       3.394  -3.627  16.426  1.00  0.00     0.246 C
HETATM   25  O6  UNL     1       3.573  -2.468  16.841  1.00  0.00    -0.271 OA
HETATM   26  C25 UNL     1       4.184  -4.840  16.559  1.00  0.00     0.219 C
ENDROOT
BRANCH   1  27
HETATM   27  C7  UNL     1       5.830  -4.435  14.631  1.00  0.00     0.045 C
BRANCH  27  28
HETATM   28  C6  UNL     1       5.671  -3.086  14.135  1.00  0.00     0.039 A
HETATM   29  N1  UNL     1       4.615  -2.712  13.389  1.00  0.00    -0.359 N
HETATM   30  C4  UNL     1       4.661  -1.423  13.045  1.00  0.00     0.012 A
ATOM     31  H1  UNL     1       3.862  -3.345  13.116  1.00  0.00     0.166 HD
HETATM   32  C3  UNL     1       5.808  -0.922  13.594  1.00  0.00    -0.028 A
HETATM   33  C5  UNL     1       3.656  -0.660  12.217  1.00  0.00     0.068 C
HETATM   34  C26 UNL     1       6.432  -1.961  14.270  1.00  0.00    -0.027 A
HETATM   35  C27 UNL     1       7.729  -1.787  14.975  1.00  0.00     0.051 C
BRANCH  32  36
HETATM   36  C2  UNL     1       6.253   0.490  13.456  1.00  0.00     0.036 C
HETATM   37  C1  UNL     1       7.186   0.638  12.270  1.00  0.00     0.010 C
ENDBRANCH  32  36
ENDBRANCH  27  28
ENDBRANCH   1  27
BRANCH   6  38
HETATM   38  C11 UNL     1       9.524  -6.049  15.961  1.00  0.00     0.013 C
HETATM   39  C12 UNL     1       9.243  -6.316  14.499  1.00  0.00     0.012 C
BRANCH  38  40
HETATM   40  C13 UNL     1      10.095  -4.649  16.064  1.00  0.00     0.002 C
HETATM   41  C14 UNL     1      10.216  -4.008  14.698  1.00  0.00     0.005 C
ENDBRANCH  38  40
ENDBRANCH   6  38
BRANCH  11  42
HETATM   42  C17 UNL     1       7.740 -10.610  17.461  1.00  0.00     0.146 C
HETATM   43  C18 UNL     1       6.819 -11.490  16.667  1.00  0.00     0.042 C
BRANCH  42  44
HETATM   44  O3  UNL     1       9.016 -10.763  16.938  1.00  0.00    -0.393 OA
ATOM     45  H3  UNL     1       9.602 -11.221  17.529  1.00  0.00     0.210 HD
ENDBRANCH  42  44
ENDBRANCH  11  42
TORSDOF 7
ENDMDL