MODEL 3
REMARK VINA RESULT: -4.055126404      5.796      8.537
REMARK  4 active torsions:
REMARK  status: ('A' for Active; 'I' for Inactive)
REMARK    1  A    between atoms: C2_2  and  C3_3
REMARK    2  A    between atoms: C3_3  and  N1_4
REMARK    3  A    between atoms: N1_4  and  C4_7
REMARK    4  A    between atoms: C4_7  and  C5_8
ROOT
HETATM    1  C5  UNL     1      23.415  35.490  28.435  1.00  0.00     0.408 C
HETATM    2  N2  UNL     1      24.211  34.484  27.720  1.00  0.00    -0.043 N
ATOM      3  H21 UNL     1      24.275  33.576  28.180  1.00  0.00     0.279 HD
ATOM      4  H22 UNL     1      25.216  34.655  27.707  1.00  0.00     0.279 HD
HETATM    5  C6  UNL     1      23.574  34.470  26.421  1.00  0.00     0.262 C
HETATM    6  C7  UNL     1      23.322  35.909  26.139  1.00  0.00     0.262 C
HETATM    7  N3  UNL     1      23.133  36.507  27.437  1.00  0.00    -0.043 N
ATOM      8  H31 UNL     1      23.685  37.355  27.567  1.00  0.00     0.279 HD
ATOM      9  H32 UNL     1      22.210  36.928  27.548  1.00  0.00     0.279 HD
ENDROOT
BRANCH   1  10
HETATM   10  C4  UNL     1      22.178  34.815  28.932  1.00  0.00     0.294 C
BRANCH  10  11
HETATM   11  N1  UNL     1      21.708  35.334  30.187  1.00  0.00    -0.068 N
ATOM     12  H12 UNL     1      22.463  35.792  30.697  1.00  0.00     0.277 HD
ATOM     13  H11 UNL     1      21.500  34.577  30.838  1.00  0.00     0.277 HD
BRANCH  11  14
HETATM   14  C3  UNL     1      20.566  36.222  30.043  1.00  0.00     0.259 C
BRANCH  14  15
HETATM   15  C2  UNL     1      20.502  37.163  31.220  1.00  0.00    -0.010 C
HETATM   16  C1  UNL     1      20.895  38.405  31.044  1.00  0.00     0.008 C
ENDBRANCH  14  15
ENDBRANCH  11  14
ENDBRANCH  10  11
ENDBRANCH   1  10
TORSDOF 4
ENDMDL