MODEL 5
REMARK VINA RESULT: -5.638308482      3.185      5.194
REMARK  4 active torsions:
REMARK  status: ('A' for Active; 'I' for Inactive)
REMARK    1  A    between atoms: N2_4  and  N3_6
REMARK    2  A    between atoms: C1_8  and  N4_9
REMARK    3  A    between atoms: N4_9  and  C2_11
REMARK    4  A    between atoms: C2_11  and  C3_12
ROOT
HETATM    1  N4  UNL     1      17.636  37.031  29.648  1.00  0.00    -0.381 N
ATOM      2  H4  UNL     1      17.045  36.318  29.219  1.00  0.00     0.160 HD
ENDROOT
BRANCH   1   3
HETATM    3  C1  UNL     1      18.856  36.698  30.310  1.00  0.00     0.194 C
HETATM    4  N3  UNL     1      18.921  36.049  31.409  1.00  0.00    -0.283 N
ATOM      5  H3  UNL     1      19.842  35.859  31.804  1.00  0.00     0.189 HD
BRANCH   4   6
HETATM    6  N2  UNL     1      17.809  35.588  32.092  1.00  0.00    -0.248 N
HETATM    7  N1  UNL     1      17.941  34.862  33.105  1.00  0.00    -0.331 N
ATOM      8  H12 UNL     1      18.882  34.619  33.416  1.00  0.00     0.178 HD
ATOM      9  H11 UNL     1      17.122  34.522  33.609  1.00  0.00     0.178 HD
ATOM     10  H2  UNL     1      16.875  35.840  31.769  1.00  0.00     0.207 HD
ENDBRANCH   4   6
ENDBRANCH   1   3
BRANCH   1  11
HETATM   11  C2  UNL     1      17.282  38.440  29.620  1.00  0.00     0.176 C
BRANCH  11  12
HETATM   12  C3  UNL     1      16.648  38.881  30.917  1.00  0.00     0.318 C
HETATM   13  N5  UNL     1      15.968  40.130  30.763  1.00  0.00    -0.307 N
HETATM   14  N6  UNL     1      14.763  39.996  30.573  1.00  0.00    -0.313 N
ATOM     15  H5  UNL     1      16.434  41.036  30.806  1.00  0.00     0.182 HD
HETATM   16  C4  UNL     1      14.399  38.631  30.563  1.00  0.00     0.373 C
ATOM     17  H6  UNL     1      14.110  40.768  30.440  1.00  0.00     0.181 HD
HETATM   18  N7  UNL     1      15.523  37.959  31.154  1.00  0.00    -0.035 N
ATOM     19  H72 UNL     1      15.676  37.012  30.809  1.00  0.00     0.281 HD
ATOM     20  H71 UNL     1      15.390  37.699  32.131  1.00  0.00     0.281 HD
ENDBRANCH  11  12
ENDBRANCH   1  11
TORSDOF 4
ENDMDL