MODEL 5
REMARK VINA RESULT: -4.030651058      3.493      5.849
REMARK  4 active torsions:
REMARK  status: ('A' for Active; 'I' for Inactive)
REMARK    1  A    between atoms: N1_2  and  C2_5
REMARK    2  A    between atoms: C2_5  and  C3_6
REMARK    3  A    between atoms: C3_6  and  N2_7
REMARK    4  A    between atoms: N2_7  and  C4_10
ROOT
HETATM    1  N2  UNL     1      22.489  33.379  27.050  1.00  0.00    -0.068 N
ATOM      2  H21 UNL     1      21.978  33.386  26.167  1.00  0.00     0.277 HD
ATOM      3  H22 UNL     1      21.670  33.364  27.657  1.00  0.00     0.277 HD
ENDROOT
BRANCH   1   4
HETATM    4  C3  UNL     1      23.343  34.528  27.243  1.00  0.00     0.260 C
BRANCH   4   5
HETATM    5  C2  UNL     1      23.173  35.277  28.497  1.00  0.00     0.259 C
BRANCH   5   6
HETATM    6  N1  UNL     1      23.644  36.618  28.553  1.00  0.00    -0.077 N
HETATM    7  C1  UNL     1      22.544  37.573  28.386  1.00  0.00     0.267 C
ATOM      8  H12 UNL     1      24.390  36.782  27.877  1.00  0.00     0.276 HD
ATOM      9  H11 UNL     1      24.169  36.796  29.410  1.00  0.00     0.276 HD
ENDBRANCH   5   6
ENDBRANCH   4   5
ENDBRANCH   1   4
BRANCH   1  10
HETATM   10  C4  UNL     1      23.367  32.231  27.213  1.00  0.00     0.213 C
HETATM   11  C5  UNL     1      23.235  31.151  26.202  1.00  0.00     0.062 C
HETATM   12  C6  UNL     1      23.869  29.992  26.995  1.00  0.00     0.234 C
HETATM   13  N3  UNL     1      23.070  30.079  28.218  1.00  0.00    -0.073 N
HETATM   14  C7  UNL     1      23.104  31.495  28.509  1.00  0.00     0.265 C
ATOM     15  H32 UNL     1      22.135  29.677  28.149  1.00  0.00     0.277 HD
ATOM     16  H31 UNL     1      23.381  29.477  28.979  1.00  0.00     0.277 HD
ENDBRANCH   1  10
TORSDOF 4
ENDMDL