MODEL 1
REMARK VINA RESULT: -4.158447313      0.000      0.000
REMARK  4 active torsions:
REMARK  status: ('A' for Active; 'I' for Inactive)
REMARK    1  A    between atoms: N1_3  and  C3_5
REMARK    2  A    between atoms: C3_5  and  C4_6
REMARK    3  A    between atoms: C4_6  and  N2_7
REMARK    4  A    between atoms: N2_7  and  C5_9
ROOT
HETATM    1  C1  UNL     1      21.900  38.399  28.927  1.00  0.00     0.036 C
HETATM    2  C2  UNL     1      22.706  37.525  28.663  1.00  0.00    -0.006 C
HETATM    3  N1  UNL     1      23.636  36.500  28.362  1.00  0.00    -0.350 N
ATOM      4  H1  UNL     1      24.570  36.537  28.771  1.00  0.00     0.169 HD
ENDROOT
BRANCH   3   5
HETATM    5  C3  UNL     1      23.294  35.419  27.501  1.00  0.00     0.148 C
BRANCH   5   6
HETATM    6  C4  UNL     1      23.595  34.040  28.085  1.00  0.00     0.134 C
BRANCH   6   7
HETATM    7  N2  UNL     1      23.973  33.131  27.071  1.00  0.00    -0.412 N
ATOM      8  H2  UNL     1      24.651  33.387  26.353  1.00  0.00     0.153 HD
BRANCH   7   9
HETATM    9  C5  UNL     1      23.387  31.881  27.091  1.00  0.00     0.127 C
HETATM   10  C6  UNL     1      23.095  31.330  28.505  1.00  0.00     0.258 C
HETATM   11  N3  UNL     1      23.235  30.006  27.855  1.00  0.00    -0.071 N
HETATM   12  C7  UNL     1      24.309  30.690  27.052  1.00  0.00     0.258 C
ATOM     13  H32 UNL     1      23.403  29.149  28.382  1.00  0.00     0.277 HD
ATOM     14  H31 UNL     1      22.450  29.519  27.422  1.00  0.00     0.277 HD
ENDBRANCH   7   9
ENDBRANCH   6   7
ENDBRANCH   5   6
ENDBRANCH   3   5
TORSDOF 4
ENDMDL