MODEL 4
REMARK VINA RESULT: -4.082486486      6.357      9.100
REMARK  4 active torsions:
REMARK  status: ('A' for Active; 'I' for Inactive)
REMARK    1  A    between atoms: C2_2  and  C3_3
REMARK    2  A    between atoms: C3_3  and  N1_4
REMARK    3  A    between atoms: N1_4  and  C4_7
REMARK    4  A    between atoms: C4_7  and  C5_8
ROOT
HETATM    1  C5  UNL     1      21.332  35.827  28.215  1.00  0.00     0.238 C
HETATM    2  C6  UNL     1      22.422  36.838  28.143  1.00  0.00     0.269 C
HETATM    3  N2  UNL     1      23.663  36.198  28.472  1.00  0.00    -0.049 N
ATOM      4  H21 UNL     1      24.099  36.563  29.318  1.00  0.00     0.279 HD
ATOM      5  H22 UNL     1      24.424  36.430  27.833  1.00  0.00     0.279 HD
HETATM    6  C7  UNL     1      23.371  34.784  28.535  1.00  0.00     0.463 C
HETATM    7  N3  UNL     1      21.958  34.683  28.847  1.00  0.00    -0.044 N
ATOM      8  H31 UNL     1      21.543  33.790  28.578  1.00  0.00     0.279 HD
ATOM      9  H32 UNL     1      21.764  34.611  29.846  1.00  0.00     0.279 HD
ENDROOT
BRANCH   1  10
HETATM   10  C4  UNL     1      20.131  36.320  28.980  1.00  0.00     0.267 C
BRANCH  10  11
HETATM   11  N1  UNL     1      20.190  35.879  30.343  1.00  0.00    -0.070 N
ATOM     12  H12 UNL     1      21.108  35.485  30.550  1.00  0.00     0.277 HD
ATOM     13  H11 UNL     1      19.612  35.048  30.474  1.00  0.00     0.277 HD
BRANCH  11  14
HETATM   14  C3  UNL     1      19.849  36.878  31.304  1.00  0.00     0.259 C
BRANCH  14  15
HETATM   15  C2  UNL     1      20.608  38.148  31.119  1.00  0.00    -0.010 C
HETATM   16  C1  UNL     1      20.034  39.272  31.577  1.00  0.00     0.008 C
ENDBRANCH  14  15
ENDBRANCH  11  14
ENDBRANCH  10  11
ENDBRANCH   1  10
TORSDOF 4
ENDMDL