MODEL 3
REMARK VINA RESULT: -4.490705460      2.153      2.618
REMARK  3 active torsions:
REMARK  status: ('A' for Active; 'I' for Inactive)
REMARK    1  A    between atoms: C1_2  and  N1_3
REMARK    2  A    between atoms: N1_3  and  C2_5
REMARK    3  A    between atoms: C2_5  and  C3_6
ROOT
HETATM    1  C3  UNL     1      22.282  37.373  28.176  1.00  0.00     0.229 C
HETATM    2  C4  UNL     1      21.298  36.633  29.096  1.00  0.00     0.266 C
HETATM    3  N2  UNL     1      21.310  37.208  30.414  1.00  0.00    -0.071 N
ATOM      4  H21 UNL     1      22.092  36.884  30.982  1.00  0.00     0.277 HD
ATOM      5  H22 UNL     1      20.558  36.857  31.008  1.00  0.00     0.277 HD
HETATM    6  C5  UNL     1      21.282  38.649  30.264  1.00  0.00     0.259 C
HETATM    7  C6  UNL     1      22.543  39.176  29.632  1.00  0.00     0.260 C
HETATM    8  N3  UNL     1      23.250  38.063  29.029  1.00  0.00    -0.066 N
ATOM      9  H31 UNL     1      24.098  38.341  28.536  1.00  0.00     0.277 HD
ATOM     10  H32 UNL     1      23.697  37.450  29.712  1.00  0.00     0.277 HD
ENDROOT
BRANCH   1  11
HETATM   11  C2  UNL     1      22.920  36.335  27.322  1.00  0.00     0.156 C
BRANCH  11  12
HETATM   12  N1  UNL     1      23.855  35.469  27.979  1.00  0.00    -0.366 N
ATOM     13  H1  UNL     1      24.624  35.875  28.513  1.00  0.00     0.161 HD
BRANCH  12  14
HETATM   14  C1  UNL     1      23.730  34.074  27.901  1.00  0.00     0.348 C
HETATM   15  O1  UNL     1      23.171  33.457  28.823  1.00  0.00    -0.284 OA
ENDBRANCH  12  14
ENDBRANCH  11  12
ENDBRANCH   1  11
TORSDOF 3
ENDMDL