MODEL 4
REMARK VINA RESULT: -4.053169407      2.744      6.582
REMARK  5 active torsions:
REMARK  status: ('A' for Active; 'I' for Inactive)
REMARK    1  A    between atoms: C2_2  and  N1_3
REMARK    2  A    between atoms: N1_3  and  C3_5
REMARK    3  A    between atoms: C3_5  and  C4_6
REMARK    4  A    between atoms: C4_6  and  N2_7
REMARK    5  A    between atoms: N2_7  and  C5_9
ROOT
HETATM    1  N2  UNL     1      23.693  33.673  28.190  1.00  0.00    -0.224 N
ATOM      2  H2  UNL     1      24.656  33.431  28.425  1.00  0.00     0.177 HD
ENDROOT
BRANCH   1   3
HETATM    3  C4  UNL     1      22.812  32.606  27.883  1.00  0.00     0.157 C
BRANCH   3   4
HETATM    4  C3  UNL     1      23.092  31.345  28.646  1.00  0.00     0.134 C
BRANCH   4   5
HETATM    5  N1  UNL     1      23.161  30.176  27.852  1.00  0.00    -0.420 N
ATOM      6  H1  UNL     1      22.430  29.466  27.891  1.00  0.00     0.153 HD
BRANCH   5   7
HETATM    7  C2  UNL     1      24.285  30.028  27.001  1.00  0.00     0.109 C
HETATM    8  C1  UNL     1      23.766  29.721  25.589  1.00  0.00     0.026 C
ENDBRANCH   5   7
ENDBRANCH   4   5
ENDBRANCH   3   4
ENDBRANCH   1   3
BRANCH   1   9
HETATM    9  C5  UNL     1      23.349  35.055  28.198  1.00  0.00     0.679 A
HETATM   10  N3  UNL     1      23.587  36.032  27.402  1.00  0.00    -0.187 N
HETATM   11  C6  UNL     1      22.875  36.944  28.214  1.00  0.00     0.215 A
ATOM     12  H3  UNL     1      24.095  36.118  26.521  1.00  0.00     0.185 HD
HETATM   13  N4  UNL     1      22.633  35.972  29.015  1.00  0.00    -0.187 N
ATOM     14  H4  UNL     1      22.125  35.889  29.895  1.00  0.00     0.185 HD
ENDBRANCH   1   9
TORSDOF 5
ENDMDL