MODEL 4
REMARK VINA RESULT: -4.943445910      3.453      5.801
REMARK  2 active torsions:
REMARK  status: ('A' for Active; 'I' for Inactive)
REMARK    1  A    between atoms: C1_4  and  N2_5
REMARK    2  A    between atoms: N2_5  and  C2_7
ROOT
HETATM    1  C2  UNL     1     -62.095  90.614 101.878  1.00  0.00     0.123 C
HETATM    2  C3  UNL     1     -62.580  91.816 102.206  1.00  0.00     0.112 C
HETATM    3  N3  UNL     1     -62.663  92.203 103.560  1.00  0.00    -0.383 N
ATOM      4  H3  UNL     1     -61.993  91.766 104.192  1.00  0.00     0.159 HD
HETATM    5  C4  UNL     1     -63.570  93.134 104.153  1.00  0.00     0.147 C
HETATM    6  C5  UNL     1     -65.020  92.916 103.815  1.00  0.00     0.251 C
HETATM    7  N4  UNL     1     -65.867  93.960 104.360  1.00  0.00    -0.074 N
ATOM      8  H41 UNL     1     -65.457  94.393 105.187  1.00  0.00     0.277 HD
ATOM      9  H42 UNL     1     -66.710  93.583 104.792  1.00  0.00     0.277 HD
HETATM   10  C6  UNL     1     -66.168  94.927 103.336  1.00  0.00     0.234 C
HETATM   11  C7  UNL     1     -66.331  96.330 103.824  1.00  0.00     0.055 C
HETATM   12  C8  UNL     1     -65.057  97.077 104.060  1.00  0.00     0.234 C
HETATM   13  N5  UNL     1     -64.755  98.082 103.089  1.00  0.00    -0.073 N
ATOM     14  H51 UNL     1     -64.440  98.939 103.543  1.00  0.00     0.277 HD
ATOM     15  H52 UNL     1     -65.608  98.427 102.649  1.00  0.00     0.277 HD
HETATM   16  C9  UNL     1     -63.788  97.644 102.077  1.00  0.00     0.259 C
HETATM   17  C10 UNL     1     -62.471  97.291 102.688  1.00  0.00     0.259 C
HETATM   18  N6  UNL     1     -61.410  97.176 101.729  1.00  0.00    -0.072 N
ATOM     19  H61 UNL     1     -60.514  96.952 102.163  1.00  0.00     0.277 HD
ATOM     20  H62 UNL     1     -61.150  98.076 101.325  1.00  0.00     0.277 HD
HETATM   21  C11 UNL     1     -61.794  96.210 100.724  1.00  0.00     0.252 C
HETATM   22  C12 UNL     1     -61.671  94.828 101.311  1.00  0.00     0.150 C
HETATM   23  N7  UNL     1     -62.865  94.074 101.028  1.00  0.00    -0.354 N
ATOM     24  H7  UNL     1     -63.692  94.607 100.761  1.00  0.00     0.162 HD
HETATM   25  C13 UNL     1     -63.003  92.665 101.083  1.00  0.00     0.269 C
HETATM   26  O1  UNL     1     -63.532  92.020 100.104  1.00  0.00    -0.266 OA
ENDROOT
BRANCH   1  27
HETATM   27  N2  UNL     1     -61.969  90.133 100.573  1.00  0.00    -0.360 N
ATOM     28  H2  UNL     1     -61.450  90.714  99.914  1.00  0.00     0.166 HD
BRANCH  27  29
HETATM   29  C1  UNL     1     -62.490  88.927 100.082  1.00  0.00     0.173 C
HETATM   30  N1  UNL     1     -63.242  88.929  99.051  1.00  0.00    -0.395 N
ATOM     31  H12 UNL     1     -63.455  89.817  98.595  1.00  0.00     0.156 HD
ATOM     32  H11 UNL     1     -63.621  88.052  98.694  1.00  0.00     0.156 HD
ENDBRANCH  27  29
ENDBRANCH   1  27
TORSDOF 2
ENDMDL