MODEL 2
REMARK VINA RESULT: -4.998611999      3.015      6.044
REMARK  3 active torsions:
REMARK  status: ('A' for Active; 'I' for Inactive)
REMARK    1  A    between atoms: C7_19  and  O1_20
REMARK    2  A    between atoms: C7_19  and  C8_22
REMARK    3  A    between atoms: C8_22  and  N6_23
ROOT
HETATM    1  N1  UNL     1     -60.004  94.196 101.401  1.00  0.00    -0.385 N
ATOM      2  H11 UNL     1     -60.533  95.014 101.100  1.00  0.00     0.157 HD
ATOM      3  H12 UNL     1     -58.994  94.148 101.530  1.00  0.00     0.157 HD
HETATM    4  C1  UNL     1     -60.670  93.120 101.653  1.00  0.00     0.134 C
HETATM    5  N2  UNL     1     -59.938  91.988 102.071  1.00  0.00    -0.360 N
ATOM      6  H2  UNL     1     -59.072  91.796 101.567  1.00  0.00     0.162 HD
HETATM    7  C2  UNL     1     -60.282  91.070 103.133  1.00  0.00     0.239 C
HETATM    8  N3  UNL     1     -60.878  89.843 102.682  1.00  0.00    -0.404 N
ATOM      9  H3  UNL     1     -61.535  89.320 103.261  1.00  0.00     0.154 HD
HETATM   10  C3  UNL     1     -60.507  89.397 101.394  1.00  0.00     0.143 C
HETATM   11  C4  UNL     1     -61.724  88.891 100.602  1.00  0.00     0.251 C
HETATM   12  N4  UNL     1     -62.865  89.642 101.030  1.00  0.00    -0.072 N
ATOM     13  H41 UNL     1     -62.617  90.314 101.757  1.00  0.00     0.277 HD
ATOM     14  H42 UNL     1     -63.513  89.062 101.564  1.00  0.00     0.277 HD
HETATM   15  C5  UNL     1     -63.525  90.284  99.926  1.00  0.00     0.251 C
HETATM   16  C6  UNL     1     -63.723  91.749 100.329  1.00  0.00     0.145 C
HETATM   17  N5  UNL     1     -62.477  92.399 100.310  1.00  0.00    -0.380 N
ATOM     18  H5  UNL     1     -61.842  92.315  99.516  1.00  0.00     0.157 HD
HETATM   19  C7  UNL     1     -62.140  93.189 101.465  1.00  0.00     0.221 C
ENDROOT
BRANCH  19  20
HETATM   20  O1  UNL     1     -62.884  92.692 102.503  1.00  0.00    -0.360 OA
ATOM     21  H1  UNL     1     -62.567  92.914 103.371  1.00  0.00     0.213 HD
ENDBRANCH  19  20
BRANCH  19  22
HETATM   22  C8  UNL     1     -62.590  94.587 101.133  1.00  0.00     0.131 C
BRANCH  22  23
HETATM   23  N6  UNL     1     -63.325  95.301 102.073  1.00  0.00    -0.366 N
HETATM   24  C9  UNL     1     -64.699  95.063 102.254  1.00  0.00     0.090 C
HETATM   25  C10 UNL     1     -65.551  96.306 102.354  1.00  0.00     0.277 C
HETATM   26  N7  UNL     1     -64.931  97.439 101.696  1.00  0.00    -0.069 N
HETATM   27  C11 UNL     1     -63.708  97.713 102.402  1.00  0.00     0.252 C
ATOM     28  H72 UNL     1     -64.794  97.297 100.695  1.00  0.00     0.277 HD
ATOM     29  H71 UNL     1     -65.546  98.250 101.628  1.00  0.00     0.277 HD
HETATM   30  C12 UNL     1     -62.824  96.516 102.589  1.00  0.00     0.154 C
ENDBRANCH  22  23
ENDBRANCH  19  22
TORSDOF 3
ENDMDL