MODEL 5
REMARK VINA RESULT: -7.072120749      1.349      1.583
REMARK  6 active torsions:
REMARK  status: ('A' for Active; 'I' for Inactive)
REMARK    1  A    between atoms: S1_2  and  N1_5
REMARK       I    between atoms: C2_7  and  N2_8
REMARK       I    between atoms: C2_7  and  N6_19
REMARK    2  A    between atoms: N2_8  and  N3_10
REMARK    3  A    between atoms: N3_10  and  C3_12
REMARK    4  A    between atoms: C3_12  and  N4_14
REMARK    5  A    between atoms: N4_14  and  N5_16
REMARK       I    between atoms: N6_19  and  C4_21
REMARK       I    between atoms: C4_21  and  N7_23
REMARK    6  A    between atoms: N7_23  and  N8_25
ROOT
HETATM    1  N1  UNL     1     -63.491  87.935  95.238  1.00  0.00    -0.115 N
ATOM      2  H1  UNL     1     -62.673  87.428  95.577  1.00  0.00     0.197 HD
HETATM    3  C2  UNL     1     -63.972  88.782  96.031  1.00  0.00     0.710 C
HETATM    4  N2  UNL     1     -65.103  89.547  95.674  1.00  0.00    -0.129 N
ATOM      5  H2  UNL     1     -66.029  89.211  95.936  1.00  0.00     0.205 HD
HETATM    6  N6  UNL     1     -63.376  88.979  97.302  1.00  0.00    -0.138 N
ATOM      7  H6  UNL     1     -62.558  88.419  97.542  1.00  0.00     0.189 HD
HETATM    8  C4  UNL     1     -63.849  89.906  98.251  1.00  0.00     0.352 C
HETATM    9  O3  UNL     1     -64.845  90.601  97.975  1.00  0.00    -0.245 OA
HETATM   10  N7  UNL     1     -63.210  90.051  99.495  1.00  0.00    -0.258 N
ATOM     11  H7  UNL     1     -62.396  89.471  99.696  1.00  0.00     0.191 HD
ENDROOT
BRANCH   1  12
HETATM   12  S1  UNL     1     -64.016  87.522  93.686  1.00  0.00     0.240 S
HETATM   13  C1  UNL     1     -65.454  86.498  93.667  1.00  0.00     0.186 C
HETATM   14  O1  UNL     1     -64.326  88.761  92.900  1.00  0.00    -0.206 OA
HETATM   15  O2  UNL     1     -62.924  86.784  92.926  1.00  0.00    -0.206 OA
ENDBRANCH   1  12
BRANCH   4  16
HETATM   16  N3  UNL     1     -64.991  90.763  94.966  1.00  0.00    -0.261 N
ATOM     17  H3  UNL     1     -64.158  91.342  95.069  1.00  0.00     0.190 HD
BRANCH  16  18
HETATM   18  C3  UNL     1     -66.045  91.176  94.110  1.00  0.00     0.205 C
HETATM   19  S2  UNL     1     -65.832  92.445  93.101  1.00  0.00    -0.038 SA
BRANCH  18  20
HETATM   20  N4  UNL     1     -67.281  90.497  94.122  1.00  0.00    -0.282 N
ATOM     21  H4  UNL     1     -67.314  89.502  94.347  1.00  0.00     0.189 HD
BRANCH  20  22
HETATM   22  N5  UNL     1     -68.457  91.184  93.826  1.00  0.00    -0.343 N
ATOM     23  H52 UNL     1     -69.352  90.716  93.969  1.00  0.00     0.176 HD
ATOM     24  H51 UNL     1     -68.415  92.139  93.474  1.00  0.00     0.176 HD
ENDBRANCH  20  22
ENDBRANCH  18  20
ENDBRANCH  16  18
ENDBRANCH   4  16
BRANCH  10  25
HETATM   25  N8  UNL     1     -63.643  90.958 100.469  1.00  0.00    -0.341 N
ATOM     26  H82 UNL     1     -63.065  91.783 100.635  1.00  0.00     0.177 HD
ATOM     27  H81 UNL     1     -64.500  90.826 101.006  1.00  0.00     0.177 HD
ENDBRANCH  10  25
TORSDOF 6
ENDMDL