MODEL 1
REMARK VINA RESULT: -9.142292482      0.000      0.000
REMARK  4 active torsions:
REMARK  status: ('A' for Active; 'I' for Inactive)
REMARK    1  A    between atoms: C5_6  and  C6_7
REMARK    2  A    between atoms: C6_7  and  N8_21
REMARK    3  A    between atoms: N2_8  and  N3_10
REMARK       I    between atoms: N3_10  and  C7_12
REMARK       I    between atoms: C7_12  and  N5_16
REMARK    4  A    between atoms: N8_21  and  N9_23
ROOT
HETATM    1  C6  UNL     1     -64.614  90.092  94.149  1.00  0.00     0.141 C
HETATM    2  N2  UNL     1     -64.651  89.273  93.173  1.00  0.00    -0.270 N
ATOM      3  H2  UNL     1     -65.130  89.581  92.326  1.00  0.00     0.189 HD
ENDROOT
BRANCH   1   4
HETATM    4  C5  UNL     1     -65.236  91.388  94.017  1.00  0.00    -0.004 C
HETATM    5  C4  UNL     1     -66.517  91.581  94.746  1.00  0.00     0.044 C
HETATM    6  C3  UNL     1     -67.596  92.042  93.787  1.00  0.00     0.035 C
HETATM    7  C2  UNL     1     -67.356  93.516  93.542  1.00  0.00     0.275 C
HETATM    8  N1  UNL     1     -66.391  93.765  92.520  1.00  0.00     0.119 N
HETATM    9  C1  UNL     1     -66.551  95.151  92.091  1.00  0.00     0.312 C
HETATM   10  C11 UNL     1     -65.015  93.640  92.963  1.00  0.00     0.451 C
HETATM   11  C9  UNL     1     -64.606  92.267  93.264  1.00  0.00     0.016 C
HETATM   12  N10 UNL     1     -64.108  93.679  91.819  1.00  0.00    -0.036 N
HETATM   13  C10 UNL     1     -63.422  92.522  92.415  1.00  0.00     0.274 C
ATOM     14 2H10 UNL     1     -63.599  94.529  91.578  1.00  0.00     0.280 HD
ATOM     15 1H10 UNL     1     -64.462  93.649  90.863  1.00  0.00     0.280 HD
ENDBRANCH   1   4
BRANCH   1  16
HETATM   16  N8  UNL     1     -63.973  89.746  95.355  1.00  0.00    -0.291 N
ATOM     17  H8  UNL     1     -63.013  90.051  95.513  1.00  0.00     0.188 HD
BRANCH  16  18
HETATM   18  N9  UNL     1     -64.620  88.995  96.340  1.00  0.00    -0.344 N
ATOM     19  H92 UNL     1     -65.639  88.947  96.316  1.00  0.00     0.176 HD
ATOM     20  H91 UNL     1     -64.100  88.503  97.066  1.00  0.00     0.176 HD
ENDBRANCH  16  18
ENDBRANCH   1  16
BRANCH   2  21
HETATM   21  N3  UNL     1     -64.094  87.994  93.158  1.00  0.00    -0.131 N
HETATM   22  C7  UNL     1     -64.569  87.021  92.220  1.00  0.00     0.692 C
HETATM   23  N4  UNL     1     -64.977  87.327  91.048  1.00  0.00    -0.233 N
HETATM   24  N5  UNL     1     -64.588  85.658  92.604  1.00  0.00    -0.165 N
ATOM     25  H42 UNL     1     -64.963  88.309  90.772  1.00  0.00     0.174 HD
ATOM     26  H41 UNL     1     -65.316  86.634  90.380  1.00  0.00     0.174 HD
HETATM   27  C8  UNL     1     -65.022  85.346  93.773  1.00  0.00     0.215 C
ATOM     28  H5  UNL     1     -64.262  84.935  91.963  1.00  0.00     0.186 HD
HETATM   29  N6  UNL     1     -65.472  86.332  94.662  1.00  0.00    -0.066 NA
HETATM   30  N7  UNL     1     -65.033  83.970  94.137  1.00  0.00    -0.066 NA
ATOM     31  H3  UNL     1     -63.351  87.751  93.815  1.00  0.00     0.205 HD
ENDBRANCH   2  21
TORSDOF 4
ENDMDL