MODEL 2
REMARK VINA RESULT: -6.202651124      4.124      5.857
REMARK  4 active torsions:
REMARK  status: ('A' for Active; 'I' for Inactive)
REMARK       I    between atoms: N1_2  and  C2_4
REMARK    1  A    between atoms: C2_4  and  C3_6
REMARK    2  A    between atoms: C3_6  and  N2_7
REMARK    3  A    between atoms: C3_6  and  C4_11
REMARK    4  A    between atoms: C4_11  and  N3_14
ROOT
HETATM    1  N3  UNL     1     -64.180  90.122  97.536  1.00  0.00    -0.284 N
HETATM    2  C7  UNL     1     -65.533  90.413  97.505  1.00  0.00     0.087 C
HETATM    3  C8  UNL     1     -66.172  90.339  96.122  1.00  0.00     0.074 C
HETATM    4  C9  UNL     1     -65.185  90.608  95.011  1.00  0.00     0.237 C
HETATM    5  N4  UNL     1     -65.340  89.640  93.923  1.00  0.00    -0.073 N
ATOM      6  H41 UNL     1     -65.820  90.053  93.124  1.00  0.00     0.277 HD
ATOM      7  H42 UNL     1     -66.019  88.918  94.162  1.00  0.00     0.277 HD
HETATM    8  C10 UNL     1     -64.069  89.061  93.535  1.00  0.00     0.259 C
HETATM    9  C11 UNL     1     -64.114  87.550  93.561  1.00  0.00     0.261 C
HETATM   10  N5  UNL     1     -64.921  87.040  94.630  1.00  0.00    -0.059 N
ATOM     11  H51 UNL     1     -65.298  86.124  94.386  1.00  0.00     0.278 HD
ATOM     12  H52 UNL     1     -65.789  87.570  94.706  1.00  0.00     0.278 HD
HETATM   13  C12 UNL     1     -64.255  86.986  95.895  1.00  0.00     0.368 C
HETATM   14  N6  UNL     1     -64.807  87.978  96.830  1.00  0.00    -0.098 NA
HETATM   15  N7  UNL     1     -63.788  88.844  97.217  1.00  0.00    -0.243 N
ATOM     16  H7  UNL     1     -62.812  88.549  97.261  1.00  0.00     0.204 HD
ENDROOT
BRANCH   1  17
HETATM   17  C4  UNL     1     -63.320  90.855  98.360  1.00  0.00     0.083 C
HETATM   18  C5  UNL     1     -61.923  90.154  98.400  1.00  0.00     0.043 C
HETATM   19  C6  UNL     1     -62.996  92.250  97.871  1.00  0.00     0.043 C
BRANCH  17  20
HETATM   20  C3  UNL     1     -63.725  90.907  99.802  1.00  0.00     0.303 C
BRANCH  20  21
HETATM   21  C2  UNL     1     -63.314  89.824 100.683  1.00  0.00     0.250 C
HETATM   22  N1  UNL     1     -62.496  89.962 101.851  1.00  0.00    -0.364 N
HETATM   23  C1  UNL     1     -62.118  88.857 102.681  1.00  0.00     0.149 C
ATOM     24  H1  UNL     1     -62.165  90.893 102.104  1.00  0.00     0.161 HD
HETATM   25  O1  UNL     1     -63.694  88.635 100.418  1.00  0.00    -0.271 OA
ENDBRANCH  20  21
BRANCH  20  26
HETATM   26  N2  UNL     1     -63.272  92.197 100.375  1.00  0.00    -0.064 N
ATOM     27  H23 UNL     1     -62.991  92.110 101.352  1.00  0.00     0.275 HD
ATOM     28  H22 UNL     1     -62.375  92.497  99.995  1.00  0.00     0.275 HD
ATOM     29  H21 UNL     1     -64.003  92.895 100.243  1.00  0.00     0.275 HD
ENDBRANCH  20  26
ENDBRANCH  17  20
ENDBRANCH   1  17
TORSDOF 4
ENDMDL