MODEL 5
REMARK VINA RESULT: -6.766814463      2.402      4.934
REMARK  7 active torsions:
REMARK  status: ('A' for Active; 'I' for Inactive)
REMARK       I    between atoms: C2_5  and  N3_6
REMARK       I    between atoms: C2_5  and  N7_17
REMARK    1  A    between atoms: N3_6  and  N4_8
REMARK    2  A    between atoms: N4_8  and  C3_10
REMARK    3  A    between atoms: C3_10  and  N5_12
REMARK    4  A    between atoms: N5_12  and  N6_14
REMARK    5  A    between atoms: N7_17  and  C4_19
REMARK    6  A    between atoms: C7_22  and  O1_23
REMARK    7  A    between atoms: C7_22  and  C8_25
ROOT
HETATM    1  N1  UNL     1     -63.536  87.219  92.475  1.00  0.00    -0.171 NA
HETATM    2  C1  UNL     1     -63.393  87.432  93.624  1.00  0.00     0.196 C
HETATM    3  N2  UNL     1     -63.199  87.679  94.972  1.00  0.00    -0.125 N
ATOM      4  H2  UNL     1     -62.649  87.030  95.535  1.00  0.00     0.197 HD
HETATM    5  C2  UNL     1     -63.712  88.727  95.517  1.00  0.00     0.702 C
HETATM    6  N3  UNL     1     -63.486  88.938  96.903  1.00  0.00    -0.129 N
ATOM      7  H3  UNL     1     -63.982  88.343  97.567  1.00  0.00     0.205 HD
HETATM    8  N7  UNL     1     -64.486  89.649  94.748  1.00  0.00    -0.216 N
ATOM      9  H7  UNL     1     -64.354  89.733  93.740  1.00  0.00     0.178 HD
ENDROOT
BRANCH   6  10
HETATM   10  N4  UNL     1     -62.626  89.911  97.410  1.00  0.00    -0.261 N
ATOM     11  H4  UNL     1     -61.819  90.230  96.875  1.00  0.00     0.190 HD
BRANCH  10  12
HETATM   12  C3  UNL     1     -62.913  90.447  98.704  1.00  0.00     0.205 C
HETATM   13  S1  UNL     1     -63.237  89.453  99.954  1.00  0.00    -0.038 SA
BRANCH  12  14
HETATM   14  N5  UNL     1     -62.921  91.845  98.923  1.00  0.00    -0.282 N
ATOM     15  H5  UNL     1     -63.221  92.480  98.183  1.00  0.00     0.189 HD
BRANCH  14  16
HETATM   16  N6  UNL     1     -62.516  92.350 100.158  1.00  0.00    -0.343 N
ATOM     17  H62 UNL     1     -62.594  91.761 100.987  1.00  0.00     0.176 HD
ATOM     18  H61 UNL     1     -62.146  93.299 100.217  1.00  0.00     0.176 HD
ENDBRANCH  14  16
ENDBRANCH  12  14
ENDBRANCH  10  12
ENDBRANCH   6  10
BRANCH   8  19
HETATM   19  C4  UNL     1     -65.445  90.446  95.430  1.00  0.00     0.143 C
HETATM   20  C5  UNL     1     -66.486  89.529  96.119  1.00  0.00     0.033 C
HETATM   21  C6  UNL     1     -67.234  89.633  94.779  1.00  0.00     0.052 C
HETATM   22  C7  UNL     1     -66.599  91.029  94.687  1.00  0.00     0.156 C
BRANCH  22  23
HETATM   23  O1  UNL     1     -67.320  91.909  95.522  1.00  0.00    -0.378 OA
ATOM     24  H1  UNL     1     -66.721  92.433  96.041  1.00  0.00     0.211 HD
ENDBRANCH  22  23
BRANCH  22  25
HETATM   25  C8  UNL     1     -66.417  91.563  93.349  1.00  0.00     0.267 C
HETATM   26  N8  UNL     1     -67.011  92.799  92.991  1.00  0.00    -0.059 NA
HETATM   27  O2  UNL     1     -65.746  90.967  92.490  1.00  0.00    -0.273 OA
ENDBRANCH  22  25
ENDBRANCH   8  19
TORSDOF 7
ENDMDL