MODEL 4
REMARK VINA RESULT: -6.549520751      2.702      7.280
REMARK  5 active torsions:
REMARK  status: ('A' for Active; 'I' for Inactive)
REMARK    1  A    between atoms: N1_1  and  N2_4
REMARK       I    between atoms: N2_4  and  C1_6
REMARK       I    between atoms: C1_6  and  N3_8
REMARK    2  A    between atoms: N3_8  and  N4_9
REMARK       I    between atoms: N4_9  and  C2_11
REMARK    3  A    between atoms: C2_11  and  C3_13
REMARK       I    between atoms: N5_18  and  C8_19
REMARK       I    between atoms: C8_19  and  N7_24
REMARK    4  A    between atoms: N6_20  and  O3_22
REMARK    5  A    between atoms: N7_24  and  N8_26
ROOT
HETATM    1  C3  UNL     1     -62.682  89.717 100.971  1.00  0.00     0.197 C
HETATM    2  C4  UNL     1     -61.417  88.930 100.640  1.00  0.00     0.036 C
HETATM    3  C5  UNL     1     -60.547  88.846 101.854  1.00  0.00     0.004 C
HETATM    4  C6  UNL     1     -60.231  90.212 102.402  1.00  0.00     0.020 C
HETATM    5  C7  UNL     1     -61.551  90.799 102.861  1.00  0.00     0.142 C
HETATM    6  N5  UNL     1     -62.337  90.921 101.614  1.00  0.00    -0.201 N
HETATM    7  C8  UNL     1     -62.661  92.251 101.253  1.00  0.00     0.714 C
HETATM    8  N6  UNL     1     -61.756  92.982 100.733  1.00  0.00    -0.097 N
ATOM      9  H6  UNL     1     -60.827  92.587 100.589  1.00  0.00     0.213 HD
HETATM   10  N7  UNL     1     -63.949  92.781 101.477  1.00  0.00    -0.137 N
ATOM     11  H7  UNL     1     -64.469  93.187 100.699  1.00  0.00     0.205 HD
ENDROOT
BRANCH   1  12
HETATM   12  C2  UNL     1     -63.480  89.867  99.709  1.00  0.00     0.270 C
HETATM   13  N4  UNL     1     -63.252  88.905  98.698  1.00  0.00    -0.196 N
ATOM     14  H4  UNL     1     -62.569  88.186  98.937  1.00  0.00     0.205 HD
HETATM   15  O2  UNL     1     -64.281  90.778  99.576  1.00  0.00    -0.269 OA
BRANCH  13  16
HETATM   16  N3  UNL     1     -63.789  88.787  97.475  1.00  0.00    -0.261 NA
HETATM   17  C1  UNL     1     -64.325  88.669  96.253  1.00  0.00     0.430 C
HETATM   18  N2  UNL     1     -65.693  88.155  96.191  1.00  0.00    -0.245 N
HETATM   19  O1  UNL     1     -63.764  88.968  95.132  1.00  0.00    -0.227 OA
ATOM     20  H2  UNL     1     -66.188  87.904  97.047  1.00  0.00     0.192 HD
BRANCH  18  21
HETATM   21  N1  UNL     1     -66.310  88.012  94.961  1.00  0.00    -0.340 N
ATOM     22  H12 UNL     1     -67.329  88.009  94.911  1.00  0.00     0.177 HD
ATOM     23  H11 UNL     1     -65.738  87.911  94.122  1.00  0.00     0.177 HD
ENDBRANCH  18  21
ENDBRANCH  13  16
ENDBRANCH   1  12
BRANCH   8  24
HETATM   24  O3  UNL     1     -61.985  94.279 100.360  1.00  0.00    -0.276 OA
ATOM     25  H3  UNL     1     -61.311  94.947 100.401  1.00  0.00     0.245 HD
ENDBRANCH   8  24
BRANCH  10  26
HETATM   26  N8  UNL     1     -64.527  92.756 102.760  1.00  0.00    -0.331 N
ATOM     27  H82 UNL     1     -63.985  93.115 103.546  1.00  0.00     0.177 HD
ATOM     28  H81 UNL     1     -65.468  92.388 102.904  1.00  0.00     0.177 HD
ENDBRANCH  10  26
TORSDOF 5
ENDMDL