MODEL 2
REMARK VINA RESULT: -7.201166507      1.862      3.146
REMARK  7 active torsions:
REMARK  status: ('A' for Active; 'I' for Inactive)
REMARK    1  A    between atoms: C2_2  and  N1_4
REMARK       I    between atoms: N1_4  and  C4_5
REMARK    2  A    between atoms: C4_5  and  O2_7
REMARK    3  A    between atoms: O2_7  and  N2_8
REMARK       I    between atoms: C5_10  and  N4_12
REMARK    4  A    between atoms: N4_12  and  N5_14
REMARK    5  A    between atoms: C6_16  and  N6_17
REMARK    6  A    between atoms: C6_16  and  C8_22
REMARK       I    between atoms: C8_22  and  N9_24
REMARK    7  A    between atoms: N9_24  and  N10_26
ROOT
HETATM    1  N5  UNL     1     -65.194  88.162  95.969  1.00  0.00    -0.278 N
ATOM      2  H5  UNL     1     -64.862  87.321  96.442  1.00  0.00     0.189 HD
HETATM    3  C6  UNL     1     -65.683  88.087  94.788  1.00  0.00     0.193 C
ENDROOT
BRANCH   1   4
HETATM    4  N4  UNL     1     -65.121  89.391  96.598  1.00  0.00    -0.270 N
HETATM    5  C5  UNL     1     -64.106  89.757  97.509  1.00  0.00     0.227 C
HETATM    6  N2  UNL     1     -63.346  88.890  98.072  1.00  0.00    -0.226 N
HETATM    7  N3  UNL     1     -63.925  91.125  97.821  1.00  0.00    -0.060 NA
ATOM      8  H2  UNL     1     -63.478  87.903  97.848  1.00  0.00     0.198 HD
ATOM      9  H4  UNL     1     -65.846  90.078  96.391  1.00  0.00     0.189 HD
BRANCH   6  10
HETATM   10  O2  UNL     1     -62.360  89.241  98.966  1.00  0.00    -0.167 OA
BRANCH  10  11
HETATM   11  C4  UNL     1     -62.526  88.946 100.354  1.00  0.00     0.457 C
HETATM   12  N1  UNL     1     -61.497  88.378 101.053  1.00  0.00    -0.384 NA
HETATM   13  O1  UNL     1     -63.670  89.273 100.760  1.00  0.00    -0.219 OA
BRANCH  12  14
HETATM   14  C2  UNL     1     -60.471  87.814 101.749  1.00  0.00     0.161 C
HETATM   15  C1  UNL     1     -59.414  88.952 101.977  1.00  0.00     0.047 C
HETATM   16  C3  UNL     1     -60.829  87.422 103.195  1.00  0.00     0.047 C
ENDBRANCH  12  14
ENDBRANCH  10  11
ENDBRANCH   6  10
ENDBRANCH   1   4
BRANCH   3  17
HETATM   17  N6  UNL     1     -66.148  89.275  94.143  1.00  0.00    -0.313 N
HETATM   18  C7  UNL     1     -65.330  90.033  93.485  1.00  0.00     0.202 C
HETATM   19  N7  UNL     1     -65.848  91.196  92.864  1.00  0.00    -0.066 NA
HETATM   20  N8  UNL     1     -63.952  89.725  93.374  1.00  0.00    -0.066 NA
ATOM     21  H6  UNL     1     -67.135  89.527  94.201  1.00  0.00     0.170 HD
ENDBRANCH   3  17
BRANCH   3  22
HETATM   22  C8  UNL     1     -65.744  86.785  94.141  1.00  0.00     0.304 C
HETATM   23  O3  UNL     1     -66.819  86.138  94.166  1.00  0.00    -0.263 OA
HETATM   24  N9  UNL     1     -64.621  86.236  93.484  1.00  0.00    -0.270 N
ATOM     25  H9  UNL     1     -63.738  86.747  93.454  1.00  0.00     0.189 HD
BRANCH  24  26
HETATM   26  N10 UNL     1     -64.736  84.992  92.880  1.00  0.00    -0.342 N
ATOM     27 2H10 UNL     1     -64.948  84.174  93.451  1.00  0.00     0.176 HD
ATOM     28 1H10 UNL     1     -64.606  84.918  91.871  1.00  0.00     0.176 HD
ENDBRANCH  24  26
ENDBRANCH   3  22
TORSDOF 7
ENDMDL