MODEL 3
REMARK VINA RESULT: -7.413016392      2.315      4.763
REMARK  2 active torsions:
REMARK  status: ('A' for Active; 'I' for Inactive)
REMARK       I    between atoms: C2_5  and  N3_6
REMARK       I    between atoms: C2_5  and  N9_19
REMARK    1  A    between atoms: N3_6  and  N4_8
REMARK       I    between atoms: N4_8  and  C3_10
REMARK       I    between atoms: N6_12  and  C4_14
REMARK    2  A    between atoms: N9_19  and  N10_21
ROOT
HETATM    1  N1  UNL     1     -64.604  86.041  95.063  1.00  0.00    -0.171 NA
HETATM    2  C1  UNL     1     -64.236  86.940  95.723  1.00  0.00     0.196 C
HETATM    3  N2  UNL     1     -63.812  88.018  96.502  1.00  0.00    -0.123 N
ATOM      4  H2  UNL     1     -63.335  87.839  97.386  1.00  0.00     0.197 HD
HETATM    5  C2  UNL     1     -64.011  89.233  96.126  1.00  0.00     0.721 C
HETATM    6  N3  UNL     1     -64.676  89.448  94.896  1.00  0.00    -0.128 N
ATOM      7  H3  UNL     1     -65.459  88.838  94.662  1.00  0.00     0.205 HD
HETATM    8  N9  UNL     1     -63.567  90.317  96.940  1.00  0.00    -0.116 N
ATOM      9  H9  UNL     1     -63.701  91.275  96.618  1.00  0.00     0.207 HD
ENDROOT
BRANCH   6  10
HETATM   10  N4  UNL     1     -64.330  90.435  93.988  1.00  0.00    -0.259 N
HETATM   11  C3  UNL     1     -65.286  91.354  93.426  1.00  0.00     0.209 C
HETATM   12  N5  UNL     1     -66.336  90.871  92.605  1.00  0.00    -0.062 NA
HETATM   13  N6  UNL     1     -65.212  92.617  93.653  1.00  0.00    -0.304 N
HETATM   14  C4  UNL     1     -66.170  93.485  93.083  1.00  0.00     0.188 C
ATOM     15  H6  UNL     1     -64.466  92.990  94.240  1.00  0.00     0.171 HD
HETATM   16  N7  UNL     1     -67.430  93.388  93.336  1.00  0.00    -0.373 N
HETATM   17  N8  UNL     1     -65.732  94.500  92.200  1.00  0.00    -0.064 NA
ATOM     18  H72 UNL     1     -67.746  92.657  93.973  1.00  0.00     0.158 HD
ATOM     19  H71 UNL     1     -68.122  94.015  92.924  1.00  0.00     0.158 HD
ATOM     20  H4  UNL     1     -63.354  90.516  93.705  1.00  0.00     0.190 HD
ENDBRANCH   6  10
BRANCH   8  21
HETATM   21  N10 UNL     1     -62.982  90.095  98.114  1.00  0.00    -0.223 N
HETATM   22  C5  UNL     1     -61.694  90.533  98.390  1.00  0.00     0.168 C
HETATM   23  C6  UNL     1     -61.490  90.135  99.859  1.00  0.00     0.058 C
HETATM   24  C7  UNL     1     -62.615  89.111 100.055  1.00  0.00     0.175 C
HETATM   25  S1  UNL     1     -63.131  89.106 101.781  1.00  0.00    -0.072 SA
HETATM   26  N11 UNL     1     -63.653  89.642  99.176  1.00  0.00    -0.106 NA
ENDBRANCH   8  21
TORSDOF 2
ENDMDL