MODEL 5
REMARK VINA RESULT: -6.509211235      1.541      3.268
REMARK  2 active torsions:
REMARK  status: ('A' for Active; 'I' for Inactive)
REMARK       I    between atoms: C1_4  and  N3_6
REMARK    1  A    between atoms: N3_6  and  N4_8
REMARK    2  A    between atoms: C2_10  and  N5_11
ROOT
HETATM    1  N5  UNL     1     -63.625  90.534  98.068  1.00  0.00    -0.341 N
ATOM      2  H5  UNL     1     -63.480  91.395  97.541  1.00  0.00     0.167 HD
HETATM    3  C3  UNL     1     -63.402  90.581  99.343  1.00  0.00     0.079 C
HETATM    4  C4  UNL     1     -62.958  91.937  99.825  1.00  0.00     0.103 C
HETATM    5  C5  UNL     1     -63.384  92.208 101.233  1.00  0.00     0.239 C
HETATM    6  N6  UNL     1     -63.427  93.616 101.500  1.00  0.00    -0.073 N
ATOM      7  H61 UNL     1     -64.036  93.807 102.296  1.00  0.00     0.277 HD
ATOM      8  H62 UNL     1     -63.942  94.101 100.766  1.00  0.00     0.277 HD
HETATM    9  C6  UNL     1     -62.141  94.224 101.697  1.00  0.00     0.259 C
HETATM   10  C7  UNL     1     -61.283  93.516 102.706  1.00  0.00     0.259 C
HETATM   11  N7  UNL     1     -60.233  92.722 102.091  1.00  0.00    -0.072 N
ATOM     12  H71 UNL     1     -59.451  93.308 101.799  1.00  0.00     0.277 HD
ATOM     13  H72 UNL     1     -60.523  92.371 101.178  1.00  0.00     0.277 HD
HETATM   14  C8  UNL     1     -59.793  91.656 102.941  1.00  0.00     0.259 C
HETATM   15  C9  UNL     1     -59.553  90.435 102.075  1.00  0.00     0.259 C
HETATM   16  N8  UNL     1     -60.686  89.543 102.253  1.00  0.00    -0.072 N
ATOM     17  H81 UNL     1     -61.391  89.950 102.867  1.00  0.00     0.277 HD
ATOM     18  H82 UNL     1     -60.438  88.730 102.816  1.00  0.00     0.277 HD
HETATM   19  C10 UNL     1     -61.255  89.152 100.970  1.00  0.00     0.251 C
HETATM   20  C11 UNL     1     -62.712  88.929 101.160  1.00  0.00     0.148 C
HETATM   21  N9  UNL     1     -63.572  89.451 100.158  1.00  0.00    -0.378 N
ATOM     22  H9  UNL     1     -64.438  88.932 100.010  1.00  0.00     0.160 HD
ENDROOT
BRANCH   1  23
HETATM   23  C2  UNL     1     -64.048  89.405  97.342  1.00  0.00     0.198 C
HETATM   24  N4  UNL     1     -63.414  88.909  96.344  1.00  0.00    -0.294 N
ATOM     25  H4  UNL     1     -62.543  89.333  96.026  1.00  0.00     0.187 HD
BRANCH  24  26
HETATM   26  N3  UNL     1     -63.925  87.790  95.700  1.00  0.00    -0.273 N
HETATM   27  C1  UNL     1     -64.987  87.979  94.769  1.00  0.00     0.200 C
HETATM   28  N1  UNL     1     -64.670  88.272  93.566  1.00  0.00    -0.372 N
HETATM   29  N2  UNL     1     -66.355  87.857  95.115  1.00  0.00    -0.062 NA
ATOM     30  H12 UNL     1     -65.430  88.406  92.899  1.00  0.00     0.158 HD
ATOM     31  H11 UNL     1     -63.685  88.359  93.317  1.00  0.00     0.158 HD
ATOM     32  H3  UNL     1     -63.551  86.860  95.888  1.00  0.00     0.189 HD
ENDBRANCH  24  26
ENDBRANCH   1  23
TORSDOF 2
ENDMDL