MODEL 2
REMARK VINA RESULT: -7.487013667      2.814      4.634
REMARK  7 active torsions:
REMARK  status: ('A' for Active; 'I' for Inactive)
REMARK    1  A    between atoms: C1_2  and  C2_4
REMARK       I    between atoms: C2_4  and  N2_6
REMARK    2  A    between atoms: N2_6  and  N3_8
REMARK    3  A    between atoms: N3_8  and  C3_10
REMARK    4  A    between atoms: C3_10  and  N4_12
REMARK    5  A    between atoms: N4_12  and  N5_14
REMARK       I    between atoms: N5_14  and  C4_16
REMARK    6  A    between atoms: C4_16  and  C5_18
REMARK    7  A    between atoms: C5_18  and  N6_19
ROOT
HETATM    1  N4  UNL     1      21.431  88.716  75.192  1.00  0.00    -0.272 N
ATOM      2  H4  UNL     1      21.388  89.735  75.150  1.00  0.00     0.189 HD
ENDROOT
BRANCH   1   3
HETATM    3  C3  UNL     1      21.083  88.031  74.014  1.00  0.00     0.205 C
HETATM    4  S1  UNL     1      22.154  88.106  72.736  1.00  0.00    -0.038 SA
BRANCH   3   5
HETATM    5  N3  UNL     1      19.904  87.279  73.799  1.00  0.00    -0.272 N
ATOM      6  H3  UNL     1      19.951  86.281  73.595  1.00  0.00     0.189 HD
BRANCH   5   7
HETATM    7  N2  UNL     1      18.662  87.940  73.873  1.00  0.00    -0.260 N
HETATM    8  C2  UNL     1      17.862  88.215  72.743  1.00  0.00     0.325 C
HETATM    9  O2  UNL     1      18.248  87.862  71.608  1.00  0.00    -0.261 OA
ATOM     10  H2  UNL     1      18.325  88.236  74.789  1.00  0.00     0.190 HD
BRANCH   8  11
HETATM   11  C1  UNL     1      16.602  88.904  72.896  1.00  0.00     0.324 C
HETATM   12  N1  UNL     1      15.417  88.310  73.370  1.00  0.00    -0.053 NA
HETATM   13  O1  UNL     1      16.570  90.142  72.578  1.00  0.00    -0.266 OA
ENDBRANCH   8  11
ENDBRANCH   5   7
ENDBRANCH   3   5
ENDBRANCH   1   3
BRANCH   1  14
HETATM   14  N5  UNL     1      21.826  88.173  76.402  1.00  0.00    -0.266 N
HETATM   15  C4  UNL     1      20.932  87.552  77.265  1.00  0.00     0.272 C
HETATM   16  O3  UNL     1      19.710  87.466  76.992  1.00  0.00    -0.269 OA
ATOM     17  H5  UNL     1      22.809  88.231  76.669  1.00  0.00     0.190 HD
BRANCH  15  18
HETATM   18  C5  UNL     1      21.346  86.939  78.576  1.00  0.00     0.205 A
HETATM   19  C6  UNL     1      20.521  85.974  79.287  1.00  0.00     0.052 A
HETATM   20  C7  UNL     1      21.626  85.442  78.420  1.00  0.00     0.052 A
BRANCH  18  21
HETATM   21  N6  UNL     1      22.342  87.727  79.283  1.00  0.00    -0.061 N
ATOM     22  H63 UNL     1      22.712  87.214  80.084  1.00  0.00     0.275 HD
ATOM     23  H62 UNL     1      23.195  87.815  78.732  1.00  0.00     0.275 HD
ATOM     24  H61 UNL     1      21.997  88.644  79.568  1.00  0.00     0.275 HD
ENDBRANCH  18  21
ENDBRANCH  15  18
ENDBRANCH   1  14
TORSDOF 7
ENDMDL