MODEL 2
REMARK VINA RESULT: -7.833449618      2.082      5.783
REMARK  2 active torsions:
REMARK  status: ('A' for Active; 'I' for Inactive)
REMARK       I    between atoms: C2_5  and  N3_6
REMARK       I    between atoms: C2_5  and  N7_15
REMARK       I    between atoms: N3_6  and  C3_8
REMARK       I    between atoms: C3_8  and  N4_10
REMARK    1  A    between atoms: N7_15  and  C5_17
REMARK    2  A    between atoms: C5_17  and  C6_18
ROOT
HETATM    1  N1  UNL     1      19.761  87.715  77.298  1.00  0.00    -0.171 NA
HETATM    2  C1  UNL     1      20.474  87.777  76.387  1.00  0.00     0.196 C
HETATM    3  N2  UNL     1      21.320  87.842  75.276  1.00  0.00    -0.126 N
ATOM      4  H2  UNL     1      22.326  87.896  75.432  1.00  0.00     0.197 HD
HETATM    5  C2  UNL     1      20.880  87.837  74.051  1.00  0.00     0.693 C
HETATM    6  N3  UNL     1      19.476  87.762  73.891  1.00  0.00    -0.141 N
ATOM      7  H3  UNL     1      18.916  87.715  74.742  1.00  0.00     0.189 HD
HETATM    8  C3  UNL     1      18.776  87.745  72.664  1.00  0.00     0.340 C
HETATM    9  O1  UNL     1      19.327  87.799  71.539  1.00  0.00    -0.246 OA
HETATM   10  N4  UNL     1      17.336  87.662  72.613  1.00  0.00    -0.284 N
ATOM     11  H4  UNL     1      16.895  86.795  72.305  1.00  0.00     0.172 HD
HETATM   12  C4  UNL     1      16.597  88.662  72.949  1.00  0.00     0.204 C
HETATM   13  N5  UNL     1      15.189  88.506  72.872  1.00  0.00    -0.066 NA
HETATM   14  N6  UNL     1      17.222  89.860  73.377  1.00  0.00    -0.066 NA
HETATM   15  N7  UNL     1      21.736  87.897  72.942  1.00  0.00    -0.180 N
ATOM     16  H7  UNL     1      21.562  87.266  72.160  1.00  0.00     0.181 HD
ENDROOT
BRANCH  15  17
HETATM   17  C5  UNL     1      22.861  88.815  72.850  1.00  0.00     0.299 C
HETATM   18  C7  UNL     1      24.134  88.144  73.365  1.00  0.00     0.076 C
HETATM   19  C8  UNL     1      25.165  89.093  72.768  1.00  0.00     0.032 C
HETATM   20  C9  UNL     1      24.514  89.632  71.517  1.00  0.00     0.236 C
HETATM   21  N8  UNL     1      23.208  89.062  71.475  1.00  0.00    -0.038 N
ATOM     22  H82 UNL     1      23.137  88.238  70.878  1.00  0.00     0.280 HD
ATOM     23  H81 UNL     1      22.525  89.630  70.973  1.00  0.00     0.280 HD
BRANCH  17  24
HETATM   24  C6  UNL     1      22.571  90.075  73.532  1.00  0.00     0.233 C
HETATM   25  O2  UNL     1      22.153  91.052  72.823  1.00  0.00    -0.645 OA
HETATM   26  O3  UNL     1      22.705  90.324  74.879  1.00  0.00    -0.645 OA
ENDBRANCH  17  24
ENDBRANCH  15  17
TORSDOF 2
ENDMDL