MODEL 1
REMARK VINA RESULT: -7.653041509      0.000      0.000
REMARK  6 active torsions:
REMARK  status: ('A' for Active; 'I' for Inactive)
REMARK       I    between atoms: C2_2  and  N1_4
REMARK    1  A    between atoms: N1_4  and  N2_6
REMARK       I    between atoms: N2_6  and  C3_8
REMARK       I    between atoms: C3_8  and  N3_10
REMARK    2  A    between atoms: N3_10  and  N4_12
REMARK    3  A    between atoms: N4_12  and  C4_14
REMARK    4  A    between atoms: C4_14  and  N5_16
REMARK    5  A    between atoms: N5_16  and  N6_18
REMARK       I    between atoms: N6_18  and  C5_20
REMARK    6  A    between atoms: C5_20  and  C6_22
ROOT
HETATM    1  N4  UNL     1      19.024  87.833  72.684  1.00  0.00    -0.271 N
ATOM      2  H4  UNL     1      19.047  86.836  72.467  1.00  0.00     0.189 HD
ENDROOT
BRANCH   1   3
HETATM    3  N3  UNL     1      20.091  88.499  72.183  1.00  0.00    -0.248 N
HETATM    4  C3  UNL     1      21.472  88.432  72.365  1.00  0.00     0.353 C
HETATM    5  N2  UNL     1      22.315  89.338  71.628  1.00  0.00    -0.248 N
HETATM    6  O2  UNL     1      22.074  87.653  73.116  1.00  0.00    -0.244 OA
ATOM      7  H2  UNL     1      21.879  90.003  70.989  1.00  0.00     0.192 HD
ATOM      8  H3  UNL     1      19.822  89.219  71.514  1.00  0.00     0.192 HD
BRANCH   5   9
HETATM    9  N1  UNL     1      23.690  89.342  71.753  1.00  0.00    -0.266 N
HETATM   10  C2  UNL     1      24.329  90.438  72.387  1.00  0.00     0.232 C
HETATM   11  C1  UNL     1      25.799  90.453  72.531  1.00  0.00     0.119 C
HETATM   12  O1  UNL     1      23.622  91.377  72.817  1.00  0.00    -0.272 OA
ATOM     13  H1  UNL     1      24.242  88.563  71.393  1.00  0.00     0.190 HD
ENDBRANCH   5   9
ENDBRANCH   1   3
BRANCH   1  14
HETATM   14  C4  UNL     1      17.901  88.193  73.428  1.00  0.00     0.205 C
HETATM   15  S1  UNL     1      16.559  88.837  72.782  1.00  0.00    -0.038 SA
BRANCH  14  16
HETATM   16  N5  UNL     1      17.884  87.997  74.866  1.00  0.00    -0.272 N
ATOM     17  H5  UNL     1      17.002  87.878  75.364  1.00  0.00     0.189 HD
BRANCH  16  18
HETATM   18  N6  UNL     1      19.100  87.973  75.551  1.00  0.00    -0.261 N
HETATM   19  C5  UNL     1      19.939  89.124  75.560  1.00  0.00     0.305 C
HETATM   20  O3  UNL     1      19.640  90.182  74.977  1.00  0.00    -0.263 OA
ATOM     21  H6  UNL     1      19.389  87.130  76.046  1.00  0.00     0.190 HD
BRANCH  19  22
HETATM   22  C6  UNL     1      21.198  89.057  76.283  1.00  0.00     0.214 C
HETATM   23  C7  UNL     1      21.812  87.775  76.669  1.00  0.00     0.102 C
HETATM   24  O4  UNL     1      21.799  90.137  76.601  1.00  0.00    -0.288 OA
ENDBRANCH  19  22
ENDBRANCH  16  18
ENDBRANCH  14  16
ENDBRANCH   1  14
TORSDOF 6
ENDMDL