MODEL 4
REMARK VINA RESULT: -7.410628903      2.088      2.749
REMARK  2 active torsions:
REMARK  status: ('A' for Active; 'I' for Inactive)
REMARK       I    between atoms: C1_4  and  N2_5
REMARK       I    between atoms: C1_4  and  N7_17
REMARK       I    between atoms: N2_5  and  C2_7
REMARK       I    between atoms: C2_7  and  N3_9
REMARK    1  A    between atoms: N3_9  and  N4_11
REMARK    2  A    between atoms: N4_11  and  N5_12
REMARK       I    between atoms: N5_12  and  C3_14
ROOT
HETATM    1  N1  UNL     1      19.393  86.930  79.233  1.00  0.00    -0.234 N
ATOM      2  H11 UNL     1      19.697  86.642  80.162  1.00  0.00     0.174 HD
ATOM      3  H12 UNL     1      18.472  87.133  78.843  1.00  0.00     0.174 HD
HETATM    4  C1  UNL     1      20.436  87.088  78.368  1.00  0.00     0.679 C
HETATM    5  N2  UNL     1      20.023  87.480  77.107  1.00  0.00    -0.141 N
ATOM      6  H2  UNL     1      19.018  87.582  76.964  1.00  0.00     0.189 HD
HETATM    7  C2  UNL     1      20.850  87.750  76.006  1.00  0.00     0.351 C
HETATM    8  O1  UNL     1      22.080  87.655  76.073  1.00  0.00    -0.245 OA
HETATM    9  N3  UNL     1      20.256  88.155  74.769  1.00  0.00    -0.235 N
ATOM     10  H3  UNL     1      19.243  88.217  74.668  1.00  0.00     0.189 HD
HETATM   11  N7  UNL     1      21.692  86.811  78.900  1.00  0.00    -0.184 N
HETATM   12  C4  UNL     1      22.916  87.580  78.984  1.00  0.00     0.174 C
HETATM   13  C5  UNL     1      23.508  87.181  80.357  1.00  0.00     0.295 C
HETATM   14  N8  UNL     1      22.599  86.231  80.828  1.00  0.00     0.113 N
HETATM   15  C6  UNL     1      23.110  85.052  81.481  1.00  0.00     0.275 C
HETATM   16  C7  UNL     1      21.967  84.053  81.238  1.00  0.00     0.034 C
HETATM   17  C8  UNL     1      21.048  84.767  80.210  1.00  0.00     0.060 C
HETATM   18  C9  UNL     1      22.107  85.604  79.578  1.00  0.00     0.339 C
ENDROOT
BRANCH   9  19
HETATM   19  N4  UNL     1      21.113  88.466  73.690  1.00  0.00    -0.015 NA
BRANCH  19  20
HETATM   20  N5  UNL     1      20.380  88.459  72.502  1.00  0.00    -0.238 N
HETATM   21  C3  UNL     1      19.417  87.521  72.114  1.00  0.00     0.345 C
HETATM   22  N6  UNL     1      18.733  87.639  70.865  1.00  0.00    -0.039 NA
HETATM   23  O2  UNL     1      19.106  86.521  72.847  1.00  0.00    -0.250 OA
ATOM     24  H5  UNL     1      20.566  89.219  71.848  1.00  0.00     0.188 HD
ENDBRANCH  19  20
ENDBRANCH   9  19
TORSDOF 2
ENDMDL