MODEL 3
REMARK VINA RESULT: -7.673131330      2.103      5.069
REMARK  2 active torsions:
REMARK  status: ('A' for Active; 'I' for Inactive)
REMARK       I    between atoms: C1_4  and  N3_6
REMARK       I    between atoms: C2_8  and  N5_10
REMARK    1  A    between atoms: C6_15  and  C7_16
REMARK       I    between atoms: C7_16  and  N6_18
REMARK    2  A    between atoms: N6_18  and  N7_20
REMARK       I    between atoms: N7_20  and  C8_22
ROOT
HETATM    1  N1  UNL     1      21.106  87.481  78.828  1.00  0.00    -0.373 N
ATOM      2  H11 UNL     1      20.531  88.324  78.820  1.00  0.00     0.158 HD
ATOM      3  H12 UNL     1      21.636  87.247  79.668  1.00  0.00     0.158 HD
HETATM    4  C1  UNL     1      21.122  86.763  77.759  1.00  0.00     0.188 C
HETATM    5  N2  UNL     1      21.924  85.587  77.771  1.00  0.00    -0.064 NA
HETATM    6  N3  UNL     1      20.387  87.088  76.596  1.00  0.00    -0.305 N
ATOM      7  H3  UNL     1      19.571  86.521  76.371  1.00  0.00     0.171 HD
HETATM    8  C2  UNL     1      20.692  88.074  75.788  1.00  0.00     0.193 C
HETATM    9  N4  UNL     1      21.842  88.809  76.178  1.00  0.00    -0.063 NA
HETATM   10  N5  UNL     1      19.915  88.336  74.645  1.00  0.00    -0.338 N
HETATM   11  C3  UNL     1      18.550  87.793  74.608  1.00  0.00     0.152 C
HETATM   12  C4  UNL     1      18.439  87.227  73.182  1.00  0.00     0.187 C
HETATM   13  O1  UNL     1      19.687  86.960  72.635  1.00  0.00    -0.387 OA
HETATM   14  C5  UNL     1      20.369  88.113  72.282  1.00  0.00     0.202 C
HETATM   15  C6  UNL     1      20.296  89.070  73.481  1.00  0.00     0.204 C
ENDROOT
BRANCH  15  16
HETATM   16  C7  UNL     1      21.487  89.903  73.581  1.00  0.00     0.261 C
HETATM   17  O2  UNL     1      21.413  91.044  74.094  1.00  0.00    -0.269 OA
HETATM   18  N6  UNL     1      22.743  89.456  73.109  1.00  0.00    -0.265 N
ATOM     19  H6  UNL     1      22.801  88.527  72.692  1.00  0.00     0.190 HD
BRANCH  18  20
HETATM   20  N7  UNL     1      23.904  90.223  73.189  1.00  0.00    -0.251 N
HETATM   21  C8  UNL     1      25.081  89.911  72.446  1.00  0.00     0.347 C
HETATM   22  N8  UNL     1      26.225  90.741  72.578  1.00  0.00    -0.038 NA
HETATM   23  O3  UNL     1      25.142  88.924  71.674  1.00  0.00    -0.249 OA
ATOM     24  H7  UNL     1      23.912  91.038  73.801  1.00  0.00     0.191 HD
ENDBRANCH  18  20
ENDBRANCH  15  16
TORSDOF 2
ENDMDL