MODEL 4
REMARK VINA RESULT: -7.372505712      1.998      3.256
REMARK  4 active torsions:
REMARK  status: ('A' for Active; 'I' for Inactive)
REMARK    1  A    between atoms: C2_2  and  N1_3
REMARK    2  A    between atoms: C2_2  and  C4_12
REMARK       I    between atoms: N1_3  and  C3_5
REMARK       I    between atoms: C3_5  and  N2_7
REMARK    3  A    between atoms: N2_7  and  N3_9
REMARK       I    between atoms: C4_12  and  N4_14
REMARK    4  A    between atoms: N4_14  and  N5_16
REMARK       I    between atoms: N5_16  and  C5_18
REMARK       I    between atoms: C5_18  and  N6_20
ROOT
HETATM    1  C4  UNL     1      21.575  89.792  75.552  1.00  0.00     0.258 C
HETATM    2  O2  UNL     1      21.711  90.528  76.546  1.00  0.00    -0.269 OA
HETATM    3  N4  UNL     1      21.712  88.390  75.692  1.00  0.00    -0.264 N
ATOM      4  H4  UNL     1      21.597  87.792  74.873  1.00  0.00     0.190 HD
ENDROOT
BRANCH   3   5
HETATM    5  N5  UNL     1      22.000  87.811  76.920  1.00  0.00    -0.249 N
HETATM    6  C5  UNL     1      20.948  87.314  77.727  1.00  0.00     0.337 C
HETATM    7  O3  UNL     1      19.768  87.422  77.276  1.00  0.00    -0.245 OA
HETATM    8  N6  UNL     1      21.182  86.713  78.995  1.00  0.00    -0.330 N
HETATM    9  C6  UNL     1      22.558  86.636  79.457  1.00  0.00     0.155 C
HETATM   10  C9  UNL     1      20.067  86.220  79.731  1.00  0.00     0.155 C
HETATM   11  C7  UNL     1      22.595  85.817  80.756  1.00  0.00     0.252 C
HETATM   12  N7  UNL     1      21.769  84.637  80.455  1.00  0.00    -0.072 N
HETATM   13  C8  UNL     1      20.392  85.064  80.633  1.00  0.00     0.252 C
ATOM     14  H72 UNL     1      21.955  84.231  79.538  1.00  0.00     0.277 HD
ATOM     15  H71 UNL     1      22.015  83.815  81.005  1.00  0.00     0.277 HD
ATOM     16  H5  UNL     1      22.966  87.743  77.240  1.00  0.00     0.192 HD
ENDBRANCH   3   5
BRANCH   1  17
HETATM   17  C2  UNL     1      21.270  90.374  74.215  1.00  0.00     0.176 C
HETATM   18  C1  UNL     1      22.488  91.079  73.659  1.00  0.00     0.042 C
BRANCH  17  19
HETATM   19  N1  UNL     1      20.785  89.374  73.297  1.00  0.00    -0.329 N
HETATM   20  C3  UNL     1      19.401  89.111  73.195  1.00  0.00     0.335 C
HETATM   21  O1  UNL     1      18.570  89.740  73.902  1.00  0.00    -0.246 OA
HETATM   22  N2  UNL     1      18.936  88.134  72.297  1.00  0.00    -0.258 N
ATOM     23  H2  UNL     1      19.596  87.615  71.718  1.00  0.00     0.191 HD
ATOM     24  H1  UNL     1      21.445  88.854  72.717  1.00  0.00     0.165 HD
BRANCH  22  25
HETATM   25  N3  UNL     1      17.570  87.880  72.203  1.00  0.00    -0.341 N
ATOM     26  H32 UNL     1      16.909  88.615  72.450  1.00  0.00     0.177 HD
ATOM     27  H31 UNL     1      17.248  86.964  71.888  1.00  0.00     0.177 HD
ENDBRANCH  22  25
ENDBRANCH  17  19
ENDBRANCH   1  17
TORSDOF 4
ENDMDL