MODEL 1
REMARK VINA RESULT: -6.743396699      0.000      0.000
REMARK  9 active torsions:
REMARK  status: ('A' for Active; 'I' for Inactive)
REMARK    1  A    between atoms: C2_2  and  N3_8
REMARK    2  A    between atoms: N1_3  and  N2_5
REMARK    3  A    between atoms: N3_8  and  N4_10
REMARK    4  A    between atoms: N4_10  and  C3_12
REMARK    5  A    between atoms: C3_12  and  N5_14
REMARK    6  A    between atoms: N5_14  and  N6_16
REMARK    7  A    between atoms: N6_16  and  C4_18
REMARK    8  A    between atoms: C4_18  and  N7_20
REMARK    9  A    between atoms: N7_20  and  C5_22
ROOT
HETATM    1  C3  UNL     1      22.195  89.969  74.010  1.00  0.00     0.205 C
HETATM    2  S1  UNL     1      22.166  91.494  73.383  1.00  0.00    -0.038 SA
ENDROOT
BRANCH   1   3
HETATM    3  N4  UNL     1      22.855  88.915  73.304  1.00  0.00    -0.274 N
ATOM      4  H4  UNL     1      22.849  87.959  73.658  1.00  0.00     0.189 HD
BRANCH   3   5
HETATM    5  N3  UNL     1      23.508  89.242  72.117  1.00  0.00    -0.286 N
ATOM      6  H3  UNL     1      22.964  89.529  71.304  1.00  0.00     0.188 HD
BRANCH   5   7
HETATM    7  C2  UNL     1      24.922  89.177  72.031  1.00  0.00     0.106 C
HETATM    8  C1  UNL     1      25.716  90.358  72.392  1.00  0.00     0.092 C
HETATM    9  N1  UNL     1      25.484  88.067  71.631  1.00  0.00    -0.295 N
ATOM     10  H1  UNL     1      26.500  88.006  71.565  1.00  0.00     0.187 HD
BRANCH   9  11
HETATM   11  N2  UNL     1      24.698  86.962  71.294  1.00  0.00    -0.344 N
ATOM     12  H22 UNL     1      23.688  87.017  71.428  1.00  0.00     0.176 HD
ATOM     13  H21 UNL     1      25.131  86.118  70.920  1.00  0.00     0.176 HD
ENDBRANCH   9  11
ENDBRANCH   5   7
ENDBRANCH   3   5
ENDBRANCH   1   3
BRANCH   1  14
HETATM   14  N5  UNL     1      21.550  89.760  75.249  1.00  0.00    -0.273 N
ATOM     15  H5  UNL     1      22.106  89.618  76.092  1.00  0.00     0.189 HD
BRANCH  14  16
HETATM   16  N6  UNL     1      20.174  89.745  75.324  1.00  0.00    -0.274 N
ATOM     17  H6  UNL     1      19.689  90.364  75.973  1.00  0.00     0.189 HD
BRANCH  16  18
HETATM   18  C4  UNL     1      19.440  88.864  74.495  1.00  0.00     0.188 C
HETATM   19  S2  UNL     1      19.725  87.273  74.585  1.00  0.00    -0.039 SA
BRANCH  18  20
HETATM   20  N7  UNL     1      18.476  89.369  73.609  1.00  0.00    -0.338 N
ATOM     21  H7  UNL     1      18.543  90.343  73.313  1.00  0.00     0.164 HD
BRANCH  20  22
HETATM   22  C5  UNL     1      17.399  88.567  73.105  1.00  0.00     0.246 A
HETATM   23  C6  UNL     1      16.256  89.098  72.470  1.00  0.00     0.224 A
HETATM   24  O1  UNL     1      16.108  88.686  73.795  1.00  0.00    -0.360 OA
ENDBRANCH  20  22
ENDBRANCH  18  20
ENDBRANCH  16  18
ENDBRANCH  14  16
ENDBRANCH   1  14
TORSDOF 9
ENDMDL