MODEL 2
REMARK VINA RESULT: -7.537562267      1.042      1.259
REMARK  3 active torsions:
REMARK  status: ('A' for Active; 'I' for Inactive)
REMARK    1  A    between atoms: C2_2  and  N1_4
REMARK       I    between atoms: C4_6  and  N3_8
REMARK       I    between atoms: N3_8  and  C5_10
REMARK       I    between atoms: C5_10  and  N4_12
REMARK    2  A    between atoms: N4_12  and  N5_14
REMARK    3  A    between atoms: N5_14  and  C6_16
REMARK       I    between atoms: N7_20  and  C8_21
ROOT
HETATM    1  N1  UNL     1      20.063  85.474  81.717  1.00  0.00    -0.360 N
ATOM      2  H1  UNL     1      20.254  85.648  82.704  1.00  0.00     0.162 HD
HETATM    3  C4  UNL     1      20.623  86.280  80.934  1.00  0.00     0.192 C
HETATM    4  N2  UNL     1      21.454  87.347  81.435  1.00  0.00    -0.063 NA
HETATM    5  N3  UNL     1      20.446  86.158  79.521  1.00  0.00    -0.282 N
ATOM      6  H3  UNL     1      19.860  85.407  79.157  1.00  0.00     0.173 HD
HETATM    7  C5  UNL     1      21.062  87.052  78.613  1.00  0.00     0.341 C
HETATM    8  O1  UNL     1      21.782  87.975  79.036  1.00  0.00    -0.245 OA
HETATM    9  N4  UNL     1      20.853  86.882  77.238  1.00  0.00    -0.250 N
ATOM     10  H4  UNL     1      20.263  86.125  76.892  1.00  0.00     0.192 HD
ENDROOT
BRANCH   9  11
HETATM   11  N5  UNL     1      21.465  87.767  76.351  1.00  0.00    -0.284 N
ATOM     12  H5  UNL     1      22.456  87.997  76.430  1.00  0.00     0.188 HD
BRANCH  11  13
HETATM   13  C6  UNL     1      20.656  88.336  75.334  1.00  0.00     0.111 C
HETATM   14  N6  UNL     1      19.959  89.380  75.446  1.00  0.00    -0.361 N
HETATM   15  C7  UNL     1      19.271  89.661  74.223  1.00  0.00     0.250 C
ATOM     16  H6  UNL     1      19.894  89.947  76.291  1.00  0.00     0.162 HD
HETATM   17  N7  UNL     1      19.364  88.451  73.441  1.00  0.00    -0.333 N
HETATM   18  C8  UNL     1      18.557  87.970  72.375  1.00  0.00     0.185 C
HETATM   19  C9  UNL     1      20.519  87.770  73.987  1.00  0.00     0.204 C
HETATM   20  N8  UNL     1      17.862  88.789  71.626  1.00  0.00    -0.374 N
HETATM   21  N9  UNL     1      18.507  86.584  72.127  1.00  0.00    -0.064 NA
ATOM     22  H82 UNL     1      17.897  89.792  71.805  1.00  0.00     0.158 HD
ATOM     23  H81 UNL     1      17.282  88.443  70.861  1.00  0.00     0.158 HD
ENDBRANCH  11  13
ENDBRANCH   9  11
BRANCH   1  24
HETATM   24  C2  UNL     1      19.216  84.367  81.477  1.00  0.00     0.076 C
HETATM   25  C1  UNL     1      18.089  84.325  82.504  1.00  0.00     0.032 C
HETATM   26  C3  UNL     1      19.910  83.030  81.373  1.00  0.00     0.032 C
ENDBRANCH   1  24
TORSDOF 3
ENDMDL