MODEL 3
REMARK VINA RESULT: -6.862336817      4.457      5.748
REMARK  5 active torsions:
REMARK  status: ('A' for Active; 'I' for Inactive)
REMARK    1  A    between atoms: S1_2  and  N1_5
REMARK    2  A    between atoms: N1_5  and  C2_7
REMARK    3  A    between atoms: C2_7  and  N2_9
REMARK    4  A    between atoms: N2_9  and  N3_11
REMARK       I    between atoms: N3_11  and  C3_13
REMARK       I    between atoms: C3_13  and  N4_15
REMARK    5  A    between atoms: N4_15  and  N5_17
REMARK       I    between atoms: N5_17  and  C4_19
ROOT
HETATM    1  N3  UNL     1      20.006  87.541  76.411  1.00  0.00    -0.248 N
ATOM      2  H3  UNL     1      19.645  86.693  75.975  1.00  0.00     0.192 HD
HETATM    3  C3  UNL     1      20.927  87.320  77.423  1.00  0.00     0.353 C
HETATM    4  O3  UNL     1      21.530  88.126  78.125  1.00  0.00    -0.244 OA
HETATM    5  N4  UNL     1      21.254  85.916  77.714  1.00  0.00    -0.247 N
ATOM      6  H4  UNL     1      20.790  85.175  77.187  1.00  0.00     0.192 HD
ENDROOT
BRANCH   1   7
HETATM    7  N2  UNL     1      19.503  88.696  75.902  1.00  0.00    -0.272 N
ATOM      8  H2  UNL     1      18.675  89.007  76.410  1.00  0.00     0.189 HD
BRANCH   7   9
HETATM    9  C2  UNL     1      19.825  89.550  74.880  1.00  0.00     0.200 C
HETATM   10  S2  UNL     1      21.323  90.257  74.844  1.00  0.00    -0.039 SA
BRANCH   9  11
HETATM   11  N1  UNL     1      19.007  89.896  73.806  1.00  0.00    -0.260 N
ATOM     12  H1  UNL     1      19.172  90.804  73.371  1.00  0.00     0.181 HD
BRANCH  11  13
HETATM   13  S1  UNL     1      17.763  88.947  73.159  1.00  0.00     0.228 S
HETATM   14  C1  UNL     1      18.361  87.919  71.811  1.00  0.00     0.186 C
HETATM   15  O1  UNL     1      16.756  89.964  72.558  1.00  0.00    -0.206 OA
HETATM   16  O2  UNL     1      16.980  88.155  74.134  1.00  0.00    -0.206 OA
ENDBRANCH  11  13
ENDBRANCH   9  11
ENDBRANCH   7   9
ENDBRANCH   1   7
BRANCH   5  17
HETATM   17  N5  UNL     1      22.172  85.581  78.681  1.00  0.00    -0.250 N
HETATM   18  C4  UNL     1      21.773  85.177  79.978  1.00  0.00     0.347 C
HETATM   19  N6  UNL     1      22.786  84.838  80.938  1.00  0.00    -0.038 NA
HETATM   20  O4  UNL     1      20.572  85.108  80.314  1.00  0.00    -0.249 OA
ATOM     21  H5  UNL     1      23.166  85.625  78.458  1.00  0.00     0.191 HD
ENDBRANCH   5  17
TORSDOF 5
ENDMDL