MODEL 5
REMARK VINA RESULT: -8.218332554      1.697      1.955
REMARK  4 active torsions:
REMARK  status: ('A' for Active; 'I' for Inactive)
REMARK    1  A    between atoms: C2_2  and  O1_3
REMARK    2  A    between atoms: C6_11  and  C7_12
REMARK    3  A    between atoms: C6_11  and  C8_15
REMARK       I    between atoms: C8_15  and  N3_17
REMARK    4  A    between atoms: N3_17  and  N4_19
REMARK       I    between atoms: N4_19  and  C9_21
ROOT
HETATM    1  C1  UNL     1      23.856  91.084  73.288  1.00  0.00     0.081 C
HETATM    2  C2  UNL     1      22.889  89.985  72.860  1.00  0.00     0.255 A
HETATM    3  N1  UNL     1      21.484  90.237  72.785  1.00  0.00    -0.027 N
ATOM      4  H11 UNL     1      20.758  90.103  72.081  1.00  0.00     0.282 HD
ATOM      5  H12 UNL     1      20.896  91.068  72.724  1.00  0.00     0.282 HD
HETATM    6  C3  UNL     1      22.037  89.445  73.854  1.00  0.00     0.187 A
HETATM    7  C4  UNL     1      21.838  90.068  75.230  1.00  0.00     0.046 C
HETATM    8  C5  UNL     1      20.457  89.472  75.558  1.00  0.00     0.031 C
HETATM    9  C6  UNL     1      20.717  88.006  75.197  1.00  0.00     0.123 C
HETATM   10  C10 UNL     1      21.682  88.023  74.065  1.00  0.00     0.073 C
ENDROOT
BRANCH   9  11
HETATM   11  C7  UNL     1      19.452  87.395  74.752  1.00  0.00     0.249 C
HETATM   12  N2  UNL     1      18.208  87.645  75.397  1.00  0.00    -0.061 NA
HETATM   13  O2  UNL     1      19.409  86.601  73.751  1.00  0.00    -0.275 OA
ENDBRANCH   9  11
BRANCH   9  14
HETATM   14  C8  UNL     1      21.262  87.363  76.421  1.00  0.00     0.254 C
HETATM   15  O3  UNL     1      22.513  87.306  76.633  1.00  0.00    -0.270 OA
HETATM   16  N3  UNL     1      20.428  86.781  77.412  1.00  0.00    -0.265 N
ATOM     17  H3  UNL     1      19.415  86.802  77.291  1.00  0.00     0.190 HD
BRANCH  16  18
HETATM   18  N4  UNL     1      20.961  86.192  78.529  1.00  0.00    -0.251 N
HETATM   19  C9  UNL     1      20.668  86.594  79.860  1.00  0.00     0.347 C
HETATM   20  N5  UNL     1      21.262  85.934  80.963  1.00  0.00    -0.038 NA
HETATM   21  O4  UNL     1      19.881  87.536  80.102  1.00  0.00    -0.249 OA
ATOM     22  H4  UNL     1      21.609  85.416  78.397  1.00  0.00     0.191 HD
ENDBRANCH  16  18
ENDBRANCH   9  14
BRANCH   2  23
HETATM   23  O1  UNL     1      23.388  89.145  71.861  1.00  0.00    -0.363 OA
ATOM     24  H1  UNL     1      24.159  88.652  72.118  1.00  0.00     0.212 HD
ENDBRANCH   2  23
TORSDOF 4
ENDMDL