MODEL 1
REMARK VINA RESULT: -8.626991945      0.000      0.000
REMARK  8 active torsions:
REMARK  status: ('A' for Active; 'I' for Inactive)
REMARK    1  A    between atoms: O1_2  and  C2_3
REMARK    2  A    between atoms: C2_3  and  C3_5
REMARK    3  A    between atoms: C6_8  and  C7_9
REMARK    4  A    between atoms: C7_9  and  N1_10
REMARK    5  A    between atoms: C7_9  and  C16_24
REMARK    6  A    between atoms: N1_10  and  C8_12
REMARK    7  A    between atoms: C8_12  and  C10_14
REMARK       I    between atoms: C10_14  and  N2_16
REMARK    8  A    between atoms: N2_16  and  C11_18
ROOT
HETATM    1  C7  UNL     1      15.178   6.773  20.664  1.00  0.00     0.084 C
ENDROOT
BRANCH   1   2
HETATM    2  C6  UNL     1      15.630   7.854  19.781  1.00  0.00     0.008 C
HETATM    3  C5  UNL     1      16.430   7.317  18.635  1.00  0.00     0.007 C
HETATM    4  C4  UNL     1      16.565   8.348  17.567  1.00  0.00     0.015 C
HETATM    5  C3  UNL     1      16.918   9.677  18.101  1.00  0.00     0.085 C
HETATM    6  C20 UNL     1      17.307   9.738  19.548  1.00  0.00     0.015 C
HETATM    7  C19 UNL     1      16.432   8.934  20.454  1.00  0.00     0.007 C
BRANCH   5   8
HETATM    8  C2  UNL     1      18.057  10.231  17.310  1.00  0.00     0.262 C
HETATM    9  O2  UNL     1      18.984   9.470  16.912  1.00  0.00    -0.265 OA
BRANCH   8  10
HETATM   10  O1  UNL     1      18.150  11.571  16.984  1.00  0.00    -0.326 OA
HETATM   11  C1  UNL     1      19.269  12.047  16.255  1.00  0.00     0.213 C
ENDBRANCH   8  10
ENDBRANCH   5   8
ENDBRANCH   1   2
BRANCH   1  12
HETATM   12  N1  UNL     1      13.799   6.920  21.023  1.00  0.00    -0.405 N
ATOM     13  H1  UNL     1      13.445   7.790  21.420  1.00  0.00     0.154 HD
BRANCH  12  14
HETATM   14  C8  UNL     1      12.947   5.809  20.804  1.00  0.00     0.165 C
HETATM   15  C9  UNL     1      13.021   5.118  19.479  1.00  0.00     0.042 C
BRANCH  14  16
HETATM   16  C10 UNL     1      11.543   6.187  21.100  1.00  0.00     0.240 C
HETATM   17  O3  UNL     1      11.236   7.404  21.196  1.00  0.00    -0.271 OA
HETATM   18  N2  UNL     1      10.567   5.195  21.273  1.00  0.00    -0.355 N
ATOM     19  H2  UNL     1      10.846   4.219  21.174  1.00  0.00     0.162 HD
BRANCH  18  20
HETATM   20  C11 UNL     1       9.183   5.485  21.585  1.00  0.00     0.088 C
HETATM   21  C12 UNL     1       8.319   5.338  20.368  1.00  0.00     0.051 C
HETATM   22  C13 UNL     1       7.753   3.963  20.267  1.00  0.00     0.169 C
HETATM   23  O4  UNL     1       7.025   3.689  21.430  1.00  0.00    -0.391 OA
HETATM   24  C14 UNL     1       7.975   3.461  22.430  1.00  0.00     0.169 C
HETATM   25  C15 UNL     1       8.730   4.718  22.792  1.00  0.00     0.051 C
ENDBRANCH  18  20
ENDBRANCH  14  16
ENDBRANCH  12  14
ENDBRANCH   1  12
BRANCH   1  26
HETATM   26  C16 UNL     1      15.945   6.518  21.924  1.00  0.00     0.000 C
HETATM   27  C17 UNL     1      16.394   5.112  22.107  1.00  0.00     0.011 C
HETATM   28  C18 UNL     1      15.332   7.142  23.139  1.00  0.00     0.011 C
ENDBRANCH   1  26
TORSDOF 8
ENDMDL