MODEL 3
REMARK VINA RESULT: -8.750730714      1.549      2.094
REMARK  6 active torsions:
REMARK  status: ('A' for Active; 'I' for Inactive)
REMARK    1  A    between atoms: C2_2  and  O1_3
REMARK    2  A    between atoms: O1_3  and  C3_4
REMARK    3  A    between atoms: C3_4  and  C4_5
REMARK       I    between atoms: C4_5  and  N1_7
REMARK    4  A    between atoms: N1_7  and  C5_9
REMARK    5  A    between atoms: C12_17  and  C13_18
REMARK       I    between atoms: C13_18  and  N2_20
REMARK    6  A    between atoms: N2_20  and  C14_22
ROOT
HETATM    1  C5  UNL     1      14.081   3.538  21.517  1.00  0.00     0.129 C
HETATM    2  C6  UNL     1      14.225   2.243  22.305  1.00  0.00     0.149 C
HETATM    3  O3  UNL     1      15.640   2.214  22.399  1.00  0.00    -0.377 OA
HETATM    4  C7  UNL     1      15.905   2.159  21.008  1.00  0.00     0.141 C
HETATM    5  C8  UNL     1      15.218   0.836  20.707  1.00  0.00     0.018 C
HETATM    6  C9  UNL     1      16.012  -0.248  21.363  1.00  0.00     0.013 C
HETATM    7  C10 UNL     1      13.895   1.079  21.439  1.00  0.00     0.019 C
HETATM    8  C11 UNL     1      13.497  -0.153  22.214  1.00  0.00     0.013 C
HETATM    9  C12 UNL     1      15.088   3.244  20.397  1.00  0.00     0.132 C
ENDROOT
BRANCH   9  10
HETATM   10  C13 UNL     1      15.891   4.472  20.082  1.00  0.00     0.231 C
HETATM   11  O4  UNL     1      17.126   4.284  19.987  1.00  0.00    -0.273 OA
HETATM   12  N2  UNL     1      15.228   5.680  19.925  1.00  0.00    -0.326 N
ATOM     13  H2  UNL     1      14.214   5.665  20.036  1.00  0.00     0.169 HD
BRANCH  12  14
HETATM   14  C14 UNL     1      15.816   6.929  19.629  1.00  0.00     0.041 A
HETATM   15  C15 UNL     1      16.103   7.372  18.367  1.00  0.00     0.037 A
HETATM   16  C16 UNL     1      16.684   8.615  18.138  1.00  0.00    -0.060 A
HETATM   17  C17 UNL     1      16.977   9.055  16.748  1.00  0.00     0.048 C
HETATM   18  C18 UNL     1      16.992   9.450  19.181  1.00  0.00     0.007 A
HETATM   19  C19 UNL     1      16.696   8.984  20.444  1.00  0.00     0.009 A
HETATM   20  C20 UNL     1      16.126   7.770  20.696  1.00  0.00    -0.035 A
HETATM   21  C21 UNL     1      15.849   7.369  22.110  1.00  0.00     0.050 C
ENDBRANCH  12  14
ENDBRANCH   9  10
BRANCH   1  22
HETATM   22  N1  UNL     1      12.774   3.784  21.040  1.00  0.00    -0.351 N
HETATM   23  C4  UNL     1      12.148   5.037  21.256  1.00  0.00     0.241 C
HETATM   24  O2  UNL     1      12.783   5.919  21.880  1.00  0.00    -0.271 OA
ATOM     25  H1  UNL     1      12.275   3.051  20.535  1.00  0.00     0.163 HD
BRANCH  23  26
HETATM   26  C3  UNL     1      10.781   5.348  20.778  1.00  0.00     0.270 C
BRANCH  26  27
HETATM   27  O1  UNL     1      10.478   6.656  21.135  1.00  0.00    -0.382 OA
BRANCH  27  28
HETATM   28  C2  UNL     1       9.607   6.589  22.222  1.00  0.00     0.163 C
HETATM   29  C1  UNL     1       8.189   6.280  21.805  1.00  0.00     0.033 C
ENDBRANCH  27  28
ENDBRANCH  26  27
ENDBRANCH  23  26
ENDBRANCH   1  22
TORSDOF 6
ENDMDL