MODEL 2
REMARK VINA RESULT: -7.995251129      2.263      8.309
REMARK  7 active torsions:
REMARK  status: ('A' for Active; 'I' for Inactive)
REMARK    1  A    between atoms: C2_2  and  C3_3
REMARK    2  A    between atoms: C7_7  and  C8_8
REMARK       I    between atoms: C8_8  and  N1_10
REMARK    3  A    between atoms: N1_10  and  C9_12
REMARK    4  A    between atoms: C9_12  and  C10_13
REMARK    5  A    between atoms: C9_12  and  C14_17
REMARK    6  A    between atoms: C10_13  and  C11_14
REMARK       I    between atoms: C14_17  and  N2_19
REMARK    7  A    between atoms: N2_19  and  C15_21
ROOT
HETATM    1  C3  UNL     1       8.659   3.419  22.639  1.00  0.00     0.032 C
HETATM    2  C4  UNL     1      10.081   3.541  23.046  1.00  0.00     0.035 C
HETATM    3  C5  UNL     1      10.920   4.465  22.226  1.00  0.00     0.087 C
HETATM    4  C6  UNL     1      11.289   5.791  22.847  1.00  0.00     0.060 C
HETATM    5  C7  UNL     1      11.088   6.306  21.438  1.00  0.00     0.178 C
HETATM    6  N3  UNL     1      10.199   5.177  21.219  1.00  0.00    -0.371 N
HETATM    7  C19 UNL     1       9.088   4.564  20.530  1.00  0.00     0.105 C
HETATM    8  C20 UNL     1       8.364   3.724  21.235  1.00  0.00     0.042 C
HETATM    9  C21 UNL     1       7.250   3.112  20.524  1.00  0.00     0.097 C
HETATM   10  N4  UNL     1       6.377   2.619  19.945  1.00  0.00    -0.192 NA
ENDROOT
BRANCH   1  11
HETATM   11  C2  UNL     1       7.828   4.230  23.609  1.00  0.00     0.006 C
HETATM   12  C1  UNL     1       7.537   3.528  24.892  1.00  0.00     0.006 C
ENDBRANCH   1  11
BRANCH   5  13
HETATM   13  C8  UNL     1      12.356   6.222  20.679  1.00  0.00     0.241 C
HETATM   14  O1  UNL     1      12.384   5.752  19.519  1.00  0.00    -0.271 OA
HETATM   15  N1  UNL     1      13.551   6.673  21.264  1.00  0.00    -0.346 N
ATOM     16  H1  UNL     1      13.510   7.052  22.210  1.00  0.00     0.163 HD
BRANCH  15  17
HETATM   17  C9  UNL     1      14.839   6.630  20.598  1.00  0.00     0.177 C
BRANCH  17  18
HETATM   18  C10 UNL     1      15.636   7.871  20.935  1.00  0.00     0.038 C
BRANCH  18  19
HETATM   19  C11 UNL     1      16.657   8.225  19.900  1.00  0.00    -0.020 C
HETATM   20  C12 UNL     1      16.893   9.702  19.788  1.00  0.00     0.009 C
HETATM   21  C13 UNL     1      16.112   7.754  18.559  1.00  0.00     0.009 C
ENDBRANCH  18  19
ENDBRANCH  17  18
BRANCH  17  22
HETATM   22  C14 UNL     1      15.643   5.468  21.078  1.00  0.00     0.241 C
HETATM   23  O2  UNL     1      15.992   5.414  22.297  1.00  0.00    -0.271 OA
HETATM   24  N2  UNL     1      16.039   4.413  20.232  1.00  0.00    -0.351 N
ATOM     25  H2  UNL     1      15.759   4.455  19.252  1.00  0.00     0.163 HD
BRANCH  24  26
HETATM   26  C15 UNL     1      16.813   3.283  20.663  1.00  0.00     0.022 C
HETATM   27  C16 UNL     1      16.013   2.438  21.635  1.00  0.00     0.037 C
HETATM   28  C17 UNL     1      17.169   2.391  19.466  1.00  0.00     0.037 C
HETATM   29  C18 UNL     1      18.121   3.717  21.274  1.00  0.00     0.037 C
ENDBRANCH  24  26
ENDBRANCH  17  22
ENDBRANCH  15  17
ENDBRANCH   5  13
TORSDOF 7
ENDMDL