MODEL 3
REMARK VINA RESULT: -9.090617248      2.368      3.052
REMARK  7 active torsions:
REMARK  status: ('A' for Active; 'I' for Inactive)
REMARK    1  A    between atoms: C2_2  and  C3_3
REMARK       I    between atoms: C3_3  and  N1_5
REMARK    2  A    between atoms: N1_5  and  C4_7
REMARK    3  A    between atoms: C4_7  and  C5_8
REMARK    4  A    between atoms: C12_15  and  N2_16
REMARK       I    between atoms: N2_16  and  C13_18
REMARK    5  A    between atoms: C13_18  and  C14_20
REMARK    6  A    between atoms: C14_20  and  N3_21
REMARK    7  A    between atoms: C14_20  and  C15_25
ROOT
HETATM    1  C5  UNL     1       9.416   5.566  22.139  1.00  0.00    -0.021 C
HETATM    2  C6  UNL     1       9.476   4.397  23.085  1.00  0.00     0.016 C
HETATM    3  C7  UNL     1      10.697   3.557  22.746  1.00  0.00    -0.011 C
HETATM    4  C8  UNL     1      10.519   3.002  21.370  1.00  0.00     0.009 C
HETATM    5  C9  UNL     1      10.450   4.150  20.402  1.00  0.00    -0.011 C
HETATM    6  C10 UNL     1       9.308   5.073  20.689  1.00  0.00     0.016 C
HETATM    7  C11 UNL     1      11.738   4.960  20.506  1.00  0.00     0.035 C
HETATM    8  C12 UNL     1      11.876   5.545  21.882  1.00  0.00     0.034 C
HETATM    9  C21 UNL     1      11.901   4.428  22.911  1.00  0.00     0.035 C
HETATM   10  C22 UNL     1      10.666   6.402  22.241  1.00  0.00     0.042 C
ENDROOT
BRANCH   8  11
HETATM   11  N2  UNL     1      13.037   6.374  21.941  1.00  0.00    -0.350 N
HETATM   12  C13 UNL     1      14.364   5.897  21.979  1.00  0.00     0.249 C
HETATM   13  O2  UNL     1      14.600   4.678  21.967  1.00  0.00    -0.271 OA
ATOM     14  H2  UNL     1      12.896   7.384  21.956  1.00  0.00     0.163 HD
BRANCH  12  15
HETATM   15  C14 UNL     1      15.538   6.829  22.037  1.00  0.00     0.278 C
BRANCH  15  16
HETATM   16  N3  UNL     1      15.440   7.728  23.148  1.00  0.00    -0.066 N
ATOM     17  H33 UNL     1      14.481   8.048  23.287  1.00  0.00     0.275 HD
ATOM     18  H32 UNL     1      15.573   7.242  24.035  1.00  0.00     0.275 HD
ATOM     19  H31 UNL     1      16.085   8.513  23.052  1.00  0.00     0.275 HD
ENDBRANCH  15  16
BRANCH  15  20
HETATM   20  C15 UNL     1      15.703   7.525  20.708  1.00  0.00     0.025 C
HETATM   21  C16 UNL     1      16.797   8.568  20.744  1.00  0.00     0.007 C
HETATM   22  C17 UNL     1      16.670   9.387  19.475  1.00  0.00     0.000 C
HETATM   23  C18 UNL     1      16.802   8.525  18.243  1.00  0.00     0.000 C
HETATM   24  C19 UNL     1      15.913   7.310  18.294  1.00  0.00     0.000 C
HETATM   25  C20 UNL     1      16.057   6.553  19.605  1.00  0.00     0.007 C
ENDBRANCH  15  20
ENDBRANCH  12  15
ENDBRANCH   8  11
BRANCH   1  26
HETATM   26  C4  UNL     1       8.171   6.383  22.389  1.00  0.00     0.132 C
BRANCH  26  27
HETATM   27  N1  UNL     1       7.493   5.986  23.597  1.00  0.00    -0.357 N
HETATM   28  C3  UNL     1       6.227   5.369  23.498  1.00  0.00     0.240 C
HETATM   29  O1  UNL     1       5.699   5.169  22.375  1.00  0.00    -0.269 OA
ATOM     30  H1  UNL     1       7.921   6.150  24.508  1.00  0.00     0.162 HD
BRANCH  28  31
HETATM   31  C2  UNL     1       5.509   4.954  24.689  1.00  0.00     0.064 C
HETATM   32  C1  UNL     1       5.945   5.122  25.924  1.00  0.00     0.017 C
ENDBRANCH  28  31
ENDBRANCH  26  27
ENDBRANCH   1  26
TORSDOF 7
ENDMDL