MODEL 3
REMARK VINA RESULT: -9.159425530      1.498      2.007
REMARK  6 active torsions:
REMARK  status: ('A' for Active; 'I' for Inactive)
REMARK    1  A    between atoms: C2_2  and  C4_4
REMARK    2  A    between atoms: C4_4  and  N1_5
REMARK    3  A    between atoms: C4_4  and  C12_18
REMARK       I    between atoms: N1_5  and  C5_7
REMARK    4  A    between atoms: C5_7  and  C6_9
REMARK    5  A    between atoms: C7_10  and  C8_11
REMARK       I    between atoms: C12_18  and  N4_20
REMARK    6  A    between atoms: N4_20  and  C13_22
ROOT
HETATM    1  C4  UNL     1      12.758   5.560  21.072  1.00  0.00     0.180 C
ENDROOT
BRANCH   1   2
HETATM    2  C2  UNL     1      12.837   4.240  21.821  1.00  0.00     0.009 C
HETATM    3  C1  UNL     1      13.936   4.277  22.847  1.00  0.00     0.012 C
HETATM    4  C3  UNL     1      13.098   3.090  20.871  1.00  0.00     0.012 C
ENDBRANCH   1   2
BRANCH   1   5
HETATM    5  N1  UNL     1      13.702   6.515  21.534  1.00  0.00    -0.344 N
HETATM    6  C5  UNL     1      14.704   7.030  20.623  1.00  0.00     0.241 C
HETATM    7  O1  UNL     1      14.643   6.571  19.482  1.00  0.00    -0.269 OA
ATOM      8  H1  UNL     1      13.674   6.838  22.502  1.00  0.00     0.163 HD
BRANCH   6   9
HETATM    9  C6  UNL     1      15.646   7.986  21.096  1.00  0.00     0.075 C
HETATM   10  C7  UNL     1      16.463   8.833  20.613  1.00  0.00     0.020 C
BRANCH  10  11
HETATM   11  C8  UNL     1      16.860   9.265  19.304  1.00  0.00    -0.002 A
HETATM   12  C9  UNL     1      16.740   8.670  18.079  1.00  0.00     0.120 A
HETATM   13  N2  UNL     1      17.276   9.490  17.130  1.00  0.00    -0.310 N
HETATM   14  N3  UNL     1      17.723  10.559  17.698  1.00  0.00    -0.307 N
ATOM     15  H2  UNL     1      17.317   9.290  16.130  1.00  0.00     0.186 HD
HETATM   16  C10 UNL     1      18.360  11.647  16.967  1.00  0.00     0.177 C
HETATM   17  C11 UNL     1      17.504  10.487  19.005  1.00  0.00     0.122 A
ENDBRANCH  10  11
ENDBRANCH   6   9
ENDBRANCH   1   5
BRANCH   1  18
HETATM   18  C12 UNL     1      11.386   6.092  21.247  1.00  0.00     0.241 C
HETATM   19  O2  UNL     1      11.207   7.333  21.164  1.00  0.00    -0.271 OA
HETATM   20  N4  UNL     1      10.308   5.203  21.505  1.00  0.00    -0.354 N
ATOM     21  H4  UNL     1      10.469   4.198  21.570  1.00  0.00     0.162 HD
BRANCH  20  22
HETATM   22  C13 UNL     1       8.988   5.739  21.671  1.00  0.00     0.089 C
HETATM   23  C14 UNL     1       8.232   5.514  20.384  1.00  0.00     0.030 C
HETATM   24  C15 UNL     1       6.975   4.758  20.681  1.00  0.00    -0.012 C
HETATM   25  C16 UNL     1       6.191   5.512  21.718  1.00  0.00     0.010 C
HETATM   26  C20 UNL     1       7.391   3.408  21.252  1.00  0.00     0.010 C
HETATM   27  C17 UNL     1       6.895   5.420  23.041  1.00  0.00    -0.007 C
HETATM   28  C18 UNL     1       6.723   3.969  23.520  1.00  0.00     0.010 C
HETATM   29  C21 UNL     1       8.356   5.087  22.857  1.00  0.00     0.017 C
HETATM   30  C19 UNL     1       7.935   3.657  22.625  1.00  0.00    -0.007 C
ENDBRANCH  20  22
ENDBRANCH   1  18
TORSDOF 6
ENDMDL