MODEL 1
REMARK VINA RESULT: -9.823146209      0.000      0.000
REMARK  6 active torsions:
REMARK  status: ('A' for Active; 'I' for Inactive)
REMARK    1  A    between atoms: C2_2  and  N1_3
REMARK    2  A    between atoms: N3_18  and  C13_19
REMARK    3  A    between atoms: C13_19  and  C14_20
REMARK    4  A    between atoms: C14_20  and  C15_21
REMARK    5  A    between atoms: C15_21  and  C17_23
REMARK    6  A    between atoms: C17_23  and  C18_24
ROOT
HETATM    1  N1  UNL     1      15.214   5.989  20.892  1.00  0.00    -0.318 N
HETATM    2  C3  UNL     1      15.122   6.253  22.301  1.00  0.00     0.224 C
HETATM    3  O1  UNL     1      14.392   5.464  22.971  1.00  0.00    -0.273 OA
HETATM    4  C4  UNL     1      15.815   7.361  22.962  1.00  0.00     0.108 C
HETATM    5  C5  UNL     1      16.038   8.550  22.095  1.00  0.00     0.050 C
HETATM    6  C6  UNL     1      16.124   8.248  20.656  1.00  0.00    -0.028 A
HETATM    7  C7  UNL     1      16.628   9.237  19.829  1.00  0.00     0.041 A
HETATM    8  C8  UNL     1      16.735   9.020  18.470  1.00  0.00     0.066 A
HETATM    9  C9  UNL     1      16.351   7.826  17.899  1.00  0.00     0.065 A
HETATM   10  C10 UNL     1      15.850   6.835  18.711  1.00  0.00     0.062 A
HETATM   11  C11 UNL     1      15.733   7.036  20.086  1.00  0.00     0.045 A
HETATM   12  N2  UNL     1      16.559   7.873  16.559  1.00  0.00    -0.306 N
ATOM     13  H2  UNL     1      16.365   7.132  15.885  1.00  0.00     0.171 HD
HETATM   14  C12 UNL     1      17.073   9.091  16.291  1.00  0.00     0.327 A
HETATM   15  O2  UNL     1      17.383   9.467  15.131  1.00  0.00    -0.246 OA
HETATM   16  N3  UNL     1      17.179   9.787  17.452  1.00  0.00    -0.297 N
ENDROOT
BRANCH  16  17
HETATM   17  C13 UNL     1      17.675  11.121  17.620  1.00  0.00     0.134 C
BRANCH  17  18
HETATM   18  C14 UNL     1      19.187  11.196  17.521  1.00  0.00     0.025 C
BRANCH  18  19
HETATM   19  C15 UNL     1      19.573  12.098  16.390  1.00  0.00    -0.011 C
HETATM   20  C16 UNL     1      18.575  13.214  16.168  1.00  0.00     0.010 C
BRANCH  19  21
HETATM   21  C17 UNL     1      19.763  11.371  15.079  1.00  0.00     0.062 C
BRANCH  21  22
HETATM   22  C18 UNL     1      19.902  12.264  13.927  1.00  0.00     0.025 A
HETATM   23  C19 UNL     1      19.025  12.321  12.840  1.00  0.00     0.114 A
HETATM   24  N4  UNL     1      19.442  13.243  11.965  1.00  0.00    -0.360 N
HETATM   25  C20 UNL     1      20.562  13.776  12.466  1.00  0.00     0.180 A
ATOM     26  H4  UNL     1      18.992  13.491  11.084  1.00  0.00     0.166 HD
HETATM   27  N5  UNL     1      20.839  13.185  13.649  1.00  0.00    -0.355 N
ATOM     28  H5  UNL     1      21.640  13.404  14.242  1.00  0.00     0.166 HD
ENDBRANCH  21  22
ENDBRANCH  19  21
ENDBRANCH  18  19
ENDBRANCH  17  18
ENDBRANCH  16  17
BRANCH   1  29
HETATM   29  C2  UNL     1      14.808   4.737  20.316  1.00  0.00     0.128 C
HETATM   30  C1  UNL     1      15.833   3.635  20.509  1.00  0.00     0.027 C
ENDBRANCH   1  29
TORSDOF 6
ENDMDL