MODEL 4
REMARK VINA RESULT: -8.994356022      1.413      2.296
REMARK  8 active torsions:
REMARK  status: ('A' for Active; 'I' for Inactive)
REMARK    1  A    between atoms: C1_2  and  N1_3
REMARK    2  A    between atoms: C1_2  and  C11_21
REMARK    3  A    between atoms: N1_3  and  C2_5
REMARK    4  A    between atoms: C2_5  and  C3_6
REMARK    5  A    between atoms: C3_6  and  C4_7
REMARK    6  A    between atoms: C4_7  and  C5_8
REMARK    7  A    between atoms: C5_8  and  N2_9
REMARK    8  A    between atoms: N2_9  and  C6_11
ROOT
HETATM    1  C2  UNL     1      16.454   9.507  20.183  1.00  0.00     0.120 C
ENDROOT
BRANCH   1   2
HETATM    2  N1  UNL     1      16.799   8.097  20.415  1.00  0.00    -0.384 N
ATOM      3  H1  UNL     1      17.560   7.855  21.049  1.00  0.00     0.160 HD
BRANCH   2   4
HETATM    4  C1  UNL     1      16.077   7.081  19.761  1.00  0.00     0.082 C
HETATM    5  S1  UNL     1      15.788   7.152  18.166  1.00  0.00    -0.065 SA
BRANCH   4   6
HETATM    6  C11 UNL     1      15.573   5.878  20.505  1.00  0.00     0.014 C
HETATM    7  C12 UNL     1      15.594   6.261  21.972  1.00  0.00     0.021 C
HETATM    8  C13 UNL     1      15.146   5.062  22.785  1.00  0.00    -0.013 C
HETATM    9  C14 UNL     1      13.736   4.743  22.383  1.00  0.00     0.009 C
HETATM   10  C18 UNL     1      16.106   3.941  22.496  1.00  0.00     0.009 C
HETATM   11  C15 UNL     1      13.728   4.353  20.922  1.00  0.00    -0.013 C
HETATM   12  C16 UNL     1      14.619   3.175  20.678  1.00  0.00     0.009 C
HETATM   13  C20 UNL     1      14.159   5.549  20.119  1.00  0.00     0.021 C
HETATM   14  C17 UNL     1      16.037   3.526  21.048  1.00  0.00    -0.013 C
HETATM   15  C19 UNL     1      16.449   4.714  20.204  1.00  0.00     0.021 C
ENDBRANCH   4   6
ENDBRANCH   2   4
ENDBRANCH   1   2
BRANCH   1  16
HETATM   16  C3  UNL     1      17.596  10.237  19.563  1.00  0.00     0.021 C
BRANCH  16  17
HETATM   17  C4  UNL     1      17.486  10.432  18.094  1.00  0.00     0.022 C
BRANCH  17  18
HETATM   18  C5  UNL     1      18.323   9.554  17.257  1.00  0.00     0.138 C
BRANCH  18  19
HETATM   19  N2  UNL     1      18.134   9.605  15.837  1.00  0.00    -0.225 N
ATOM     20  H2  UNL     1      17.647   8.833  15.382  1.00  0.00     0.177 HD
BRANCH  19  21
HETATM   21  C6  UNL     1      18.555  10.590  15.105  1.00  0.00     0.694 A
HETATM   22  N3  UNL     1      19.715  11.227  15.330  1.00  0.00    -0.178 N
HETATM   23  C7  UNL     1      19.876  12.198  14.416  1.00  0.00     0.114 A
ATOM     24  H3  UNL     1      20.372  11.008  16.079  1.00  0.00     0.185 HD
HETATM   25  N4  UNL     1      18.810  12.176  13.606  1.00  0.00    -0.266 N
HETATM   26  C10 UNL     1      20.826  13.267  14.013  1.00  0.00     0.080 C
HETATM   27  N5  UNL     1      18.026  11.195  14.042  1.00  0.00    -0.129 N
HETATM   28  C8  UNL     1      18.949  13.227  12.595  1.00  0.00     0.151 C
ATOM     29  H5  UNL     1      17.135  10.937  13.618  1.00  0.00     0.206 HD
HETATM   30  C9  UNL     1      20.436  13.494  12.570  1.00  0.00     0.029 C
ENDBRANCH  19  21
ENDBRANCH  18  19
ENDBRANCH  17  18
ENDBRANCH  16  17
ENDBRANCH   1  16
TORSDOF 8
ENDMDL