MODEL 5
REMARK VINA RESULT: -7.878288906      3.855      7.774
REMARK  7 active torsions:
REMARK  status: ('A' for Active; 'I' for Inactive)
REMARK    1  A    between atoms: O1_2  and  C2_3
REMARK    2  A    between atoms: C2_3  and  C3_5
REMARK    3  A    between atoms: C3_5  and  N1_6
REMARK       I    between atoms: N1_6  and  C4_8
REMARK    4  A    between atoms: C4_8  and  C5_10
REMARK    5  A    between atoms: C8_15  and  C9_16
REMARK    6  A    between atoms: C9_16  and  S1_17
REMARK    7  A    between atoms: C16_25  and  C17_26
ROOT
HETATM    1  C5  UNL     1      13.696   6.303  21.300  1.00  0.00     0.116 A
HETATM    2  N2  UNL     1      12.586   7.090  21.484  1.00  0.00    -0.350 N
ATOM      3  H2  UNL     1      12.571   8.107  21.408  1.00  0.00     0.166 HD
HETATM    4  C6  UNL     1      11.526   6.327  21.777  1.00  0.00     0.045 A
HETATM    5  C7  UNL     1      10.203   6.632  22.045  1.00  0.00     0.039 A
HETATM    6  C8  UNL     1       9.248   5.683  22.328  1.00  0.00    -0.038 A
HETATM    7  C11 UNL     1       9.630   4.363  22.347  1.00  0.00    -0.048 A
HETATM    8  C12 UNL     1       8.633   3.332  22.646  1.00  0.00     0.049 C
HETATM    9  C13 UNL     1      10.955   4.017  22.081  1.00  0.00    -0.042 A
HETATM   10  C14 UNL     1      11.337   2.592  22.112  1.00  0.00     0.049 C
HETATM   11  C15 UNL     1      11.891   4.996  21.798  1.00  0.00     0.013 A
HETATM   12  C16 UNL     1      13.258   5.008  21.497  1.00  0.00     0.055 A
ENDROOT
BRANCH   1  13
HETATM   13  C4  UNL     1      14.993   6.860  20.979  1.00  0.00     0.269 C
HETATM   14  N1  UNL     1      15.402   7.335  19.723  1.00  0.00    -0.346 N
ATOM     15  H1  UNL     1      14.759   7.313  18.932  1.00  0.00     0.163 HD
HETATM   16  O3  UNL     1      15.831   6.912  21.961  1.00  0.00    -0.266 OA
BRANCH  14  17
HETATM   17  C3  UNL     1      16.747   7.857  19.558  1.00  0.00     0.234 C
BRANCH  17  18
HETATM   18  C2  UNL     1      16.777   8.951  18.558  1.00  0.00     0.276 C
HETATM   19  O2  UNL     1      16.399   8.844  17.368  1.00  0.00    -0.263 OA
BRANCH  18  20
HETATM   20  O1  UNL     1      17.259  10.220  18.926  1.00  0.00    -0.325 OA
HETATM   21  C1  UNL     1      18.270  10.851  18.149  1.00  0.00     0.213 C
ENDBRANCH  18  20
ENDBRANCH  17  18
ENDBRANCH  14  17
ENDBRANCH   1  13
BRANCH  12  22
HETATM   22  C17 UNL     1      14.058   3.820  21.419  1.00  0.00     0.159 C
HETATM   23  C18 UNL     1      14.886   3.276  22.555  1.00  0.00     0.097 C
HETATM   24  O5  UNL     1      14.088   3.163  20.329  1.00  0.00    -0.293 OA
ENDBRANCH  12  22
BRANCH   6  25
HETATM   25  C9  UNL     1       7.833   6.083  22.617  1.00  0.00     0.147 C
BRANCH  25  26
HETATM   26  S1  UNL     1       6.899   6.336  21.133  1.00  0.00     0.015 S
HETATM   27  C10 UNL     1       5.508   5.192  21.087  1.00  0.00     0.127 C
HETATM   28  O4  UNL     1       7.891   5.918  19.830  1.00  0.00    -0.258 OA
ENDBRANCH  25  26
ENDBRANCH   6  25
TORSDOF 7
ENDMDL