MODEL 4
REMARK VINA RESULT: -7.165830364      2.333      5.084
REMARK  6 active torsions:
REMARK  status: ('A' for Active; 'I' for Inactive)
REMARK    1  A    between atoms: C2_2  and  S1_5
REMARK    2  A    between atoms: S1_5  and  C5_6
REMARK    3  A    between atoms: C5_6  and  C6_7
REMARK    4  A    between atoms: C6_7  and  C7_8
REMARK    5  A    between atoms: C7_8  and  N1_9
REMARK    6  A    between atoms: C13_20  and  C14_21
ROOT
HETATM    1  N1  UNL     1      13.325   4.659  20.544  1.00  0.00    -0.322 N
HETATM    2  C8  UNL     1      13.801   5.731  19.699  1.00  0.00     0.291 C
HETATM    3  O1  UNL     1      12.966   6.079  18.833  1.00  0.00    -0.264 OA
HETATM    4  C9  UNL     1      15.033   6.509  19.617  1.00  0.00     0.217 C
HETATM    5  O2  UNL     1      15.259   6.907  18.444  1.00  0.00    -0.287 OA
HETATM    6  C10 UNL     1      16.091   6.960  20.527  1.00  0.00     0.098 C
HETATM    7  C11 UNL     1      16.076   6.272  21.864  1.00  0.00     0.111 C
HETATM    8  C12 UNL     1      16.251   4.816  21.607  1.00  0.00     0.219 C
HETATM    9  O3  UNL     1      17.453   4.445  21.726  1.00  0.00    -0.274 OA
HETATM   10  N2  UNL     1      15.356   3.771  21.260  1.00  0.00    -0.338 N
ATOM     11  H2  UNL     1      15.835   2.949  20.890  1.00  0.00     0.164 HD
HETATM   12  C13 UNL     1      13.918   3.604  21.311  1.00  0.00     0.212 C
ENDROOT
BRANCH   1  13
HETATM   13  C7  UNL     1      11.864   4.729  20.583  1.00  0.00     0.129 C
BRANCH  13  14
HETATM   14  C6  UNL     1      11.386   5.246  21.922  1.00  0.00     0.030 C
BRANCH  14  15
HETATM   15  C5  UNL     1      10.161   6.091  21.789  1.00  0.00     0.076 C
BRANCH  15  16
HETATM   16  S1  UNL     1       8.915   5.361  20.690  1.00  0.00    -0.160 SA
BRANCH  16  17
HETATM   17  C2  UNL     1       7.308   5.588  21.494  1.00  0.00    -0.003 C
HETATM   18  C1  UNL     1       6.604   6.744  20.862  1.00  0.00     0.026 C
HETATM   19  C3  UNL     1       6.449   4.347  21.226  1.00  0.00     0.026 C
HETATM   20  C4  UNL     1       7.411   5.717  22.989  1.00  0.00     0.026 C
ENDBRANCH  16  17
ENDBRANCH  15  16
ENDBRANCH  14  15
ENDBRANCH  13  14
ENDBRANCH   1  13
BRANCH  12  21
HETATM   21  C14 UNL     1      13.615   2.215  20.869  1.00  0.00     0.119 C
HETATM   22  C15 UNL     1      14.598   1.713  19.867  1.00  0.00     0.028 C
HETATM   23  C16 UNL     1      13.872   0.748  18.948  1.00  0.00     0.002 C
HETATM   24  C17 UNL     1      13.132  -0.260  19.825  1.00  0.00     0.002 C
HETATM   25  C18 UNL     1      14.000  -0.758  20.931  1.00  0.00     0.019 C
HETATM   26  C19 UNL     1      14.187   0.183  22.068  1.00  0.00     0.114 C
HETATM   27  N3  UNL     1      13.455   1.394  22.019  1.00  0.00    -0.413 N
ATOM     28  H3  UNL     1      12.835   1.668  22.782  1.00  0.00     0.153 HD
ENDBRANCH  12  21
TORSDOF 6
ENDMDL