MODEL 3
REMARK VINA RESULT: -7.449769046      2.838      5.864
REMARK  7 active torsions:
REMARK  status: ('A' for Active; 'I' for Inactive)
REMARK    1  A    between atoms: C2_2  and  C3_3
REMARK    2  A    between atoms: C3_3  and  C4_4
REMARK    3  A    between atoms: C4_4  and  C5_5
REMARK    4  A    between atoms: C6_8  and  C7_9
REMARK    5  A    between atoms: N4_24  and  C17_25
REMARK    6  A    between atoms: C17_25  and  C18_26
REMARK    7  A    between atoms: C18_26  and  C19_27
ROOT
HETATM    1  C5  UNL     1      16.164   2.691  20.095  1.00  0.00     0.104 A
HETATM    2  N1  UNL     1      16.701   3.856  19.915  1.00  0.00    -0.340 N
ATOM      3  H1  UNL     1      17.649   4.010  19.573  1.00  0.00     0.167 HD
HETATM    4  C6  UNL     1      15.813   4.863  20.247  1.00  0.00     0.072 A
HETATM    5  C14 UNL     1      14.661   4.248  20.664  1.00  0.00     0.087 A
HETATM    6  C15 UNL     1      13.651   4.860  21.228  1.00  0.00     0.117 C
HETATM    7  S1  UNL     1      12.042   4.223  21.827  1.00  0.00     0.008 SA
HETATM    8  N2  UNL     1      11.175   5.755  21.680  1.00  0.00    -0.058 NA
HETATM    9  N3  UNL     1      12.179   6.682  21.411  1.00  0.00    -0.258 N
ATOM     10  H3  UNL     1      11.996   7.606  21.017  1.00  0.00     0.186 HD
HETATM   11  C16 UNL     1      13.484   6.220  21.737  1.00  0.00     0.278 C
HETATM   12  O1  UNL     1      14.328   6.901  22.371  1.00  0.00    -0.266 OA
HETATM   13  N4  UNL     1      14.887   2.915  20.558  1.00  0.00    -0.330 N
ENDROOT
BRANCH   4  14
HETATM   14  C7  UNL     1      16.198   6.256  20.034  1.00  0.00    -0.007 A
HETATM   15  C8  UNL     1      16.797   7.061  20.984  1.00  0.00     0.014 A
HETATM   16  C9  UNL     1      17.116   8.380  20.743  1.00  0.00     0.007 A
HETATM   17  C10 UNL     1      16.847   8.964  19.525  1.00  0.00    -0.062 A
HETATM   18  C11 UNL     1      17.209  10.389  19.310  1.00  0.00     0.048 C
HETATM   19  C12 UNL     1      16.250   8.188  18.558  1.00  0.00     0.007 A
HETATM   20  C13 UNL     1      15.931   6.867  18.803  1.00  0.00     0.014 A
ENDBRANCH   4  14
BRANCH   1  21
HETATM   21  C4  UNL     1      16.746   1.505  19.876  1.00  0.00     0.022 C
BRANCH  21  22
HETATM   22  C3  UNL     1      18.209   1.326  20.067  1.00  0.00     0.030 C
BRANCH  22  23
HETATM   23  C2  UNL     1      18.927   1.395  18.737  1.00  0.00    -0.001 C
HETATM   24  C1  UNL     1      20.214   2.169  18.896  1.00  0.00     0.005 C
ENDBRANCH  22  23
ENDBRANCH  21  22
ENDBRANCH   1  21
BRANCH  13  25
HETATM   25  C17 UNL     1      14.027   1.823  20.855  1.00  0.00     0.131 C
BRANCH  25  26
HETATM   26  C18 UNL     1      14.239   1.125  22.146  1.00  0.00     0.020 C
BRANCH  26  27
HETATM   27  C19 UNL     1      14.378  -0.345  22.174  1.00  0.00    -0.003 C
HETATM   28  C20 UNL     1      15.652  -0.769  22.928  1.00  0.00     0.005 C
ENDBRANCH  26  27
ENDBRANCH  25  26
ENDBRANCH  13  25
TORSDOF 7
ENDMDL