MODEL 3
REMARK VINA RESULT: -4.732381743      1.574      1.714
REMARK  1 active torsions:
REMARK  status: ('A' for Active; 'I' for Inactive)
REMARK    1  A    between atoms: O1_1  and  N1_3
ROOT
HETATM    1  N1  UNL     1      -5.423   0.660  16.824  1.00  0.00    -0.132 N
HETATM    2  N2  UNL     1      -4.356   0.439  16.079  1.00  0.00    -0.213 N
ATOM      3  H2  UNL     1      -3.910  -0.472  15.969  1.00  0.00     0.211 HD
HETATM    4  N3  UNL     1      -3.940   1.544  15.495  1.00  0.00    -0.257 N
ATOM      5  H3  UNL     1      -3.136   1.623  14.872  1.00  0.00     0.191 HD
HETATM    6  C1  UNL     1      -4.759   2.553  15.859  1.00  0.00     0.247 A
HETATM    7  F1  UNL     1      -4.651   3.839  15.461  1.00  0.00    -0.181 F
HETATM    8  C2  UNL     1      -5.683   1.973  16.696  1.00  0.00     0.209 A
HETATM    9 CL1  UNL     1      -6.989   2.799  17.470  1.00  0.00    -0.055 Cl
ENDROOT
BRANCH   1  10
HETATM   10  O1  UNL     1      -6.144  -0.253  17.590  1.00  0.00    -0.266 OA
ATOM     11  H1  UNL     1      -5.880  -0.683  18.395  1.00  0.00     0.247 HD
ENDBRANCH   1  10
TORSDOF 1
ENDMDL