MODEL 2
REMARK VINA RESULT: -4.342333511      1.027      2.893
REMARK  0 active torsions:
REMARK  status: ('A' for Active; 'I' for Inactive)
ROOT
HETATM    1  O1  UNL     1      -3.805   0.735  16.493  1.00  0.00    -0.291 OA
HETATM    2  C1  UNL     1      -4.577   1.644  16.275  1.00  0.00     0.217 C
HETATM    3  C2  UNL     1      -5.785   2.140  16.956  1.00  0.00     0.355 C
HETATM    4 CL1  UNL     1      -6.927   0.943  17.527  1.00  0.00    -0.086 Cl
HETATM    5  N1  UNL     1      -6.211   2.713  15.688  1.00  0.00    -0.027 N
ATOM      6  H11 UNL     1      -6.777   3.561  15.655  1.00  0.00     0.281 HD
ATOM      7  H12 UNL     1      -6.913   2.251  15.109  1.00  0.00     0.281 HD
HETATM    8  C3  UNL     1      -4.795   2.729  15.298  1.00  0.00     0.355 C
HETATM    9 CL2  UNL     1      -4.506   2.329  13.614  1.00  0.00    -0.086 Cl
ENDROOT
TORSDOF 0
ENDMDL