MODEL 3
REMARK VINA RESULT: -4.283453512      2.034      2.730
REMARK  1 active torsions:
REMARK  status: ('A' for Active; 'I' for Inactive)
REMARK    1  A    between atoms: O1_1  and  C1_3
ROOT
HETATM    1  C1  UNL     1      -4.964   1.004  15.960  1.00  0.00     0.198 A
HETATM    2  C2  UNL     1      -5.477   1.790  17.135  1.00  0.00     0.173 A
HETATM    3 CL1  UNL     1      -7.228   1.641  17.400  1.00  0.00    -0.117 Cl
HETATM    4  C3  UNL     1      -4.971   2.487  15.914  1.00  0.00     0.225 A
HETATM    5  F1  UNL     1      -3.833   3.223  16.094  1.00  0.00    -0.221 F
HETATM    6 CL2  UNL     1      -6.127   3.203  14.765  1.00  0.00    -0.078 Cl
ENDROOT
BRANCH   1   7
HETATM    7  O1  UNL     1      -3.810   0.286  16.206  1.00  0.00    -0.389 OA
ATOM      8  H1  UNL     1      -3.831  -0.614  15.903  1.00  0.00     0.210 HD
ENDBRANCH   1   7
TORSDOF 1
ENDMDL