MODEL 3
REMARK VINA RESULT: -4.232778371      3.035      3.607
REMARK  2 active torsions:
REMARK  status: ('A' for Active; 'I' for Inactive)
REMARK    1  A    between atoms: N2_3  and  C2_5
REMARK    2  A    between atoms: C2_5  and  O1_6
ROOT
HETATM    1  N1  UNL     1      -7.060   0.445  17.253  1.00  0.00    -0.172 NA
HETATM    2  C1  UNL     1      -6.467   1.313  16.750  1.00  0.00     0.181 C
HETATM    3  N2  UNL     1      -5.777   2.362  16.141  1.00  0.00    -0.269 N
ATOM      4  H2  UNL     1      -6.208   3.286  16.100  1.00  0.00     0.177 HD
ENDROOT
BRANCH   3   5
HETATM    5  C2  UNL     1      -4.481   2.170  15.575  1.00  0.00     0.306 C
HETATM    6 CL1  UNL     1      -3.782   3.804  15.295  1.00  0.00    -0.046 Cl
HETATM    7 CL2  UNL     1      -4.520   1.301  14.033  1.00  0.00    -0.046 Cl
BRANCH   5   8
HETATM    8  O1  UNL     1      -3.639   1.537  16.486  1.00  0.00    -0.345 OA
ATOM      9  H1  UNL     1      -2.879   2.077  16.669  1.00  0.00     0.215 HD
ENDBRANCH   5   8
ENDBRANCH   3   5
TORSDOF 2
ENDMDL