MODEL 5
REMARK VINA RESULT: -4.410889113      4.359      4.643
REMARK  1 active torsions:
REMARK  status: ('A' for Active; 'I' for Inactive)
REMARK    1  A    between atoms: O1_1  and  N1_3
ROOT
HETATM    1  N1  UNL     1      -4.715   1.725  11.859  1.00  0.00    -0.115 N
HETATM    2  N2  UNL     1      -4.740   2.838  12.586  1.00  0.00    -0.245 N
ATOM      3  H2  UNL     1      -4.930   3.775  12.229  1.00  0.00     0.192 HD
HETATM    4  C1  UNL     1      -4.478   2.532  13.856  1.00  0.00     0.199 A
HETATM    5 CL1  UNL     1      -4.392   3.614  15.201  1.00  0.00    -0.043 Cl
HETATM    6  N3  UNL     1      -4.289   1.216  13.907  1.00  0.00    -0.290 N
ATOM      7  H3  UNL     1      -4.070   0.680  14.747  1.00  0.00     0.172 HD
HETATM    8  C2  UNL     1      -4.433   0.710  12.681  1.00  0.00     0.309 A
HETATM    9  F1  UNL     1      -4.319  -0.575  12.320  1.00  0.00    -0.161 F
ENDROOT
BRANCH   1  10
HETATM   10  O1  UNL     1      -4.931   1.605  10.521  1.00  0.00    -0.264 OA
ATOM     11  H1  UNL     1      -4.323   1.803   9.818  1.00  0.00     0.247 HD
ENDBRANCH   1  10
TORSDOF 1
ENDMDL