MODEL 2
REMARK VINA RESULT: -5.562699930      2.732      3.342
REMARK  1 active torsions:
REMARK  status: ('A' for Active; 'I' for Inactive)
REMARK    1  A    between atoms: O1_1  and  N1_3
ROOT
HETATM    1  N1  UNL     1      -5.112   0.472  16.053  1.00  0.00    -0.149 N
HETATM    2  N2  UNL     1      -5.683   0.570  17.240  1.00  0.00    -0.246 N
ATOM      3  H2  UNL     1      -5.622  -0.222  17.881  1.00  0.00     0.192 HD
HETATM    4  C1  UNL     1      -6.339   1.670  17.634  1.00  0.00     0.243 A
HETATM    5  F1  UNL     1      -6.912   1.719  18.872  1.00  0.00    -0.181 F
HETATM    6  C2  UNL     1      -6.446   2.761  16.802  1.00  0.00     0.176 A
HETATM    7  F2  UNL     1      -7.119   3.890  17.206  1.00  0.00    -0.201 F
HETATM    8  C3  UNL     1      -5.862   2.688  15.563  1.00  0.00     0.093 A
HETATM    9  C4  UNL     1      -5.203   1.532  15.219  1.00  0.00     0.153 A
HETATM   10 CL1  UNL     1      -4.468   1.472  13.625  1.00  0.00    -0.060 Cl
ENDROOT
BRANCH   1  11
HETATM   11  O1  UNL     1      -4.436  -0.663  15.649  1.00  0.00    -0.267 OA
ATOM     12  H1  UNL     1      -4.780  -1.251  14.988  1.00  0.00     0.247 HD
ENDBRANCH   1  11
TORSDOF 1
ENDMDL