MODEL 4
REMARK VINA RESULT: -4.488850747      2.682      3.006
REMARK  1 active torsions:
REMARK  status: ('A' for Active; 'I' for Inactive)
REMARK    1  A    between atoms: O1_1  and  N1_3
ROOT
HETATM    1  N1  UNL     1      -4.546   2.124  16.280  1.00  0.00    -0.151 N
HETATM    2  C1  UNL     1      -4.596   3.257  15.530  1.00  0.00     0.309 A
HETATM    3  F1  UNL     1      -3.529   3.795  14.905  1.00  0.00    -0.161 F
HETATM    4  N2  UNL     1      -5.848   3.743  15.512  1.00  0.00    -0.257 N
ATOM      5  H2  UNL     1      -6.159   4.583  15.024  1.00  0.00     0.191 HD
HETATM    6  N3  UNL     1      -6.610   2.938  16.242  1.00  0.00    -0.270 N
ATOM      7  H3  UNL     1      -7.610   3.041  16.419  1.00  0.00     0.189 HD
HETATM    8  C2  UNL     1      -5.812   1.960  16.704  1.00  0.00     0.224 A
HETATM    9 CL1  UNL     1      -6.358   0.652  17.720  1.00  0.00    -0.041 Cl
ENDROOT
BRANCH   1  10
HETATM   10  O1  UNL     1      -3.453   1.329  16.547  1.00  0.00    -0.277 OA
ATOM     11  H1  UNL     1      -2.706   1.526  17.100  1.00  0.00     0.245 HD
ENDBRANCH   1  10
TORSDOF 1
ENDMDL