MODEL 3
REMARK VINA RESULT: -4.321646768      1.908      2.060
REMARK  1 active torsions:
REMARK  status: ('A' for Active; 'I' for Inactive)
REMARK    1  A    between atoms: N1_3  and  O2_4
ROOT
HETATM    1  O1  UNL     1      -3.345   1.596  16.611  1.00  0.00    -0.265 OA
HETATM    2  C1  UNL     1      -4.476   1.756  16.095  1.00  0.00     0.309 A
HETATM    3  N1  UNL     1      -5.896   1.357  15.966  1.00  0.00    -0.174 N
HETATM    4  C2  UNL     1      -5.362   2.457  15.196  1.00  0.00     0.297 A
HETATM    5 CL1  UNL     1      -5.911   4.095  15.586  1.00  0.00    -0.065 Cl
HETATM    6 CL2  UNL     1      -5.056   2.203  13.455  1.00  0.00    -0.065 Cl
ENDROOT
BRANCH   3   7
HETATM    7  O2  UNL     1      -6.778   0.473  16.431  1.00  0.00    -0.281 OA
ATOM      8  H2  UNL     1      -7.526   0.404  17.013  1.00  0.00     0.245 HD
ENDBRANCH   3   7
TORSDOF 1
ENDMDL