MODEL 1
REMARK VINA RESULT: -3.933151921      0.000      0.000
REMARK  1 active torsions:
REMARK  status: ('A' for Active; 'I' for Inactive)
REMARK    1  A    between atoms: C2_5  and  C3_6
ROOT
HETATM    1  C1  UNL     1      -5.309   3.997  15.033  1.00  0.00     0.179 C
HETATM    2  N1  UNL     1      -4.769   2.868  15.779  1.00  0.00    -0.280 N
HETATM    3  N2  UNL     1      -3.883   1.933  16.230  1.00  0.00    -0.282 N
ATOM      4  H2  UNL     1      -2.937   1.555  16.191  1.00  0.00     0.188 HD
HETATM    5  C2  UNL     1      -5.060   1.860  16.738  1.00  0.00     0.146 A
ENDROOT
BRANCH   5   6
HETATM    6  C3  UNL     1      -6.041   1.205  17.662  1.00  0.00     0.248 C
HETATM    7 CL1  UNL     1      -7.661   1.126  16.938  1.00  0.00    -0.100 Cl
HETATM    8 CL2  UNL     1      -6.147   2.139  19.194  1.00  0.00    -0.100 Cl
ENDBRANCH   5   6
TORSDOF 1
ENDMDL