MODEL 4
REMARK VINA RESULT: -4.443310186      1.683      2.093
REMARK  1 active torsions:
REMARK  status: ('A' for Active; 'I' for Inactive)
REMARK    1  A    between atoms: O1_1  and  N1_3
ROOT
HETATM    1  N1  UNL     1      -4.718   1.696  16.114  1.00  0.00    -0.135 N
HETATM    2  N2  UNL     1      -5.311   2.185  15.150  1.00  0.00    -0.249 N
ATOM      3  H2  UNL     1      -5.553   2.201  14.160  1.00  0.00     0.188 HD
HETATM    4  C1  UNL     1      -5.404   2.730  16.523  1.00  0.00     0.336 A
HETATM    5  O2  UNL     1      -6.560   3.361  16.571  1.00  0.00    -0.288 OA
HETATM    6  C2  UNL     1      -6.617   2.294  17.378  1.00  0.00     0.297 A
HETATM    7 CL1  UNL     1      -6.301   2.432  19.131  1.00  0.00    -0.063 Cl
HETATM    8 CL2  UNL     1      -7.529   0.894  16.802  1.00  0.00    -0.063 Cl
ENDROOT
BRANCH   1   9
HETATM    9  O1  UNL     1      -3.848   0.639  16.421  1.00  0.00    -0.268 OA
ATOM     10  H1  UNL     1      -3.851  -0.308  16.502  1.00  0.00     0.246 HD
ENDBRANCH   1   9
TORSDOF 1
ENDMDL