MODEL 5
REMARK VINA RESULT: -4.304140490      2.687      4.257
REMARK  6 active torsions:
REMARK  status: ('A' for Active; 'I' for Inactive)
REMARK    1  A    between atoms: N1_2  and  C2_4
REMARK    2  A    between atoms: C3_7  and  N3_8
REMARK    3  A    between atoms: C5_13  and  N5_14
REMARK    4  A    between atoms: N5_14  and  N6_16
REMARK    5  A    between atoms: C6_18  and  C7_19
REMARK    6  A    between atoms: C7_19  and  N7_20
ROOT
HETATM    1  C2  UNL     1      50.088  -4.690  22.630  1.00  0.00     0.706 A
HETATM    2  N2  UNL     1      48.749  -4.543  22.759  1.00  0.00    -0.022 N
ATOM      3  H2  UNL     1      48.329  -3.632  22.944  1.00  0.00     0.203 HD
HETATM    4  C3  UNL     1      47.997  -5.645  22.635  1.00  0.00     0.706 A
HETATM    5  N4  UNL     1      48.564  -6.863  22.389  1.00  0.00    -0.020 N
ATOM      6  H4  UNL     1      47.969  -7.687  22.299  1.00  0.00     0.203 HD
HETATM    7  C5  UNL     1      49.897  -6.989  22.264  1.00  0.00     0.725 A
HETATM    8  N8  UNL     1      50.655  -5.883  22.388  1.00  0.00    -0.020 N
ATOM      9  H8  UNL     1      51.669  -5.952  22.297  1.00  0.00     0.203 HD
ENDROOT
BRANCH   7  10
HETATM   10  N5  UNL     1      50.476  -8.120  22.030  1.00  0.00    -0.132 N
ATOM     11  H5  UNL     1      51.481  -8.236  22.157  1.00  0.00     0.205 HD
BRANCH  10  12
HETATM   12  N6  UNL     1      49.671  -9.175  21.598  1.00  0.00    -0.300 N
HETATM   13  C6  UNL     1      49.902  -9.737  20.488  1.00  0.00     0.107 C
ATOM     14  H6  UNL     1      48.895  -9.494  22.178  1.00  0.00     0.186 HD
BRANCH  13  15
HETATM   15  C7  UNL     1      49.050 -10.873  20.002  1.00  0.00     0.275 C
BRANCH  15  16
HETATM   16  N7  UNL     1      47.756 -10.323  19.687  1.00  0.00    -0.075 N
ATOM     17  H73 UNL     1      47.003 -11.008  19.751  1.00  0.00     0.274 HD
ATOM     18  H72 UNL     1      47.408  -9.681  20.401  1.00  0.00     0.274 HD
ATOM     19  H71 UNL     1      47.832  -9.895  18.765  1.00  0.00     0.274 HD
ENDBRANCH  15  16
ENDBRANCH  13  15
ENDBRANCH  10  12
ENDBRANCH   7  10
BRANCH   4  20
HETATM   20  N3  UNL     1      46.721  -5.531  22.754  1.00  0.00    -0.229 N
HETATM   21  C4  UNL     1      46.140  -4.242  22.948  1.00  0.00     0.165 C
ATOM     22  H3  UNL     1      46.127  -6.359  22.709  1.00  0.00     0.177 HD
ENDBRANCH   4  20
BRANCH   1  23
HETATM   23  N1  UNL     1      50.809  -3.632  22.749  1.00  0.00    -0.229 N
HETATM   24  C1  UNL     1      50.141  -2.381  23.043  1.00  0.00     0.165 C
ATOM     25  H1  UNL     1      51.822  -3.673  22.641  1.00  0.00     0.177 HD
ENDBRANCH   1  23
TORSDOF 6
ENDMDL