MODEL 2
REMARK VINA RESULT: -5.047993043      1.997      6.447
REMARK  2 active torsions:
REMARK  status: ('A' for Active; 'I' for Inactive)
REMARK    1  A    between atoms: C2_6  and  C3_7
REMARK    2  A    between atoms: N3_8  and  C4_10
ROOT
HETATM    1  C4  UNL     1      46.006  -1.273  20.317  1.00  0.00     0.189 A
HETATM    2  N4  UNL     1      46.285  -0.076  20.859  1.00  0.00    -0.277 N
ATOM      3  H4  UNL     1      46.706  -0.048  21.788  1.00  0.00     0.189 HD
HETATM    4  N5  UNL     1      46.041   1.064  20.248  1.00  0.00    -0.250 N
ATOM      5  H5  UNL     1      46.264   1.959  20.685  1.00  0.00     0.192 HD
HETATM    6  C5  UNL     1      45.486   1.000  19.023  1.00  0.00     0.341 A
HETATM    7  O2  UNL     1      45.236   2.069  18.402  1.00  0.00    -0.245 OA
HETATM    8  N6  UNL     1      45.185  -0.180  18.432  1.00  0.00    -0.271 N
ATOM      9  H6  UNL     1      44.765  -0.189  17.503  1.00  0.00     0.174 HD
HETATM   10  C6  UNL     1      45.437  -1.349  19.065  1.00  0.00     0.294 A
HETATM   11  O3  UNL     1      45.166  -2.468  18.535  1.00  0.00    -0.264 OA
ENDROOT
BRANCH   1  12
HETATM   12  N3  UNL     1      46.292  -2.466  21.029  1.00  0.00    -0.347 N
HETATM   13  C3  UNL     1      46.517  -2.428  22.282  1.00  0.00     0.106 C
ATOM     14  H3  UNL     1      46.319  -3.357  20.535  1.00  0.00     0.166 HD
BRANCH  13  15
HETATM   15  C2  UNL     1      46.814  -3.673  23.014  1.00  0.00     0.239 C
HETATM   16  N2  UNL     1      45.905  -4.749  22.674  1.00  0.00    -0.106 NA
HETATM   17  N1  UNL     1      46.644  -5.893  23.045  1.00  0.00    -0.253 N
HETATM   18  C1  UNL     1      47.989  -5.601  22.681  1.00  0.00     0.333 C
ATOM     19  H1  UNL     1      46.290  -6.746  23.479  1.00  0.00     0.187 HD
HETATM   20  O1  UNL     1      48.900  -6.471  22.494  1.00  0.00    -0.246 OA
HETATM   21  N7  UNL     1      48.125  -4.169  22.568  1.00  0.00    -0.318 N
ATOM     22  H7  UNL     1      48.934  -3.632  22.255  1.00  0.00     0.166 HD
ENDBRANCH  13  15
ENDBRANCH   1  12
TORSDOF 2
ENDMDL