MODEL 2
REMARK VINA RESULT: -4.374244744      1.247      1.290
REMARK  3 active torsions:
REMARK  status: ('A' for Active; 'I' for Inactive)
REMARK    1  A    between atoms: C3_8  and  S1_9
REMARK    2  A    between atoms: S1_9  and  C4_12
REMARK    3  A    between atoms: N4_17  and  N5_18
ROOT
HETATM    1  N1  UNL     1      51.034  -7.048  22.478  1.00  0.00    -0.233 N
ATOM      2  H11 UNL     1      50.782  -8.036  22.456  1.00  0.00     0.174 HD
ATOM      3  H12 UNL     1      52.011  -6.757  22.504  1.00  0.00     0.174 HD
HETATM    4  C1  UNL     1      50.116  -6.140  22.474  1.00  0.00     0.692 A
HETATM    5  N2  UNL     1      50.467  -4.763  22.505  1.00  0.00    -0.198 N
ATOM      6  H2  UNL     1      51.441  -4.460  22.531  1.00  0.00     0.183 HD
HETATM    7  C2  UNL     1      49.397  -3.829  22.498  1.00  0.00     0.151 A
HETATM    8  C3  UNL     1      48.121  -4.218  22.464  1.00  0.00     0.187 A
HETATM    9  N4  UNL     1      47.734  -5.586  22.433  1.00  0.00    -0.176 N
HETATM   10  N6  UNL     1      48.739  -6.550  22.438  1.00  0.00    -0.111 N
ATOM     11  H6  UNL     1      48.499  -7.541  22.416  1.00  0.00     0.208 HD
ENDROOT
BRANCH   8  12
HETATM   12  S1  UNL     1      46.876  -3.000  22.458  1.00  0.00     0.226 S
HETATM   13  O1  UNL     1      46.211  -2.890  21.112  1.00  0.00    -0.219 OA
HETATM   14  O2  UNL     1      45.865  -3.377  23.503  1.00  0.00    -0.219 OA
BRANCH  12  15
HETATM   15  C4  UNL     1      47.530  -1.390  22.843  1.00  0.00     0.339 A
HETATM   16  C5  UNL     1      47.646  -0.884  24.178  1.00  0.00     0.283 A
HETATM   17  N3  UNL     1      46.579  -0.363  23.261  1.00  0.00    -0.052 N
ATOM     18  H32 UNL     1      46.284   0.552  22.919  1.00  0.00     0.278 HD
ATOM     19  H31 UNL     1      45.564  -0.267  23.291  1.00  0.00     0.278 HD
ENDBRANCH  12  15
ENDBRANCH   8  12
BRANCH   9  20
HETATM   20  N5  UNL     1      46.373  -5.908  22.398  1.00  0.00    -0.323 N
ATOM     21  H52 UNL     1      45.671  -5.407  22.943  1.00  0.00     0.179 HD
ATOM     22  H51 UNL     1      46.059  -6.677  21.806  1.00  0.00     0.179 HD
ENDBRANCH   9  20
TORSDOF 3
ENDMDL