MODEL 3
REMARK VINA RESULT: -4.590312285      1.441      1.776
REMARK  4 active torsions:
REMARK  status: ('A' for Active; 'I' for Inactive)
REMARK    1  A    between atoms: C3_8  and  C4_9
REMARK    2  A    between atoms: C4_9  and  N3_10
REMARK    3  A    between atoms: C4_9  and  N4_14
REMARK    4  A    between atoms: C5_18  and  N5_19
ROOT
HETATM    1  N1  UNL     1      46.279  -5.852  23.350  1.00  0.00    -0.234 N
ATOM      2  H11 UNL     1      45.289  -5.680  23.525  1.00  0.00     0.174 HD
ATOM      3  H12 UNL     1      46.774  -6.582  23.863  1.00  0.00     0.174 HD
HETATM    4  C1  UNL     1      46.856  -5.117  22.461  1.00  0.00     0.677 A
HETATM    5  N2  UNL     1      48.185  -5.347  22.226  1.00  0.00    -0.201 N
ATOM      6  H2  UNL     1      48.670  -6.079  22.746  1.00  0.00     0.183 HD
HETATM    7  C2  UNL     1      48.854  -4.619  21.318  1.00  0.00     0.121 A
HETATM    8  C3  UNL     1      48.148  -3.638  20.640  1.00  0.00     0.060 A
HETATM    9  C5  UNL     1      46.821  -3.391  20.858  1.00  0.00     0.138 A
HETATM   10  N7  UNL     1      46.209  -4.164  21.790  1.00  0.00    -0.176 N
ATOM     11  H7  UNL     1      45.219  -4.010  21.983  1.00  0.00     0.186 HD
ENDROOT
BRANCH   8  12
HETATM   12  C4  UNL     1      48.928  -2.839  19.654  1.00  0.00     0.416 C
BRANCH  12  13
HETATM   13  N3  UNL     1      50.086  -3.615  19.250  1.00  0.00    -0.046 N
ATOM     14  H33 UNL     1      50.805  -3.044  18.808  1.00  0.00     0.277 HD
ATOM     15  H32 UNL     1      50.636  -3.942  20.044  1.00  0.00     0.277 HD
ATOM     16  H31 UNL     1      49.768  -4.378  18.652  1.00  0.00     0.277 HD
ENDBRANCH  12  13
BRANCH  12  17
HETATM   17  N4  UNL     1      49.518  -1.742  20.457  1.00  0.00    -0.046 N
ATOM     18  H43 UNL     1      48.832  -1.103  20.858  1.00  0.00     0.277 HD
ATOM     19  H42 UNL     1      49.921  -2.044  21.344  1.00  0.00     0.277 HD
ATOM     20  H41 UNL     1      50.184  -1.298  19.825  1.00  0.00     0.277 HD
ENDBRANCH  12  17
ENDBRANCH   8  12
BRANCH   9  21
HETATM   21  N5  UNL     1      46.099  -2.388  20.156  1.00  0.00    -0.283 N
HETATM   22  C6  UNL     1      45.363  -2.627  18.952  1.00  0.00     0.155 C
HETATM   23  C7  UNL     1      44.695  -1.343  18.615  1.00  0.00     0.144 C
HETATM   24  N6  UNL     1      44.893  -0.492  19.772  1.00  0.00    -0.341 N
HETATM   25  C8  UNL     1      45.994  -1.029  20.499  1.00  0.00     0.324 C
ATOM     26  H6  UNL     1      44.347   0.333  20.019  1.00  0.00     0.164 HD
HETATM   27  O1  UNL     1      46.708  -0.341  21.297  1.00  0.00    -0.247 OA
ENDBRANCH   9  21
TORSDOF 4
ENDMDL