MODEL 3
REMARK VINA RESULT: -4.496756079      2.974      5.668
REMARK  5 active torsions:
REMARK  status: ('A' for Active; 'I' for Inactive)
REMARK    1  A    between atoms: C3_5  and  C4_6
REMARK    2  A    between atoms: C4_6  and  N2_7
REMARK    3  A    between atoms: C4_6  and  C5_11
REMARK    4  A    between atoms: C5_11  and  N3_13
REMARK    5  A    between atoms: N5_22  and  N6_24
ROOT
HETATM    1  C1  UNL     1      50.151  -1.059  24.109  1.00  0.00     0.064 C
HETATM    2  C2  UNL     1      48.860  -1.064  23.886  1.00  0.00     0.112 C
HETATM    3  N1  UNL     1      48.237  -2.202  23.304  1.00  0.00    -0.340 N
ATOM      4  H1  UNL     1      48.717  -3.079  23.507  1.00  0.00     0.167 HD
HETATM    5  C3  UNL     1      47.169  -2.350  22.559  1.00  0.00     0.113 C
HETATM    6  C7  UNL     1      46.332  -1.224  22.161  1.00  0.00     0.284 C
HETATM    7  O1  UNL     1      45.782  -1.334  21.020  1.00  0.00    -0.265 OA
HETATM    8  N4  UNL     1      46.055  -0.020  22.882  1.00  0.00    -0.153 N
ATOM      9  H4  UNL     1      45.190   0.467  22.649  1.00  0.00     0.187 HD
HETATM   10  C8  UNL     1      46.875   0.566  23.898  1.00  0.00     0.700 C
HETATM   11  N5  UNL     1      46.400   1.580  24.537  1.00  0.00    -0.138 N
ATOM     12  H5  UNL     1      46.959   2.022  25.268  1.00  0.00     0.205 HD
HETATM   13  N7  UNL     1      48.182   0.126  24.269  1.00  0.00    -0.176 N
ATOM     14  H7  UNL     1      48.699   0.748  24.891  1.00  0.00     0.186 HD
ENDROOT
BRANCH   5  15
HETATM   15  C4  UNL     1      46.834  -3.714  22.142  1.00  0.00     0.268 C
BRANCH  15  16
HETATM   16  N2  UNL     1      47.430  -3.920  20.809  1.00  0.00    -0.067 N
ATOM     17  H23 UNL     1      46.913  -3.455  20.063  1.00  0.00     0.275 HD
ATOM     18  H22 UNL     1      48.314  -3.425  20.686  1.00  0.00     0.275 HD
ATOM     19  H21 UNL     1      47.514  -4.928  20.670  1.00  0.00     0.275 HD
ENDBRANCH  15  16
BRANCH  15  20
HETATM   20  C5  UNL     1      47.292  -4.834  22.988  1.00  0.00     0.215 C
HETATM   21  C6  UNL     1      48.362  -5.663  22.248  1.00  0.00     0.042 C
BRANCH  20  22
HETATM   22  N3  UNL     1      46.220  -5.777  23.201  1.00  0.00    -0.073 N
ATOM     23  H33 UNL     1      46.385  -6.361  24.021  1.00  0.00     0.274 HD
ATOM     24  H32 UNL     1      45.366  -5.315  23.514  1.00  0.00     0.274 HD
ATOM     25  H31 UNL     1      46.065  -6.336  22.362  1.00  0.00     0.274 HD
ENDBRANCH  20  22
ENDBRANCH  15  20
ENDBRANCH   5  15
BRANCH  11  26
HETATM   26  N6  UNL     1      45.142   2.075  24.244  1.00  0.00    -0.331 N
ATOM     27  H62 UNL     1      44.426   1.427  23.918  1.00  0.00     0.177 HD
ATOM     28  H61 UNL     1      44.934   3.067  24.351  1.00  0.00     0.177 HD
ENDBRANCH  11  26
TORSDOF 5
ENDMDL