MODEL 5
REMARK VINA RESULT: -4.927797479      4.084      6.025
REMARK  4 active torsions:
REMARK  status: ('A' for Active; 'I' for Inactive)
REMARK    1  A    between atoms: N1_1  and  C1_5
REMARK    2  A    between atoms: C1_5  and  C2_6
REMARK    3  A    between atoms: C3_7  and  C4_8
REMARK    4  A    between atoms: C4_8  and  C5_9
ROOT
HETATM    1  C2  UNL     1      49.002  -6.671  19.141  1.00  0.00     0.058 A
HETATM    2  C3  UNL     1      48.891  -5.591  20.000  1.00  0.00     0.034 A
HETATM    3  N6  UNL     1      48.617  -4.387  19.434  1.00  0.00    -0.311 N
ATOM      4  H6  UNL     1      48.539  -3.582  20.057  1.00  0.00     0.170 HD
HETATM    5  C6  UNL     1      48.442  -4.176  18.140  1.00  0.00     0.327 A
HETATM    6  O1  UNL     1      48.195  -3.055  17.633  1.00  0.00    -0.247 OA
HETATM    7  N7  UNL     1      48.555  -5.245  17.292  1.00  0.00    -0.275 N
ATOM      8  H7  UNL     1      48.427  -5.133  16.286  1.00  0.00     0.173 HD
HETATM    9  C7  UNL     1      48.840  -6.453  17.826  1.00  0.00     0.259 A
HETATM   10  O2  UNL     1      48.952  -7.375  16.921  1.00  0.00    -0.267 OA
ENDROOT
BRANCH   2  11
HETATM   11  C4  UNL     1      49.087  -5.688  21.426  1.00  0.00     0.137 C
BRANCH  11  12
HETATM   12  C5  UNL     1      47.903  -5.301  22.279  1.00  0.00     0.118 A
HETATM   13  N2  UNL     1      47.649  -4.110  22.852  1.00  0.00    -0.272 N
HETATM   14  N3  UNL     1      46.467  -4.249  23.482  1.00  0.00    -0.227 N
ATOM     15  H2  UNL     1      48.232  -3.274  22.816  1.00  0.00     0.190 HD
HETATM   16  N4  UNL     1      46.018  -5.439  23.281  1.00  0.00    -0.227 N
ATOM     17  H3  UNL     1      46.002  -3.528  24.032  1.00  0.00     0.210 HD
HETATM   18  N5  UNL     1      46.875  -6.073  22.579  1.00  0.00    -0.272 N
ATOM     19  H4  UNL     1      45.131  -5.810  23.623  1.00  0.00     0.210 HD
ATOM     20  H5  UNL     1      46.778  -7.046  22.289  1.00  0.00     0.190 HD
ENDBRANCH  11  12
ENDBRANCH   2  11
BRANCH   1  21
HETATM   21  C1  UNL     1      49.006  -8.003  19.772  1.00  0.00     0.275 C
BRANCH  21  22
HETATM   22  N1  UNL     1      47.976  -8.927  19.434  1.00  0.00    -0.075 N
ATOM     23  H13 UNL     1      47.926  -9.006  18.419  1.00  0.00     0.274 HD
ATOM     24  H12 UNL     1      48.279  -9.866  19.692  1.00  0.00     0.274 HD
ATOM     25  H11 UNL     1      47.037  -8.772  19.800  1.00  0.00     0.274 HD
ENDBRANCH  21  22
ENDBRANCH   1  21
TORSDOF 4
ENDMDL