MODEL 2
REMARK VINA RESULT: -5.013057455      3.549      5.103
REMARK  4 active torsions:
REMARK  status: ('A' for Active; 'I' for Inactive)
REMARK    1  A    between atoms: N1_1  and  C1_4
REMARK    2  A    between atoms: N5_17  and  C6_18
REMARK    3  A    between atoms: C6_18  and  O3_19
REMARK    4  A    between atoms: O3_19  and  O4_20
ROOT
HETATM    1  C1  UNL     1      45.798  -1.256  19.371  1.00  0.00     0.133 A
HETATM    2  N2  UNL     1      45.729  -2.572  19.100  1.00  0.00    -0.283 N
ATOM      3  H2  UNL     1      45.471  -2.967  18.195  1.00  0.00     0.188 HD
HETATM    4  N3  UNL     1      46.040  -3.281  20.166  1.00  0.00    -0.283 N
ATOM      5  H3  UNL     1      46.057  -4.300  20.205  1.00  0.00     0.188 HD
HETATM    6  C2  UNL     1      46.332  -2.466  21.200  1.00  0.00     0.147 A
HETATM    7  C3  UNL     1      46.178  -1.168  20.694  1.00  0.00     0.122 A
HETATM    8  C4  UNL     1      46.419  -0.115  21.558  1.00  0.00     0.267 A
HETATM    9  O1  UNL     1      46.274   1.042  21.079  1.00  0.00    -0.267 OA
HETATM   10  N4  UNL     1      46.786  -0.333  22.830  1.00  0.00    -0.274 N
ATOM     11  H4  UNL     1      46.963   0.447  23.462  1.00  0.00     0.173 HD
HETATM   12  C5  UNL     1      46.917  -1.607  23.255  1.00  0.00     0.332 A
HETATM   13  O2  UNL     1      47.260  -1.777  24.442  1.00  0.00    -0.246 OA
HETATM   14  N5  UNL     1      46.700  -2.663  22.475  1.00  0.00    -0.258 N
ENDROOT
BRANCH  14  15
HETATM   15  C6  UNL     1      46.864  -3.986  23.014  1.00  0.00     0.347 C
BRANCH  15  16
HETATM   16  O3  UNL     1      45.670  -4.707  22.957  1.00  0.00    -0.223 OA
BRANCH  16  17
HETATM   17  O4  UNL     1      45.865  -5.764  22.208  1.00  0.00    -0.249 OA
ATOM     18  H4  UNL     1      45.090  -5.897  21.675  1.00  0.00     0.253 HD
ENDBRANCH  16  17
ENDBRANCH  15  16
ENDBRANCH  14  15
BRANCH   1  19
HETATM   19  N1  UNL     1      45.571  -0.242  18.603  1.00  0.00    -0.384 N
ATOM     20  H12 UNL     1      46.175   0.050  17.834  1.00  0.00     0.157 HD
ATOM     21  H11 UNL     1      44.797   0.422  18.613  1.00  0.00     0.157 HD
ENDBRANCH   1  19
TORSDOF 4
ENDMDL