MODEL 4
REMARK VINA RESULT: -5.220609294      2.385      5.457
REMARK  5 active torsions:
REMARK  status: ('A' for Active; 'I' for Inactive)
REMARK    1  A    between atoms: N1_1  and  C1_4
REMARK    2  A    between atoms: C4_7  and  C5_8
REMARK    3  A    between atoms: C5_8  and  N2_9
REMARK    4  A    between atoms: N2_9  and  N3_11
REMARK    5  A    between atoms: N3_11  and  C6_13
ROOT
HETATM    1  N2  UNL     1      50.656  -7.509  22.233  1.00  0.00    -0.295 N
ATOM      2  H2  UNL     1      50.673  -8.016  23.119  1.00  0.00     0.186 HD
ENDROOT
BRANCH   1   3
HETATM    3  C5  UNL     1      50.515  -6.228  22.256  1.00  0.00     0.138 C
BRANCH   3   4
HETATM    4  C4  UNL     1      49.198  -5.671  22.527  1.00  0.00     0.065 A
HETATM    5  C3  UNL     1      49.062  -4.318  22.753  1.00  0.00     0.036 A
HETATM    6  C2  UNL     1      47.794  -3.843  23.006  1.00  0.00     0.051 A
HETATM    7  C1  UNL     1      46.702  -4.698  23.030  1.00  0.00     0.113 A
HETATM    8  N8  UNL     1      46.895  -5.993  22.805  1.00  0.00    -0.285 N
HETATM    9  N7  UNL     1      48.108  -6.450  22.564  1.00  0.00    -0.298 N
ATOM     10  H8  UNL     1      46.104  -6.636  22.820  1.00  0.00     0.188 HD
ATOM     11  H7  UNL     1      48.222  -7.450  22.395  1.00  0.00     0.187 HD
BRANCH   7  12
HETATM   12  N1  UNL     1      45.529  -4.208  23.272  1.00  0.00    -0.384 N
ATOM     13  H12 UNL     1      45.346  -3.205  23.257  1.00  0.00     0.157 HD
ATOM     14  H11 UNL     1      44.762  -4.846  23.483  1.00  0.00     0.157 HD
ENDBRANCH   7  12
ENDBRANCH   3   4
ENDBRANCH   1   3
BRANCH   1  15
HETATM   15  N3  UNL     1      50.787  -8.232  21.043  1.00  0.00    -0.131 N
ATOM     16  H3  UNL     1      51.680  -8.658  20.800  1.00  0.00     0.205 HD
BRANCH  15  17
HETATM   17  C6  UNL     1      49.776  -8.357  20.254  1.00  0.00     0.715 A
HETATM   18  N4  UNL     1      48.784  -9.293  20.289  1.00  0.00    -0.127 N
HETATM   19  N5  UNL     1      47.940  -9.066  19.300  1.00  0.00    -0.237 N
ATOM     20  H4  UNL     1      48.708 -10.049  20.970  1.00  0.00     0.206 HD
HETATM   21  C7  UNL     1      48.363  -7.996  18.617  1.00  0.00     0.353 A
ATOM     22  H5  UNL     1      47.105  -9.615  19.092  1.00  0.00     0.192 HD
HETATM   23  O1  UNL     1      47.830  -7.471  17.613  1.00  0.00    -0.245 OA
HETATM   24  N6  UNL     1      49.488  -7.562  19.204  1.00  0.00    -0.137 N
ATOM     25  H6  UNL     1      50.039  -6.759  18.904  1.00  0.00     0.189 HD
ENDBRANCH  15  17
ENDBRANCH   1  15
TORSDOF 5
ENDMDL