MODEL 1
REMARK VINA RESULT: -4.582762176      0.000      0.000
REMARK  5 active torsions:
REMARK  status: ('A' for Active; 'I' for Inactive)
REMARK    1  A    between atoms: C2_3  and  N2_4
REMARK    2  A    between atoms: C4_6  and  S1_7
REMARK    3  A    between atoms: S1_7  and  N3_8
REMARK    4  A    between atoms: C5_13  and  N4_14
REMARK    5  A    between atoms: C6_19  and  N6_20
ROOT
HETATM    1  N1  UNL     1      46.159  -1.457  21.207  1.00  0.00    -0.196 NA
HETATM    2  C1  UNL     1      46.612  -1.946  22.154  1.00  0.00     0.079 C
HETATM    3  C2  UNL     1      47.204  -2.574  23.338  1.00  0.00     0.270 C
ENDROOT
BRANCH   3   4
HETATM    4  N2  UNL     1      47.781  -3.856  23.017  1.00  0.00    -0.179 N
HETATM    5  C3  UNL     1      49.106  -4.012  22.795  1.00  0.00     0.139 A
HETATM    6  C4  UNL     1      49.672  -5.223  22.489  1.00  0.00     0.139 A
HETATM    7  C5  UNL     1      48.875  -6.342  22.399  1.00  0.00     0.139 A
HETATM    8  N5  UNL     1      47.557  -6.170  22.623  1.00  0.00    -0.176 N
HETATM    9  C6  UNL     1      47.026  -4.969  22.922  1.00  0.00     0.680 A
ATOM     10  H5  UNL     1      46.939  -6.979  22.563  1.00  0.00     0.186 HD
BRANCH   6  11
HETATM   11  S1  UNL     1      51.381  -5.421  22.202  1.00  0.00     0.261 S
HETATM   12  O1  UNL     1      51.546  -5.744  20.729  1.00  0.00    -0.201 OA
HETATM   13  O2  UNL     1      51.855  -6.571  23.014  1.00  0.00    -0.201 OA
BRANCH  11  14
HETATM   14  N3  UNL     1      52.266  -4.010  22.602  1.00  0.00    -0.324 N
ATOM     15  H32 UNL     1      53.023  -4.002  23.285  1.00  0.00     0.169 HD
ATOM     16  H31 UNL     1      51.943  -3.197  22.078  1.00  0.00     0.169 HD
ENDBRANCH  11  14
ENDBRANCH   6  11
BRANCH   7  17
HETATM   17  N4  UNL     1      49.368  -7.503  22.113  1.00  0.00    -0.384 N
ATOM     18  H42 UNL     1      49.778  -7.700  21.200  1.00  0.00     0.157 HD
ATOM     19  H41 UNL     1      49.365  -8.266  22.790  1.00  0.00     0.157 HD
ENDBRANCH   7  17
BRANCH   9  20
HETATM   20  N6  UNL     1      45.751  -4.842  23.131  1.00  0.00    -0.234 N
ATOM     21  H62 UNL     1      45.269  -3.972  22.899  1.00  0.00     0.174 HD
ATOM     22  H61 UNL     1      45.262  -5.642  23.533  1.00  0.00     0.174 HD
ENDBRANCH   9  20
ENDBRANCH   3   4
TORSDOF 5
ENDMDL