MODEL 5
REMARK VINA RESULT: -4.763279866      1.348      2.642
REMARK  4 active torsions:
REMARK  status: ('A' for Active; 'I' for Inactive)
REMARK    1  A    between atoms: N1_1  and  C1_4
REMARK    2  A    between atoms: C3_9  and  O1_10
REMARK    3  A    between atoms: O1_10  and  S1_11
REMARK    4  A    between atoms: S1_11  and  N4_12
ROOT
HETATM    1  C1  UNL     1      46.397  -4.510  22.848  1.00  0.00     0.680 A
HETATM    2  N2  UNL     1      46.573  -3.347  23.494  1.00  0.00    -0.176 N
ATOM      3  H2  UNL     1      46.631  -3.342  24.513  1.00  0.00     0.185 HD
HETATM    4  C2  UNL     1      46.675  -2.187  22.821  1.00  0.00     0.172 A
HETATM    5  N3  UNL     1      46.860  -1.000  23.566  1.00  0.00    -0.079 NA
HETATM    6  C3  UNL     1      46.601  -2.142  21.428  1.00  0.00     0.200 A
HETATM    7  C4  UNL     1      46.419  -3.345  20.789  1.00  0.00     0.298 A
HETATM    8  O4  UNL     1      46.350  -3.336  19.535  1.00  0.00    -0.264 OA
HETATM    9  N5  UNL     1      46.322  -4.492  21.488  1.00  0.00    -0.154 N
ATOM     10  H5  UNL     1      46.189  -5.370  20.987  1.00  0.00     0.187 HD
ENDROOT
BRANCH   6  11
HETATM   11  O1  UNL     1      46.712  -0.927  20.824  1.00  0.00    -0.208 OA
BRANCH  11  12
HETATM   12  S1  UNL     1      45.479  -0.031  20.134  1.00  0.00     0.360 S
HETATM   13  O2  UNL     1      44.314  -0.021  21.114  1.00  0.00    -0.176 OA
HETATM   14  O3  UNL     1      45.854   1.418  19.935  1.00  0.00    -0.176 OA
BRANCH  12  15
HETATM   15  N4  UNL     1      44.883  -0.699  18.665  1.00  0.00    -0.305 N
ATOM     16  H42 UNL     1      44.497  -1.642  18.610  1.00  0.00     0.171 HD
ATOM     17  H41 UNL     1      44.955  -0.064  17.869  1.00  0.00     0.171 HD
ENDBRANCH  12  15
ENDBRANCH  11  12
ENDBRANCH   6  11
BRANCH   1  18
HETATM   18  N1  UNL     1      46.301  -5.625  23.506  1.00  0.00    -0.234 N
ATOM     19  H12 UNL     1      45.868  -5.653  24.429  1.00  0.00     0.174 HD
ATOM     20  H11 UNL     1      46.657  -6.496  23.110  1.00  0.00     0.174 HD
ENDBRANCH   1  18
TORSDOF 4
ENDMDL