MODEL 4
REMARK VINA RESULT: -5.860167646      2.230      3.370
REMARK  1 active torsions:
REMARK  status: ('A' for Active; 'I' for Inactive)
REMARK    1  A    between atoms: C12_17  and  O1_18
ROOT
HETATM    1  C1  UNL     1       2.503  20.806  51.369  1.00  0.00     0.011 C
HETATM    2  C2  UNL     1       3.311  19.716  50.753  1.00  0.00    -0.007 C
HETATM    3  C3  UNL     1       3.198  19.898  49.247  1.00  0.00     0.005 C
HETATM    4  C4  UNL     1       3.983  18.921  48.461  1.00  0.00     0.001 C
HETATM    5  C5  UNL     1       5.327  18.612  49.088  1.00  0.00     0.008 C
HETATM    6  C6  UNL     1       5.610  19.793  50.008  1.00  0.00     0.028 C
HETATM    7  C7  UNL     1       4.724  19.612  51.218  1.00  0.00     0.063 C
HETATM    8  C8  UNL     1       5.125  20.555  52.255  1.00  0.00     0.076 C
HETATM    9  N1  UNL     1       4.565  20.579  53.434  1.00  0.00    -0.389 N
ATOM     10  H11 UNL     1       4.846  21.239  54.159  1.00  0.00     0.157 HD
ATOM     11  H12 UNL     1       3.816  19.919  53.648  1.00  0.00     0.157 HD
HETATM   12  N2  UNL     1       6.167  21.475  51.956  1.00  0.00    -0.369 N
ATOM     13  H2  UNL     1       6.133  22.389  52.408  1.00  0.00     0.161 HD
HETATM   14  C9  UNL     1       7.274  21.211  51.058  1.00  0.00     0.050 C
HETATM   15  C10 UNL     1       8.578  21.139  51.853  1.00  0.00     0.041 C
HETATM   16  C11 UNL     1       7.425  22.345  50.071  1.00  0.00     0.041 C
HETATM   17  C12 UNL     1       7.066  19.885  50.366  1.00  0.00     0.150 C
ENDROOT
BRANCH  17  18
HETATM   18  O1  UNL     1       7.791  19.883  49.166  1.00  0.00    -0.393 OA
ATOM     19  H1  UNL     1       7.332  20.449  48.557  1.00  0.00     0.210 HD
ENDBRANCH  17  18
TORSDOF 1
ENDMDL