MODEL 1
REMARK VINA RESULT: -6.139064923      0.000      0.000
REMARK  1 active torsions:
REMARK  status: ('A' for Active; 'I' for Inactive)
REMARK    1  A    between atoms: C8_9  and  O1_10
ROOT
HETATM    1  C1  UNL     1       9.327  17.760  51.639  1.00  0.00     0.021 C
HETATM    2  C2  UNL     1       8.680  19.056  51.294  1.00  0.00    -0.005 C
HETATM    3  C3  UNL     1       9.591  20.059  50.669  1.00  0.00     0.021 C
HETATM    4  C4  UNL     1       9.246  21.378  51.272  1.00  0.00     0.011 C
HETATM    5  C5  UNL     1       8.743  22.397  50.309  1.00  0.00     0.100 C
HETATM    6  C6  UNL     1       9.533  22.438  49.106  1.00  0.00     0.064 C
HETATM    7  N1  UNL     1      10.163  22.489  48.141  1.00  0.00    -0.197 NA
HETATM    8  C7  UNL     1       7.278  22.108  50.065  1.00  0.00     0.058 C
HETATM    9  C8  UNL     1       6.857  21.217  51.227  1.00  0.00     0.068 C
HETATM   10  C9  UNL     1       6.381  19.924  50.677  1.00  0.00     0.091 C
HETATM   11  C10 UNL     1       7.471  18.925  50.465  1.00  0.00    -0.009 C
HETATM   12  N2  UNL     1       7.325  18.019  49.601  1.00  0.00    -0.405 N
ATOM     13  H21 UNL     1       6.488  17.928  49.026  1.00  0.00     0.155 HD
ATOM     14  H22 UNL     1       8.070  17.337  49.456  1.00  0.00     0.155 HD
HETATM   15  C11 UNL     1       8.022  21.131  52.148  1.00  0.00     0.027 C
HETATM   16  C12 UNL     1       8.232  19.708  52.609  1.00  0.00     0.023 C
ENDROOT
BRANCH   9  17
HETATM   17  O1  UNL     1       5.809  21.844  51.924  1.00  0.00    -0.389 OA
ATOM     18  H1  UNL     1       5.845  21.579  52.836  1.00  0.00     0.210 HD
ENDBRANCH   9  17
TORSDOF 1
ENDMDL