MODEL 5
REMARK VINA RESULT: -5.802718308      1.764      2.559
REMARK  2 active torsions:
REMARK  status: ('A' for Active; 'I' for Inactive)
REMARK    1  A    between atoms: C2_2  and  N1_4
REMARK    2  A    between atoms: N1_4  and  C4_6
ROOT
HETATM    1  C4  UNL     1       8.529  22.176  50.575  1.00  0.00     0.140 A
HETATM    2  N2  UNL     1       7.347  22.363  50.258  1.00  0.00    -0.347 N
ATOM      3  H2  UNL     1       6.892  23.159  49.812  1.00  0.00     0.163 HD
HETATM    4  C5  UNL     1       6.843  21.171  50.693  1.00  0.00     0.126 A
HETATM    5  C6  UNL     1       6.230  20.254  49.614  1.00  0.00     0.049 C
HETATM    6  C7  UNL     1       5.642  19.043  50.328  1.00  0.00     0.004 C
HETATM    7  C8  UNL     1       4.336  19.454  50.999  1.00  0.00     0.006 C
HETATM    8  C9  UNL     1       4.381  20.940  51.314  1.00  0.00     0.055 C
HETATM    9  C10 UNL     1       5.759  21.241  51.754  1.00  0.00     0.019 C
HETATM   10  N3  UNL     1       6.036  21.543  52.949  1.00  0.00    -0.403 N
ATOM     11  H31 UNL     1       5.308  21.591  53.662  1.00  0.00     0.155 HD
ATOM     12  H32 UNL     1       6.987  21.751  53.253  1.00  0.00     0.155 HD
HETATM   13  S1  UNL     1       8.391  20.579  51.263  1.00  0.00    -0.057 SA
ENDROOT
BRANCH   1  14
HETATM   14  N1  UNL     1       9.749  22.993  50.450  1.00  0.00    -0.367 N
ATOM     15  H1  UNL     1      10.039  23.577  51.234  1.00  0.00     0.162 HD
BRANCH  14  16
HETATM   16  C2  UNL     1      10.538  22.989  49.254  1.00  0.00     0.075 C
HETATM   17  C1  UNL     1      10.639  21.562  48.762  1.00  0.00     0.032 C
HETATM   18  C3  UNL     1       9.836  23.765  48.133  1.00  0.00     0.032 C
ENDBRANCH  14  16
ENDBRANCH   1  14
TORSDOF 2
ENDMDL