MODEL 1
REMARK VINA RESULT: -6.228786357      0.000      0.000
REMARK  0 active torsions:
REMARK  status: ('A' for Active; 'I' for Inactive)
ROOT
HETATM    1  C1  UNL     1       7.658  18.406  51.125  1.00  0.00     0.017 C
HETATM    2  C2  UNL     1       7.558  19.689  51.363  1.00  0.00    -0.053 C
HETATM    3  C3  UNL     1       8.838  20.495  51.292  1.00  0.00     0.196 C
HETATM    4  C4  UNL     1       9.178  20.794  49.906  1.00  0.00     0.076 C
HETATM    5  N1  UNL     1       9.448  21.046  48.804  1.00  0.00    -0.196 NA
HETATM    6  C5  UNL     1       8.586  21.711  52.092  1.00  0.00     0.134 C
HETATM    7  N2  UNL     1       9.244  22.778  51.823  1.00  0.00    -0.382 N
ATOM      8  H21 UNL     1       9.070  23.618  52.375  1.00  0.00     0.158 HD
ATOM      9  H22 UNL     1       9.936  22.815  51.075  1.00  0.00     0.158 HD
HETATM   10  O1  UNL     1       7.653  21.662  53.102  1.00  0.00    -0.332 OA
HETATM   11  C6  UNL     1       6.428  20.965  53.080  1.00  0.00     0.139 C
HETATM   12  C7  UNL     1       6.386  19.912  54.167  1.00  0.00     0.041 C
HETATM   13  C8  UNL     1       6.278  20.327  51.691  1.00  0.00     0.010 C
HETATM   14  C9  UNL     1       5.083  19.428  51.646  1.00  0.00     0.017 C
HETATM   15  C10 UNL     1       3.895  20.377  51.396  1.00  0.00     0.001 C
HETATM   16  C11 UNL     1       4.495  21.311  50.385  1.00  0.00     0.001 C
HETATM   17  C12 UNL     1       5.927  21.486  50.758  1.00  0.00     0.017 C
ENDROOT
TORSDOF 0
ENDMDL