MODEL 3
REMARK VINA RESULT: -5.381576671      2.522      4.769
REMARK  4 active torsions:
REMARK  status: ('A' for Active; 'I' for Inactive)
REMARK    1  A    between atoms: C2_2  and  O1_5
REMARK    2  A    between atoms: O1_5  and  C5_6
REMARK    3  A    between atoms: C5_6  and  N2_11
REMARK    4  A    between atoms: N1_7  and  O2_9
ROOT
HETATM    1  C5  UNL     1       7.667  21.709  50.330  1.00  0.00     0.245 C
HETATM    2  N1  UNL     1       6.599  22.422  50.448  1.00  0.00    -0.232 N
ATOM      3  H1  UNL     1       6.353  23.132  49.758  1.00  0.00     0.198 HD
ENDROOT
BRANCH   1   4
HETATM    4  O1  UNL     1       8.442  21.978  49.213  1.00  0.00    -0.310 OA
BRANCH   4   5
HETATM    5  C2  UNL     1       9.622  22.749  49.287  1.00  0.00     0.060 C
HETATM    6  C1  UNL     1       9.686  23.737  48.121  1.00  0.00     0.046 C
HETATM    7  C3  UNL     1       9.801  23.476  50.574  1.00  0.00     0.046 C
HETATM    8  C4  UNL     1      10.778  21.775  49.051  1.00  0.00     0.046 C
ENDBRANCH   4   5
ENDBRANCH   1   4
BRANCH   1   9
HETATM    9  N2  UNL     1       8.102  20.715  51.204  1.00  0.00    -0.319 N
HETATM   10  C6  UNL     1       8.472  19.540  50.935  1.00  0.00     0.049 C
HETATM   11  C7  UNL     1       8.595  18.779  49.713  1.00  0.00     0.065 C
HETATM   12  S1  UNL     1       9.000  18.414  52.257  1.00  0.00    -0.117 SA
HETATM   13  C8  UNL     1       8.777  17.361  49.913  1.00  0.00     0.017 C
HETATM   14  C9  UNL     1       8.593  16.900  51.299  1.00  0.00     0.081 C
ATOM     15  H2  UNL     1       8.125  20.972  52.191  1.00  0.00     0.169 HD
ENDBRANCH   1   9
BRANCH   2  16
HETATM   16  O2  UNL     1       5.806  22.180  51.545  1.00  0.00    -0.287 OA
ATOM     17  H2  UNL     1       5.446  21.306  51.632  1.00  0.00     0.244 HD
ENDBRANCH   2  16
TORSDOF 4
ENDMDL