MODEL 4
REMARK VINA RESULT: -6.285947738      2.279      3.259
REMARK  2 active torsions:
REMARK  status: ('A' for Active; 'I' for Inactive)
REMARK    1  A    between atoms: O1_1  and  N1_3
REMARK    2  A    between atoms: C4_8  and  O2_9
ROOT
HETATM    1  N1  UNL     1       8.964  22.917  51.474  1.00  0.00    -0.277 N
ATOM      2  H1  UNL     1       8.180  23.065  52.110  1.00  0.00     0.193 HD
HETATM    3  C1  UNL     1       9.092  21.795  50.866  1.00  0.00     0.011 C
HETATM    4  C2  UNL     1      10.245  21.617  49.951  1.00  0.00     0.057 C
HETATM    5  C3  UNL     1       9.843  20.521  48.990  1.00  0.00     0.038 C
HETATM    6  C4  UNL     1       9.592  19.243  49.752  1.00  0.00     0.127 C
HETATM    7  C5  UNL     1       8.516  19.359  50.779  1.00  0.00    -0.009 C
HETATM    8  C6  UNL     1       7.305  18.624  50.246  1.00  0.00     0.012 C
HETATM    9  C7  UNL     1       7.245  17.191  50.670  1.00  0.00     0.001 C
HETATM   10  C8  UNL     1       6.520  17.101  51.970  1.00  0.00     0.000 C
HETATM   11  C9  UNL     1       6.690  18.280  52.865  1.00  0.00     0.000 C
HETATM   12  C10 UNL     1       8.092  18.655  53.164  1.00  0.00     0.001 C
HETATM   13  C11 UNL     1       9.042  18.735  52.053  1.00  0.00     0.012 C
HETATM   14  C12 UNL     1       8.099  20.755  51.106  1.00  0.00     0.066 C
ENDROOT
BRANCH   6  15
HETATM   15  O2  UNL     1       9.284  18.280  48.783  1.00  0.00    -0.395 OA
ATOM     16  H2  UNL     1      10.119  17.969  48.455  1.00  0.00     0.210 HD
ENDBRANCH   6  15
BRANCH   1  17
HETATM   17  O1  UNL     1       9.867  23.904  51.273  1.00  0.00    -0.290 OA
ATOM     18  H1  UNL     1      10.208  24.395  52.011  1.00  0.00     0.244 HD
ENDBRANCH   1  17
TORSDOF 2
ENDMDL