MODEL 2
REMARK VINA RESULT: -5.913133771      1.312      2.879
REMARK  2 active torsions:
REMARK  status: ('A' for Active; 'I' for Inactive)
REMARK    1  A    between atoms: C2_2  and  N1_3
REMARK    2  A    between atoms: N1_3  and  C3_5
ROOT
HETATM    1  C1  UNL     1       7.539  22.109  50.000  1.00  0.00     0.044 C
HETATM    2  C2  UNL     1       8.497  21.032  50.519  1.00  0.00     0.056 C
HETATM    3  C6  UNL     1       8.301  19.832  49.692  1.00  0.00     0.004 C
HETATM    4  C7  UNL     1       9.163  18.671  49.603  1.00  0.00    -0.006 C
HETATM    5  C8  UNL     1       9.675  17.858  50.695  1.00  0.00    -0.026 C
HETATM    6  C9  UNL     1       8.898  17.291  51.802  1.00  0.00     0.038 C
HETATM    7  C10 UNL     1       8.557  18.288  52.964  1.00  0.00     0.083 C
HETATM    8  C11 UNL     1       8.398  19.522  52.312  1.00  0.00    -0.180 C
HETATM    9  C12 UNL     1       8.132  20.872  52.036  1.00  0.00     0.114 C
ENDROOT
BRANCH   2  10
HETATM   10  N1  UNL     1       9.850  21.500  50.405  1.00  0.00    -0.349 N
ATOM     11  H1  UNL     1      10.452  21.467  51.228  1.00  0.00     0.163 HD
BRANCH  10  12
HETATM   12  C3  UNL     1      10.391  22.017  49.164  1.00  0.00     0.172 C
HETATM   13  N2  UNL     1      10.184  23.153  48.643  1.00  0.00    -0.361 N
HETATM   14  C4  UNL     1      10.879  23.331  47.411  1.00  0.00     0.142 C
ATOM     15  H2  UNL     1       9.584  23.865  49.060  1.00  0.00     0.162 HD
HETATM   16  C5  UNL     1      11.231  21.908  47.016  1.00  0.00     0.142 C
HETATM   17  N3  UNL     1      11.266  21.284  48.328  1.00  0.00    -0.361 N
ATOM     18  H3  UNL     1      11.818  20.469  48.596  1.00  0.00     0.162 HD
ENDBRANCH  10  12
ENDBRANCH   2  10
TORSDOF 2
ENDMDL