MODEL 1
REMARK VINA RESULT: -6.629424007      0.000      0.000
REMARK  2 active torsions:
REMARK  status: ('A' for Active; 'I' for Inactive)
REMARK    1  A    between atoms: N1_8  and  O1_10
REMARK    2  A    between atoms: C9_13  and  O2_15
ROOT
HETATM    1  C1  UNL     1       9.398  18.881  51.819  1.00  0.00     0.010 C
HETATM    2  C2  UNL     1       9.574  18.897  50.314  1.00  0.00    -0.014 C
HETATM    3  C3  UNL     1       8.530  17.915  49.765  1.00  0.00     0.005 C
HETATM    4  C4  UNL     1       7.128  18.383  49.939  1.00  0.00     0.001 C
HETATM    5  C5  UNL     1       6.904  19.847  49.650  1.00  0.00     0.011 C
HETATM    6  C6  UNL     1       7.959  20.705  50.316  1.00  0.00     0.038 C
HETATM    7  C7  UNL     1       7.711  22.123  50.097  1.00  0.00     0.017 C
HETATM    8  N1  UNL     1       6.733  22.704  50.677  1.00  0.00    -0.277 N
ATOM      9  H1  UNL     1       6.554  23.697  50.525  1.00  0.00     0.193 HD
HETATM   10  C8  UNL     1       8.583  22.897  49.213  1.00  0.00     0.092 C
HETATM   11  C9  UNL     1      10.043  22.617  49.390  1.00  0.00     0.059 C
HETATM   12  C10 UNL     1      10.720  22.849  48.049  1.00  0.00     0.046 C
HETATM   13  C11 UNL     1      10.369  21.244  49.866  1.00  0.00     0.043 C
HETATM   14  C12 UNL     1       9.270  20.246  49.717  1.00  0.00     0.002 C
ENDROOT
BRANCH   8  15
HETATM   15  O1  UNL     1       5.928  21.971  51.504  1.00  0.00    -0.290 OA
ATOM     16  H1  UNL     1       5.960  21.024  51.451  1.00  0.00     0.244 HD
ENDBRANCH   8  15
BRANCH  11  17
HETATM   17  O2  UNL     1      10.580  23.554  50.271  1.00  0.00    -0.390 OA
ATOM     18  H2  UNL     1      11.387  23.208  50.634  1.00  0.00     0.210 HD
ENDBRANCH  11  17
TORSDOF 2
ENDMDL