MODEL 5
REMARK VINA RESULT: -5.322518869      1.606      5.295
REMARK  0 active torsions:
REMARK  status: ('A' for Active; 'I' for Inactive)
ROOT
HETATM    1  N1  UNL     1       4.874  21.541  50.049  1.00  0.00    -0.406 N
ATOM      2  H11 UNL     1       4.931  22.062  49.173  1.00  0.00     0.155 HD
ATOM      3  H12 UNL     1       4.059  20.967  50.263  1.00  0.00     0.155 HD
HETATM    4  C1  UNL     1       5.831  21.603  50.888  1.00  0.00    -0.020 C
HETATM    5  C2  UNL     1       5.749  20.850  52.151  1.00  0.00     0.052 C
HETATM    6  C3  UNL     1       5.209  19.445  51.990  1.00  0.00     0.011 C
HETATM    7  C4  UNL     1       6.351  18.502  52.354  1.00  0.00     0.044 C
HETATM    8  C5  UNL     1       6.155  17.132  51.857  1.00  0.00     0.055 C
HETATM    9  N2  UNL     1       6.574  16.760  50.716  1.00  0.00    -0.401 N
ATOM     10  H2  UNL     1       6.392  15.790  50.460  1.00  0.00     0.158 HD
HETATM   11  C6  UNL     1       7.267  17.544  49.761  1.00  0.00     0.146 C
HETATM   12  C7  UNL     1       8.778  17.560  49.966  1.00  0.00     0.251 C
HETATM   13  N3  UNL     1       9.357  18.548  49.091  1.00  0.00    -0.074 N
ATOM     14  H31 UNL     1       8.646  18.927  48.465  1.00  0.00     0.277 HD
ATOM     15  H32 UNL     1       9.971  18.102  48.409  1.00  0.00     0.277 HD
HETATM   16  C8  UNL     1      10.049  19.613  49.765  1.00  0.00     0.232 C
HETATM   17  C9  UNL     1       9.935  20.856  48.922  1.00  0.00     0.027 C
HETATM   18  C10 UNL     1       9.357  22.038  49.679  1.00  0.00     0.002 C
HETATM   19  C11 UNL     1       8.288  21.614  50.627  1.00  0.00     0.006 C
HETATM   20  C12 UNL     1       7.030  22.446  50.573  1.00  0.00     0.052 C
ENDROOT
TORSDOF 0
ENDMDL