MODEL 2
REMARK VINA RESULT: -6.094643570      2.739      3.840
REMARK  2 active torsions:
REMARK  status: ('A' for Active; 'I' for Inactive)
REMARK    1  A    between atoms: C12_13  and  O1_14
REMARK    2  A    between atoms: C12_13  and  O2_16
ROOT
HETATM    1  C1  UNL     1       9.621  20.349  51.022  1.00  0.00     0.060 C
HETATM    2  C2  UNL     1       8.376  21.135  50.833  1.00  0.00     0.026 C
HETATM    3  C3  UNL     1       8.499  22.348  50.080  1.00  0.00     0.095 C
HETATM    4  N1  UNL     1       8.624  23.341  49.459  1.00  0.00    -0.192 NA
HETATM    5  C4  UNL     1       7.245  20.712  51.341  1.00  0.00    -0.002 C
HETATM    6  C5  UNL     1       7.262  19.412  52.114  1.00  0.00     0.045 C
HETATM    7  C6  UNL     1       6.218  18.551  51.403  1.00  0.00    -0.014 C
HETATM    8  C7  UNL     1       6.280  17.120  51.843  1.00  0.00     0.010 C
HETATM    9  C8  UNL     1       4.890  19.198  51.621  1.00  0.00     0.019 C
HETATM   10  C9  UNL     1       4.848  20.446  50.736  1.00  0.00     0.013 C
HETATM   11  C10 UNL     1       5.022  20.071  49.300  1.00  0.00     0.021 C
HETATM   12  C11 UNL     1       3.521  21.161  50.887  1.00  0.00     0.021 C
HETATM   13  C12 UNL     1       5.935  21.363  51.247  1.00  0.00     0.193 C
ENDROOT
BRANCH  13  14
HETATM   14  O1  UNL     1       5.551  21.694  52.567  1.00  0.00    -0.361 OA
ATOM     15  H1  UNL     1       6.262  22.204  52.939  1.00  0.00     0.213 HD
ENDBRANCH  13  14
BRANCH  13  16
HETATM   16  O2  UNL     1       5.954  22.550  50.540  1.00  0.00    -0.361 OA
ATOM     17  H2  UNL     1       5.396  22.546  49.771  1.00  0.00     0.213 HD
ENDBRANCH  13  16
TORSDOF 2
ENDMDL