MODEL 2
REMARK VINA RESULT: -8.875114045      1.773      3.004
REMARK  15 active torsions:
REMARK  status: ('A' for Active; 'I' for Inactive)
REMARK    1  A    between atoms: C2_2  and  C3_3
REMARK    2  A    between atoms: C3_3  and  C4_4
REMARK    3  A    between atoms: C4_4  and  N1_5
REMARK    4  A    between atoms: C6_10  and  N3_11
REMARK    5  A    between atoms: N3_11  and  C7_13
REMARK    6  A    between atoms: C7_13  and  C8_14
REMARK    7  A    between atoms: C11_17  and  C12_18
REMARK    8  A    between atoms: C20_26  and  O1_27
REMARK    9  A    between atoms: C22_31  and  N5_32
REMARK   10  A    between atoms: N5_32  and  C23_34
REMARK   11  A    between atoms: C28_39  and  C29_40
REMARK   12  A    between atoms: C29_40  and  C30_41
REMARK   13  A    between atoms: C30_41  and  C31_42
REMARK   14  A    between atoms: C31_42  and  C32_43
REMARK   15  A    between atoms: C32_43  and  O2_44
ROOT
HETATM    1  N1  UNL     1     -11.374  16.378  27.896  1.00  0.00    -0.204 N
ATOM      2  H1  UNL     1     -11.322  16.766  28.838  1.00  0.00     0.183 HD
HETATM    3  C5  UNL     1     -10.482  16.742  27.082  1.00  0.00     0.710 A
HETATM    4  N2  UNL     1      -9.550  17.622  27.570  1.00  0.00    -0.021 N
ATOM      5  H2  UNL     1      -9.632  17.949  28.533  1.00  0.00     0.203 HD
HETATM    6  C6  UNL     1      -8.531  18.066  26.813  1.00  0.00     0.707 A
HETATM    7  N4  UNL     1      -8.478  17.608  25.556  1.00  0.00    -0.021 N
ATOM      8  H4  UNL     1      -7.717  17.930  24.958  1.00  0.00     0.203 HD
HETATM    9  C22 UNL     1      -9.391  16.730  25.030  1.00  0.00     0.707 A
HETATM   10  N6  UNL     1     -10.394  16.309  25.826  1.00  0.00    -0.021 N
ATOM     11  H6  UNL     1     -11.090  15.656  25.464  1.00  0.00     0.203 HD
ENDROOT
BRANCH   6  12
HETATM   12  N3  UNL     1      -7.659  18.898  27.261  1.00  0.00    -0.221 N
ATOM     13  H3  UNL     1      -7.911  19.886  27.242  1.00  0.00     0.178 HD
BRANCH  12  14
HETATM   14  C7  UNL     1      -6.381  18.572  27.780  1.00  0.00     0.179 C
BRANCH  14  15
HETATM   15  C8  UNL     1      -5.483  18.100  26.693  1.00  0.00    -0.007 A
HETATM   16  C9  UNL     1      -4.853  16.882  26.694  1.00  0.00     0.012 A
HETATM   17  C10 UNL     1      -3.963  16.554  25.682  1.00  0.00     0.013 A
HETATM   18  C11 UNL     1      -3.667  17.429  24.629  1.00  0.00    -0.023 A
HETATM   19  C19 UNL     1      -4.311  18.650  24.646  1.00  0.00     0.049 A
HETATM   20  C20 UNL     1      -5.205  18.991  25.655  1.00  0.00     0.076 A
BRANCH  18  21
HETATM   21  C12 UNL     1      -2.745  17.091  23.554  1.00  0.00    -0.026 A
HETATM   22  C13 UNL     1      -1.569  16.388  23.737  1.00  0.00     0.013 A
HETATM   23  C14 UNL     1      -0.731  16.056  22.677  1.00  0.00     0.007 A
HETATM   24  C15 UNL     1      -1.053  16.419  21.394  1.00  0.00    -0.062 A
HETATM   25  C16 UNL     1      -0.199  16.077  20.232  1.00  0.00     0.048 C
HETATM   26  C17 UNL     1      -2.227  17.125  21.200  1.00  0.00     0.007 A
HETATM   27  C18 UNL     1      -3.056  17.456  22.242  1.00  0.00     0.013 A
ENDBRANCH  18  21
BRANCH  20  28
HETATM   28  O1  UNL     1      -5.868  20.204  25.695  1.00  0.00    -0.355 OA
HETATM   29  C21 UNL     1      -5.859  21.040  24.561  1.00  0.00     0.210 C
ENDBRANCH  20  28
ENDBRANCH  14  15
ENDBRANCH  12  14
ENDBRANCH   6  12
BRANCH   9  30
HETATM   30  N5  UNL     1      -9.212  16.412  23.868  1.00  0.00    -0.220 N
ATOM     31  H5  UNL     1     -10.117  16.279  23.418  1.00  0.00     0.178 HD
BRANCH  30  32
HETATM   32  C23 UNL     1      -8.191  16.161  22.926  1.00  0.00     0.103 C
HETATM   33  C24 UNL     1      -7.423  17.379  22.593  1.00  0.00     0.026 C
HETATM   34  C25 UNL     1      -6.818  17.258  21.204  1.00  0.00     0.002 C
HETATM   35  C26 UNL     1      -7.966  17.248  20.233  1.00  0.00     0.001 C
HETATM   36  C27 UNL     1      -8.906  16.103  20.478  1.00  0.00     0.007 C
HETATM   37  C28 UNL     1      -8.731  15.371  21.731  1.00  0.00     0.009 C
BRANCH  37  38
HETATM   38  C29 UNL     1      -8.000  14.065  21.683  1.00  0.00     0.007 C
BRANCH  38  39
HETATM   39  C30 UNL     1      -8.135  13.187  22.874  1.00  0.00     0.002 C
BRANCH  39  40
HETATM   40  C31 UNL     1      -7.866  11.760  22.412  1.00  0.00     0.026 C
BRANCH  40  41
HETATM   41  C32 UNL     1      -7.048  10.980  23.410  1.00  0.00     0.164 C
BRANCH  41  42
HETATM   42  O2  UNL     1      -5.859  10.615  22.782  1.00  0.00    -0.401 OA
ATOM     43  H2  UNL     1      -5.505  11.392  22.366  1.00  0.00     0.209 HD
ENDBRANCH  41  42
ENDBRANCH  40  41
ENDBRANCH  39  40
ENDBRANCH  38  39
ENDBRANCH  37  38
ENDBRANCH  30  32
ENDBRANCH   9  30
BRANCH   1  44
HETATM   44  C4  UNL     1     -12.432  15.489  27.636  1.00  0.00     0.079 C
BRANCH  44  45
HETATM   45  C3  UNL     1     -12.861  14.732  28.881  1.00  0.00     0.045 C
BRANCH  45  46
HETATM   46  C2  UNL     1     -12.017  13.473  29.002  1.00  0.00     0.001 C
HETATM   47  C1  UNL     1     -12.885  12.217  28.810  1.00  0.00     0.005 C
ENDBRANCH  45  46
ENDBRANCH  44  45
ENDBRANCH   1  44
TORSDOF 15
ENDMDL