MODEL 3
REMARK VINA RESULT: -6.751292438      2.176      4.860
REMARK  13 active torsions:
REMARK  status: ('A' for Active; 'I' for Inactive)
REMARK    1  A    between atoms: C2_2  and  C4_4
REMARK    2  A    between atoms: C4_4  and  C5_5
REMARK    3  A    between atoms: C7_10  and  C8_11
REMARK    4  A    between atoms: C8_11  and  C9_13
REMARK    5  A    between atoms: C18_24  and  O2_25
REMARK    6  A    between atoms: C19_27  and  C20_28
REMARK    7  A    between atoms: C20_28  and  C21_29
REMARK    8  A    between atoms: C21_29  and  C22_30
REMARK    9  A    between atoms: C22_30  and  C23_31
REMARK   10  A    between atoms: C23_31  and  C24_32
REMARK   11  A    between atoms: C24_32  and  C25_33
REMARK   12  A    between atoms: C25_33  and  C26_34
REMARK   13  A    between atoms: C26_34  and  C27_35
ROOT
HETATM    1  C5  UNL     1      -8.995  16.972  24.130  1.00  0.00     0.177 C
HETATM    2  N1  UNL     1      -7.846  16.095  24.137  1.00  0.00    -0.347 N
ATOM      3  H1  UNL     1      -7.986  15.128  23.840  1.00  0.00     0.163 HD
HETATM    4  C6  UNL     1      -6.547  16.477  24.524  1.00  0.00     0.224 C
HETATM    5  O1  UNL     1      -5.757  15.579  24.897  1.00  0.00    -0.273 OA
HETATM    6  C7  UNL     1      -6.045  17.882  24.519  1.00  0.00     0.099 C
HETATM    7  C12 UNL     1      -5.836  18.405  25.900  1.00  0.00     0.022 C
HETATM    8  C13 UNL     1      -5.325  17.452  26.945  1.00  0.00     0.007 C
HETATM    9  C14 UNL     1      -4.705  18.291  28.041  1.00  0.00     0.001 C
HETATM   10  C15 UNL     1      -5.285  19.592  28.352  1.00  0.00     0.002 C
HETATM   11  C16 UNL     1      -6.026  20.333  27.272  1.00  0.00     0.025 C
HETATM   12  C17 UNL     1      -6.865  19.299  26.442  1.00  0.00     0.088 C
HETATM   13  N2  UNL     1      -7.944  18.939  27.255  1.00  0.00    -0.364 N
ATOM     14  H2  UNL     1      -8.494  19.779  27.433  1.00  0.00     0.162 HD
HETATM   15  C18 UNL     1      -8.553  17.894  27.908  1.00  0.00     0.159 C
HETATM   16  C19 UNL     1      -9.464  16.779  27.565  1.00  0.00     0.062 C
HETATM   17  N3  UNL     1     -10.275  16.919  26.392  1.00  0.00    -0.325 N
ATOM     18  H3  UNL     1     -11.166  17.390  26.549  1.00  0.00     0.169 HD
HETATM   19  C28 UNL     1     -10.053  16.518  25.065  1.00  0.00     0.244 C
HETATM   20  O5  UNL     1     -10.850  15.641  24.547  1.00  0.00    -0.271 OA
ENDROOT
BRANCH  16  21
HETATM   21  C20 UNL     1      -8.845  15.423  27.736  1.00  0.00     0.062 C
BRANCH  21  22
HETATM   22  C21 UNL     1      -9.455  14.476  28.687  1.00  0.00     0.006 C
BRANCH  22  23
HETATM   23  C22 UNL     1     -10.731  15.021  29.268  1.00  0.00     0.000 C
BRANCH  23  24
HETATM   24  C23 UNL     1     -10.700  14.914  30.802  1.00  0.00     0.000 C
BRANCH  24  25
HETATM   25  C24 UNL     1     -10.328  16.214  31.441  1.00  0.00     0.001 C
BRANCH  25  26
HETATM   26  C25 UNL     1      -9.196  16.072  32.428  1.00  0.00     0.010 C
BRANCH  26  27
HETATM   27  C26 UNL     1      -9.564  15.106  33.538  1.00  0.00     0.113 C
BRANCH  27  28
HETATM   28  C27 UNL     1      -9.890  15.838  34.790  1.00  0.00     0.172 C
HETATM   29  O3  UNL     1      -9.112  15.781  35.771  1.00  0.00    -0.648 OA
HETATM   30  O4  UNL     1     -11.042  16.596  34.915  1.00  0.00    -0.648 OA
ENDBRANCH  27  28
ENDBRANCH  26  27
ENDBRANCH  25  26
ENDBRANCH  24  25
ENDBRANCH  23  24
ENDBRANCH  22  23
ENDBRANCH  21  22
ENDBRANCH  16  21
BRANCH  15  31
HETATM   31  O2  UNL     1      -8.284  17.827  29.199  1.00  0.00    -0.345 OA
ATOM     32  H2  UNL     1      -7.396  17.557  29.402  1.00  0.00     0.219 HD
ENDBRANCH  15  31
BRANCH   1  33
HETATM   33  C4  UNL     1      -9.501  16.942  22.676  1.00  0.00     0.038 C
BRANCH  33  34
HETATM   34  C2  UNL     1      -8.505  16.322  21.740  1.00  0.00    -0.020 C
HETATM   35  C1  UNL     1      -8.709  14.819  21.622  1.00  0.00     0.009 C
HETATM   36  C3  UNL     1      -8.507  16.948  20.381  1.00  0.00     0.009 C
ENDBRANCH  33  34
ENDBRANCH   1  33
BRANCH   6  37
HETATM   37  C8  UNL     1      -4.907  17.904  23.559  1.00  0.00     0.075 C
HETATM   38  S1  UNL     1      -3.298  18.325  24.255  1.00  0.00    -0.091 SA
BRANCH  37  39
HETATM   39  C9  UNL     1      -5.044  18.475  22.220  1.00  0.00    -0.007 C
HETATM   40  C10 UNL     1      -6.285  19.209  21.846  1.00  0.00     0.011 C
HETATM   41  C11 UNL     1      -4.701  17.500  21.094  1.00  0.00     0.011 C
ENDBRANCH  37  39
ENDBRANCH   6  37
TORSDOF 13
ENDMDL