MODEL 1
REMARK VINA RESULT: -8.566813654      0.000      0.000
REMARK  14 active torsions:
REMARK  status: ('A' for Active; 'I' for Inactive)
REMARK    1  A    between atoms: C2_2  and  C3_3
REMARK    2  A    between atoms: C2_2  and  C11_16
REMARK    3  A    between atoms: C3_3  and  C4_4
REMARK    4  A    between atoms: C4_4  and  C5_5
REMARK    5  A    between atoms: C5_5  and  C6_6
REMARK    6  A    between atoms: C6_6  and  C7_7
REMARK    7  A    between atoms: C7_7  and  C8_8
REMARK       I    between atoms: C8_8  and  N1_10
REMARK    8  A    between atoms: N1_10  and  C9_12
REMARK    9  A    between atoms: C9_12  and  C10_13
REMARK   10  A    between atoms: C11_16  and  C12_17
REMARK   11  A    between atoms: C12_17  and  C13_18
REMARK   12  A    between atoms: C13_18  and  C15_20
REMARK   13  A    between atoms: C21_26  and  O4_27
REMARK   14  A    between atoms: C26_33  and  O5_34
ROOT
HETATM    1  C15 UNL     1      -9.495  16.240  26.064  1.00  0.00    -0.002 C
HETATM    2  C16 UNL     1      -9.832  17.742  26.285  1.00  0.00     0.006 C
HETATM    3  C17 UNL     1     -10.166  17.887  27.750  1.00  0.00     0.006 C
HETATM    4  C18 UNL     1     -10.336  16.463  28.152  1.00  0.00    -0.002 C
HETATM    5  C19 UNL     1     -10.615  16.202  29.560  1.00  0.00    -0.003 C
HETATM    6  C20 UNL     1      -9.796  16.904  30.575  1.00  0.00     0.038 C
HETATM    7  C21 UNL     1      -9.334  16.062  31.728  1.00  0.00     0.127 C
HETATM    8  C22 UNL     1     -10.444  15.161  32.180  1.00  0.00    -0.012 C
HETATM    9  C23 UNL     1      -9.928  14.277  33.323  1.00  0.00     0.018 C
HETATM   10  C24 UNL     1     -11.591  15.964  32.745  1.00  0.00     0.014 C
HETATM   11  C25 UNL     1     -12.772  15.081  32.524  1.00  0.00     0.033 C
HETATM   12  C26 UNL     1     -12.456  14.144  31.396  1.00  0.00     0.123 C
HETATM   13  C27 UNL     1     -10.974  14.267  31.119  1.00  0.00     0.029 C
HETATM   14  C28 UNL     1     -10.715  14.701  29.719  1.00  0.00    -0.003 C
HETATM   15  C29 UNL     1      -9.560  13.969  29.135  1.00  0.00     0.006 C
HETATM   16  C30 UNL     1      -9.167  14.355  27.745  1.00  0.00     0.010 C
HETATM   17  C31 UNL     1      -9.170  15.803  27.481  1.00  0.00    -0.036 C
HETATM   18  C32 UNL     1      -7.830  16.353  27.882  1.00  0.00     0.016 C
ENDROOT
BRANCH   1  19
HETATM   19  C13 UNL     1      -8.346  16.280  25.100  1.00  0.00    -0.014 C
HETATM   20  C14 UNL     1      -7.661  15.003  24.810  1.00  0.00     0.010 C
BRANCH  19  21
HETATM   21  C12 UNL     1      -8.870  16.908  23.834  1.00  0.00     0.005 C
BRANCH  21  22
HETATM   22  C11 UNL     1      -9.761  16.140  22.964  1.00  0.00     0.004 C
BRANCH  22  23
HETATM   23  C2  UNL     1      -9.565  16.021  21.514  1.00  0.00    -0.019 C
HETATM   24  C1  UNL     1      -8.431  14.963  21.329  1.00  0.00     0.010 C
BRANCH  23  25
HETATM   25  C3  UNL     1      -8.908  17.286  20.912  1.00  0.00     0.004 C
BRANCH  25  26
HETATM   26  C4  UNL     1      -7.638  16.862  20.226  1.00  0.00     0.000 C
BRANCH  26  27
HETATM   27  C5  UNL     1      -6.670  18.026  20.247  1.00  0.00     0.000 C
BRANCH  27  28
HETATM   28  C6  UNL     1      -6.505  18.610  21.614  1.00  0.00     0.009 C
BRANCH  28  29
HETATM   29  C7  UNL     1      -5.316  18.088  22.367  1.00  0.00     0.103 C
BRANCH  29  30
HETATM   30  C8  UNL     1      -5.310  18.732  23.718  1.00  0.00     0.217 C
HETATM   31  O1  UNL     1      -5.448  19.988  23.844  1.00  0.00    -0.274 OA
HETATM   32  N1  UNL     1      -5.149  17.949  24.885  1.00  0.00    -0.351 N
ATOM     33  H1  UNL     1      -5.036  16.942  24.771  1.00  0.00     0.163 HD
BRANCH  32  34
HETATM   34  C9  UNL     1      -5.134  18.480  26.226  1.00  0.00     0.235 C
BRANCH  34  35
HETATM   35  C10 UNL     1      -4.219  17.694  27.078  1.00  0.00     0.191 C
HETATM   36  O2  UNL     1      -3.536  18.147  28.025  1.00  0.00    -0.647 OA
HETATM   37  O3  UNL     1      -4.094  16.315  26.816  1.00  0.00    -0.647 OA
ENDBRANCH  34  35
ENDBRANCH  32  34
ENDBRANCH  29  30
ENDBRANCH  28  29
ENDBRANCH  27  28
ENDBRANCH  26  27
ENDBRANCH  25  26
ENDBRANCH  23  25
ENDBRANCH  22  23
ENDBRANCH  21  22
ENDBRANCH  19  21
ENDBRANCH   1  19
BRANCH   7  38
HETATM   38  O4  UNL     1      -9.053  16.919  32.820  1.00  0.00    -0.395 OA
ATOM     39  H4  UNL     1      -8.264  17.409  32.620  1.00  0.00     0.210 HD
ENDBRANCH   7  38
BRANCH  12  40
HETATM   40  O5  UNL     1     -12.817  12.859  31.801  1.00  0.00    -0.395 OA
ATOM     41  H5  UNL     1     -12.168  12.256  31.458  1.00  0.00     0.210 HD
ENDBRANCH  12  40
TORSDOF 14
ENDMDL