MODEL 2
REMARK VINA RESULT: -8.109676629      4.962      9.610
REMARK  15 active torsions:
REMARK  status: ('A' for Active; 'I' for Inactive)
REMARK    1  A    between atoms: C2_2  and  C3_3
REMARK    2  A    between atoms: C3_3  and  C4_4
REMARK    3  A    between atoms: C12_12  and  C13_13
REMARK    4  A    between atoms: C16_16  and  O1_17
REMARK    5  A    between atoms: C19_21  and  C20_22
REMARK    6  A    between atoms: C20_22  and  C21_24
REMARK    7  A    between atoms: C21_24  and  C22_25
REMARK    8  A    between atoms: C22_25  and  C23_26
REMARK    9  A    between atoms: C23_26  and  C24_27
REMARK   10  A    between atoms: C24_27  and  C25_28
REMARK   11  A    between atoms: C25_28  and  C26_29
REMARK   12  A    between atoms: C26_29  and  C27_30
REMARK   13  A    between atoms: C27_30  and  O3_31
REMARK   14  A    between atoms: C27_30  and  O4_33
REMARK   15  A    between atoms: O4_33  and  S1_34
ROOT
HETATM    1  C13 UNL     1      -9.525  16.282  26.345  1.00  0.00     0.006 C
HETATM    2  C14 UNL     1      -8.309  15.433  26.223  1.00  0.00     0.009 C
HETATM    3  C15 UNL     1      -7.435  15.822  27.389  1.00  0.00     0.039 C
HETATM    4  C16 UNL     1      -8.113  16.914  28.144  1.00  0.00     0.066 C
HETATM    5  C17 UNL     1      -8.174  16.520  29.585  1.00  0.00     0.039 C
HETATM    6  C18 UNL     1      -9.621  16.696  29.945  1.00  0.00     0.016 C
HETATM    7  C19 UNL     1     -10.416  16.448  28.695  1.00  0.00     0.067 C
HETATM    8  C28 UNL     1      -9.536  17.000  27.618  1.00  0.00     0.002 C
HETATM    9  C29 UNL     1      -9.864  18.486  27.549  1.00  0.00     0.019 C
ENDROOT
BRANCH   7  10
HETATM   10  C20 UNL     1     -10.998  15.126  28.549  1.00  0.00     0.132 C
HETATM   11  O2  UNL     1     -10.261  14.163  28.838  1.00  0.00    -0.298 OA
BRANCH  10  12
HETATM   12  C21 UNL     1     -12.337  14.742  28.111  1.00  0.00     0.079 C
BRANCH  12  13
HETATM   13  C22 UNL     1     -12.805  13.347  28.258  1.00  0.00     0.007 C
BRANCH  13  14
HETATM   14  C23 UNL     1     -13.150  12.836  29.590  1.00  0.00     0.000 C
BRANCH  14  15
HETATM   15  C24 UNL     1     -14.306  13.393  30.343  1.00  0.00     0.000 C
BRANCH  15  16
HETATM   16  C25 UNL     1     -13.938  13.899  31.701  1.00  0.00     0.005 C
BRANCH  16  17
HETATM   17  C26 UNL     1     -12.945  14.987  31.785  1.00  0.00     0.062 C
BRANCH  17  18
HETATM   18  C27 UNL     1     -11.744  14.676  32.595  1.00  0.00     0.278 C
BRANCH  18  19
HETATM   19  O3  UNL     1     -10.767  13.988  31.884  1.00  0.00    -0.370 OA
ATOM     20  H3  UNL     1      -9.989  13.805  32.397  1.00  0.00     0.212 HD
ENDBRANCH  18  19
BRANCH  18  21
HETATM   21  O4  UNL     1     -11.112  15.844  33.069  1.00  0.00    -0.224 OA
BRANCH  21  22
HETATM   22  S1  UNL     1     -10.642  15.592  34.651  1.00  0.00     0.254 S
HETATM   23  O5  UNL     1      -9.490  16.510  35.024  1.00  0.00    -0.572 OA
HETATM   24  O6  UNL     1     -11.739  15.873  35.638  1.00  0.00    -0.572 OA
HETATM   25  O7  UNL     1     -10.204  13.974  34.863  1.00  0.00    -0.572 OA
ENDBRANCH  21  22
ENDBRANCH  18  21
ENDBRANCH  17  18
ENDBRANCH  16  17
ENDBRANCH  15  16
ENDBRANCH  14  15
ENDBRANCH  13  14
ENDBRANCH  12  13
ENDBRANCH  10  12
ENDBRANCH   7  10
BRANCH   1  26
HETATM   26  C12 UNL     1      -9.966  16.927  25.083  1.00  0.00     0.024 C
HETATM   27  C7  UNL     1      -9.054  17.031  23.961  1.00  0.00    -0.047 A
HETATM   28  C6  UNL     1      -7.986  17.803  23.618  1.00  0.00     0.009 A
HETATM   29  C8  UNL     1      -9.397  16.069  22.988  1.00  0.00    -0.051 A
HETATM   30  C5  UNL     1      -7.270  17.691  22.439  1.00  0.00     0.008 A
HETATM   31  C4  UNL     1      -7.626  16.744  21.511  1.00  0.00    -0.054 A
HETATM   32  C9  UNL     1      -8.694  15.945  21.810  1.00  0.00     0.015 A
HETATM   33  C10 UNL     1     -10.571  15.284  23.423  1.00  0.00     0.040 C
HETATM   34  C11 UNL     1     -11.154  16.143  24.489  1.00  0.00     0.014 C
BRANCH  31  35
HETATM   35  C3  UNL     1      -6.828  16.658  20.262  1.00  0.00     0.064 C
BRANCH  35  36
HETATM   36  C2  UNL     1      -6.072  17.916  19.982  1.00  0.00    -0.032 C
HETATM   37  C1  UNL     1      -4.759  17.831  19.862  1.00  0.00     0.007 C
ENDBRANCH  35  36
ENDBRANCH  31  35
ENDBRANCH   1  26
BRANCH   4  38
HETATM   38  O1  UNL     1      -7.435  18.128  28.072  1.00  0.00    -0.389 OA
ATOM     39  H1  UNL     1      -7.997  18.878  28.227  1.00  0.00     0.210 HD
ENDBRANCH   4  38
TORSDOF 15
ENDMDL