MODEL 4
REMARK VINA RESULT: -8.674480458      1.686      4.571
REMARK  14 active torsions:
REMARK  status: ('A' for Active; 'I' for Inactive)
REMARK    1  A    between atoms: C2_2  and  N1_4
REMARK       I    between atoms: N1_4  and  C4_6
REMARK    2  A    between atoms: C4_6  and  C5_8
REMARK    3  A    between atoms: C5_8  and  C6_9
REMARK    4  A    between atoms: C6_9  and  C7_10
REMARK    5  A    between atoms: C7_10  and  C8_11
REMARK    6  A    between atoms: C8_11  and  C9_12
REMARK    7  A    between atoms: C9_12  and  N2_13
REMARK       I    between atoms: N2_13  and  C10_15
REMARK    8  A    between atoms: C10_15  and  C11_17
REMARK    9  A    between atoms: C11_17  and  C12_18
REMARK   10  A    between atoms: C12_18  and  C13_19
REMARK   11  A    between atoms: C13_19  and  O3_20
REMARK   12  A    between atoms: C13_19  and  C14_22
REMARK   13  A    between atoms: C23_31  and  C24_32
REMARK   14  A    between atoms: C24_32  and  O4_33
ROOT
HETATM    1  C14 UNL     1      -8.236  17.894  28.039  1.00  0.00     0.023 C
HETATM    2  C15 UNL     1      -9.523  17.801  27.191  1.00  0.00     0.008 C
HETATM    3  C16 UNL     1     -10.555  17.164  28.084  1.00  0.00     0.006 C
HETATM    4  C17 UNL     1      -9.873  17.113  29.393  1.00  0.00    -0.001 C
HETATM    5  C18 UNL     1     -10.464  16.352  30.468  1.00  0.00    -0.002 C
HETATM    6  C19 UNL     1     -11.036  14.998  30.183  1.00  0.00     0.033 C
HETATM    7  C20 UNL     1     -11.849  14.647  31.380  1.00  0.00    -0.023 C
HETATM    8  C21 UNL     1     -11.414  14.930  32.600  1.00  0.00    -0.079 C
HETATM    9  C22 UNL     1     -12.293  14.544  33.726  1.00  0.00     0.041 C
HETATM   10  C23 UNL     1     -11.885  14.968  35.076  1.00  0.00     0.013 C
HETATM   11  C25 UNL     1     -10.675  15.809  35.209  1.00  0.00     0.007 C
HETATM   12  C26 UNL     1     -10.342  16.598  33.968  1.00  0.00     0.010 C
HETATM   13  C27 UNL     1     -10.117  15.600  32.854  1.00  0.00     0.019 C
HETATM   14  C28 UNL     1      -9.557  16.326  31.678  1.00  0.00    -0.002 C
HETATM   15  C29 UNL     1      -8.209  15.800  31.238  1.00  0.00     0.006 C
HETATM   16  C30 UNL     1      -7.664  16.829  30.258  1.00  0.00     0.010 C
HETATM   17  C31 UNL     1      -8.433  16.761  28.980  1.00  0.00    -0.034 C
HETATM   18  C32 UNL     1      -8.383  15.426  28.289  1.00  0.00     0.016 C
ENDROOT
BRANCH   1  19
HETATM   19  C13 UNL     1      -7.124  17.815  27.045  1.00  0.00     0.123 C
BRANCH  19  20
HETATM   20  C12 UNL     1      -6.095  18.874  27.107  1.00  0.00     0.041 C
BRANCH  20  21
HETATM   21  C11 UNL     1      -4.787  18.315  27.585  1.00  0.00     0.105 C
BRANCH  21  22
HETATM   22  C10 UNL     1      -4.078  17.543  26.531  1.00  0.00     0.217 C
HETATM   23  N2  UNL     1      -3.531  18.151  25.387  1.00  0.00    -0.361 N
ATOM     24  H2  UNL     1      -3.633  19.159  25.272  1.00  0.00     0.162 HD
HETATM   25  O2  UNL     1      -3.962  16.303  26.668  1.00  0.00    -0.274 OA
BRANCH  23  26
HETATM   26  C9  UNL     1      -2.839  17.413  24.382  1.00  0.00     0.122 C
BRANCH  26  27
HETATM   27  C8  UNL     1      -3.371  17.723  23.010  1.00  0.00     0.020 C
BRANCH  27  28
HETATM   28  C7  UNL     1      -4.695  18.467  23.111  1.00  0.00     0.002 C
BRANCH  28  29
HETATM   29  C6  UNL     1      -5.537  18.108  21.925  1.00  0.00     0.009 C
BRANCH  29  30
HETATM   30  C5  UNL     1      -6.907  18.702  21.920  1.00  0.00     0.103 C
BRANCH  30  31
HETATM   31  C4  UNL     1      -7.992  17.706  21.817  1.00  0.00     0.217 C
HETATM   32  N1  UNL     1      -8.254  16.831  22.903  1.00  0.00    -0.357 N
ATOM     33  H1  UNL     1      -7.688  16.893  23.750  1.00  0.00     0.162 HD
HETATM   34  O1  UNL     1      -8.683  17.626  20.784  1.00  0.00    -0.274 OA
BRANCH  32  35
HETATM   35  C2  UNL     1      -9.329  15.841  22.818  1.00  0.00     0.076 C
HETATM   36  C1  UNL     1      -8.746  14.437  22.918  1.00  0.00     0.032 C
HETATM   37  C3  UNL     1     -10.319  16.125  23.897  1.00  0.00     0.032 C
ENDBRANCH  32  35
ENDBRANCH  30  31
ENDBRANCH  29  30
ENDBRANCH  28  29
ENDBRANCH  27  28
ENDBRANCH  26  27
ENDBRANCH  23  26
ENDBRANCH  21  22
ENDBRANCH  20  21
ENDBRANCH  19  20
BRANCH  19  38
HETATM   38  O3  UNL     1      -7.795  18.061  25.796  1.00  0.00    -0.395 OA
ATOM     39  H3  UNL     1      -8.647  17.656  25.912  1.00  0.00     0.210 HD
ENDBRANCH  19  38
ENDBRANCH   1  19
BRANCH  10  40
HETATM   40  C24 UNL     1     -11.766  13.796  36.056  1.00  0.00     0.168 C
BRANCH  40  41
HETATM   41  O4  UNL     1     -11.513  12.601  35.420  1.00  0.00    -0.400 OA
ATOM     42  H4  UNL     1     -11.986  11.875  35.809  1.00  0.00     0.209 HD
ENDBRANCH  40  41
ENDBRANCH  10  40
TORSDOF 14
ENDMDL