MODEL 3
REMARK VINA RESULT: -7.565443325      3.036      6.658
REMARK  15 active torsions:
REMARK  status: ('A' for Active; 'I' for Inactive)
REMARK    1  A    between atoms: C2_2  and  C3_3
REMARK    2  A    between atoms: C3_3  and  C4_4
REMARK    3  A    between atoms: C4_4  and  C5_5
REMARK    4  A    between atoms: C5_5  and  C6_6
REMARK    5  A    between atoms: C6_6  and  O1_7
REMARK    6  A    between atoms: C6_6  and  C7_9
REMARK    7  A    between atoms: C9_11  and  N1_12
REMARK    8  A    between atoms: N1_12  and  C10_14
REMARK    9  A    between atoms: C10_14  and  C11_15
REMARK   10  A    between atoms: C11_15  and  C12_16
REMARK   11  A    between atoms: C12_16  and  N2_17
REMARK   12  A    between atoms: N2_17  and  C13_18
REMARK   13  A    between atoms: N2_17  and  C15_20
REMARK   14  A    between atoms: C26_31  and  O2_32
REMARK   15  A    between atoms: C33_41  and  O4_42
ROOT
HETATM    1  C7  UNL     1      -7.625  16.657  24.160  1.00  0.00     0.007 C
HETATM    2  C8  UNL     1      -8.510  17.786  24.628  1.00  0.00     0.020 C
HETATM    3  C9  UNL     1      -7.090  15.928  25.392  1.00  0.00     0.091 C
HETATM    4  C17 UNL     1      -5.904  16.586  26.003  1.00  0.00     0.027 C
HETATM    5  C18 UNL     1      -4.840  16.809  24.915  1.00  0.00     0.016 C
HETATM    6  C19 UNL     1      -5.367  17.769  23.902  1.00  0.00    -0.013 C
HETATM    7  C20 UNL     1      -5.712  19.133  24.436  1.00  0.00     0.021 C
HETATM    8  C21 UNL     1      -4.369  18.017  22.827  1.00  0.00    -0.034 C
HETATM    9  C22 UNL     1      -4.576  17.831  21.531  1.00  0.00    -0.044 C
HETATM   10  C23 UNL     1      -5.882  17.333  20.970  1.00  0.00     0.038 C
HETATM   11  C24 UNL     1      -6.927  17.754  22.021  1.00  0.00     0.011 C
HETATM   12  C25 UNL     1      -6.530  17.053  23.268  1.00  0.00     0.011 C
HETATM   13  C26 UNL     1      -3.529  18.099  20.484  1.00  0.00     0.160 C
HETATM   14  C27 UNL     1      -2.153  17.750  20.937  1.00  0.00     0.019 C
HETATM   15  C28 UNL     1      -1.135  18.815  20.527  1.00  0.00     0.023 C
HETATM   16  C29 UNL     1      -1.623  16.426  20.464  1.00  0.00     0.099 C
HETATM   17  C30 UNL     1      -0.604  16.156  21.546  1.00  0.00     0.150 C
HETATM   18  O3  UNL     1       0.492  15.585  21.493  1.00  0.00    -0.293 OA
HETATM   19  C31 UNL     1      -1.185  16.738  22.762  1.00  0.00     0.056 C
HETATM   20  C32 UNL     1      -2.066  17.642  22.421  1.00  0.00    -0.032 C
HETATM   21  C33 UNL     1      -2.997  18.561  23.137  1.00  0.00     0.178 C
ENDROOT
BRANCH   3  22
HETATM   22  N1  UNL     1      -8.107  15.612  26.282  1.00  0.00    -0.397 N
ATOM     23  H1  UNL     1      -9.020  15.373  25.895  1.00  0.00     0.159 HD
BRANCH  22  24
HETATM   24  C10 UNL     1      -7.966  15.598  27.657  1.00  0.00     0.057 C
BRANCH  24  25
HETATM   25  C11 UNL     1      -8.454  16.731  28.506  1.00  0.00     0.074 C
BRANCH  25  26
HETATM   26  C12 UNL     1      -9.962  16.568  28.756  1.00  0.00     0.277 C
BRANCH  26  27
HETATM   27  N2  UNL     1     -10.235  16.370  30.146  1.00  0.00     0.088 N
BRANCH  27  28
HETATM   28  C13 UNL     1     -10.649  15.059  30.520  1.00  0.00     0.268 C
HETATM   29  C14 UNL     1     -11.097  14.273  29.299  1.00  0.00     0.037 C
ENDBRANCH  27  28
BRANCH  27  30
HETATM   30  C15 UNL     1      -9.220  16.967  30.948  1.00  0.00     0.268 C
HETATM   31  C16 UNL     1      -9.133  16.167  32.251  1.00  0.00     0.037 C
ENDBRANCH  27  30
ENDBRANCH  26  27
ENDBRANCH  25  26
ENDBRANCH  24  25
ENDBRANCH  22  24
ENDBRANCH   3  22
BRANCH   1  32
HETATM   32  C6  UNL     1      -8.552  15.711  23.431  1.00  0.00     0.128 C
BRANCH  32  33
HETATM   33  C5  UNL     1      -8.149  14.292  23.379  1.00  0.00     0.032 C
BRANCH  33  34
HETATM   34  C4  UNL     1      -8.015  13.882  21.910  1.00  0.00     0.002 C
BRANCH  34  35
HETATM   35  C3  UNL     1      -7.647  12.454  21.718  1.00  0.00    -0.000 C
BRANCH  35  36
HETATM   36  C2  UNL     1      -7.748  11.771  23.093  1.00  0.00    -0.005 C
HETATM   37  C1  UNL     1      -6.704  10.680  23.198  1.00  0.00     0.005 C
ENDBRANCH  35  36
ENDBRANCH  34  35
ENDBRANCH  33  34
ENDBRANCH  32  33
BRANCH  32  38
HETATM   38  O1  UNL     1      -9.804  15.799  24.037  1.00  0.00    -0.395 OA
ATOM     39  H1  UNL     1      -9.756  16.426  24.750  1.00  0.00     0.210 HD
ENDBRANCH  32  38
ENDBRANCH   1  32
BRANCH  21  40
HETATM   40  O4  UNL     1      -2.730  18.789  24.436  1.00  0.00    -0.387 OA
ATOM     41  H4  UNL     1      -2.221  19.567  24.628  1.00  0.00     0.210 HD
ENDBRANCH  21  40
BRANCH  13  42
HETATM   42  O2  UNL     1      -3.616  19.449  20.185  1.00  0.00    -0.390 OA
ATOM     43  H2  UNL     1      -3.022  19.892  20.779  1.00  0.00     0.210 HD
ENDBRANCH  13  42
TORSDOF 15
ENDMDL