MODEL 4
REMARK VINA RESULT: -8.856624285      3.670      8.514
REMARK  11 active torsions:
REMARK  status: ('A' for Active; 'I' for Inactive)
REMARK    1  A    between atoms: C2_2  and  C3_3
REMARK    2  A    between atoms: C3_3  and  C4_4
REMARK    3  A    between atoms: C4_4  and  C5_5
REMARK    4  A    between atoms: C5_5  and  N1_6
REMARK       I    between atoms: N1_6  and  C6_8
REMARK       I    between atoms: C6_8  and  N2_10
REMARK    5  A    between atoms: N2_10  and  C7_12
REMARK    6  A    between atoms: C14_21  and  N4_22
REMARK    7  A    between atoms: N4_22  and  C15_24
REMARK    8  A    between atoms: C15_24  and  C16_25
REMARK    9  A    between atoms: C16_25  and  C17_26
REMARK   10  A    between atoms: C17_26  and  N5_27
REMARK       I    between atoms: N5_27  and  C18_29
REMARK   11  A    between atoms: C18_29  and  C19_31
ROOT
HETATM    1  C7  UNL     1      -8.512  16.218  26.927  1.00  0.00     0.037 A
HETATM    2  C8  UNL     1      -7.703  17.262  27.302  1.00  0.00     0.032 A
HETATM    3  C9  UNL     1      -7.645  17.593  28.637  1.00  0.00     0.033 A
HETATM    4  C10 UNL     1      -8.373  16.905  29.580  1.00  0.00     0.043 A
HETATM    5  N3  UNL     1      -8.287  17.226  30.868  1.00  0.00    -0.358 N
ATOM      6  H3  UNL     1      -7.685  17.999  31.151  1.00  0.00     0.166 HD
HETATM    7  C11 UNL     1      -8.977  16.551  31.805  1.00  0.00     0.017 A
HETATM    8  C12 UNL     1      -9.801  15.509  31.513  1.00  0.00    -0.023 A
HETATM    9  C13 UNL     1      -9.935  15.121  30.152  1.00  0.00    -0.000 A
HETATM   10  C14 UNL     1     -10.816  13.999  29.975  1.00  0.00     0.096 C
HETATM   11  C24 UNL     1      -9.208  15.837  29.221  1.00  0.00     0.005 A
HETATM   12  C25 UNL     1      -9.254  15.523  27.911  1.00  0.00     0.044 A
HETATM   13  C26 UNL     1     -10.597  14.761  32.568  1.00  0.00     0.047 C
HETATM   14  C27 UNL     1      -9.843  15.010  33.807  1.00  0.00     0.003 A
HETATM   15  C28 UNL     1      -9.972  16.566  33.948  1.00  0.00     0.004 A
HETATM   16  C29 UNL     1      -8.772  17.034  33.241  1.00  0.00     0.063 C
HETATM   17  C30 UNL     1     -10.155  15.652  35.025  1.00  0.00    -0.039 A
HETATM   18  C31 UNL     1      -9.081  15.682  36.122  1.00  0.00     0.015 C
HETATM   19  C32 UNL     1     -11.538  15.501  35.623  1.00  0.00     0.015 C
ENDROOT
BRANCH  10  20
HETATM   20  N4  UNL     1     -11.174  13.544  28.712  1.00  0.00    -0.398 N
ATOM     21  H4  UNL     1     -10.498  13.304  27.986  1.00  0.00     0.158 HD
BRANCH  20  22
HETATM   22  C15 UNL     1     -12.636  13.444  28.529  1.00  0.00     0.120 C
BRANCH  22  23
HETATM   23  C16 UNL     1     -13.369  14.674  28.945  1.00  0.00     0.039 C
BRANCH  23  24
HETATM   24  C17 UNL     1     -14.310  14.331  30.077  1.00  0.00     0.124 C
BRANCH  24  25
HETATM   25  N5  UNL     1     -14.445  12.910  30.217  1.00  0.00    -0.361 N
HETATM   26  C18 UNL     1     -14.715  12.301  31.448  1.00  0.00     0.221 C
HETATM   27  O2  UNL     1     -14.850  12.972  32.501  1.00  0.00    -0.273 OA
ATOM     28  H5  UNL     1     -14.340  12.322  29.390  1.00  0.00     0.162 HD
BRANCH  26  29
HETATM   29  C19 UNL     1     -14.843  10.792  31.491  1.00  0.00     0.078 C
HETATM   30  C20 UNL     1     -15.621  10.384  30.262  1.00  0.00     0.014 C
HETATM   31  C21 UNL     1     -16.607   9.345  30.693  1.00  0.00     0.001 C
HETATM   32  C22 UNL     1     -16.696   9.390  32.195  1.00  0.00     0.001 C
HETATM   33  C23 UNL     1     -15.661  10.374  32.679  1.00  0.00     0.014 C
ENDBRANCH  26  29
ENDBRANCH  24  25
ENDBRANCH  23  24
ENDBRANCH  22  23
ENDBRANCH  20  22
ENDBRANCH  10  20
BRANCH   1  34
HETATM   34  N2  UNL     1      -8.655  15.790  25.598  1.00  0.00    -0.309 N
HETATM   35  C6  UNL     1      -9.581  16.205  24.623  1.00  0.00     0.320 C
HETATM   36  N1  UNL     1      -9.579  15.650  23.302  1.00  0.00    -0.343 N
HETATM   37  O1  UNL     1     -10.447  17.067  24.843  1.00  0.00    -0.247 OA
ATOM     38  H1  UNL     1      -8.887  14.934  23.084  1.00  0.00     0.164 HD
ATOM     39  H2  UNL     1      -7.993  15.074  25.296  1.00  0.00     0.170 HD
BRANCH  36  40
HETATM   40  C5  UNL     1     -10.486  16.037  22.273  1.00  0.00     0.124 C
BRANCH  40  41
HETATM   41  C4  UNL     1      -9.799  16.166  20.961  1.00  0.00     0.020 C
BRANCH  41  42
HETATM   42  C3  UNL     1      -8.701  17.219  20.982  1.00  0.00     0.001 C
BRANCH  42  43
HETATM   43  C2  UNL     1      -7.371  16.659  20.562  1.00  0.00    -0.004 C
HETATM   44  C1  UNL     1      -6.539  17.772  19.971  1.00  0.00     0.005 C
ENDBRANCH  42  43
ENDBRANCH  41  42
ENDBRANCH  40  41
ENDBRANCH  36  40
ENDBRANCH   1  34
TORSDOF 11
ENDMDL