MODEL 1
REMARK VINA RESULT: -6.519790275      0.000      0.000
REMARK  14 active torsions:
REMARK  status: ('A' for Active; 'I' for Inactive)
REMARK    1  A    between atoms: C2_2  and  C3_3
REMARK    2  A    between atoms: C3_3  and  C4_4
REMARK    3  A    between atoms: C5_5  and  C6_6
REMARK    4  A    between atoms: C5_5  and  C33_40
REMARK    5  A    between atoms: C7_7  and  C8_8
REMARK    6  A    between atoms: C9_9  and  C10_10
REMARK    7  A    between atoms: C19_19  and  N1_20
REMARK    8  A    between atoms: N1_20  and  C20_21
REMARK    9  A    between atoms: N1_20  and  C23_24
REMARK   10  A    between atoms: C20_21  and  C21_22
REMARK   11  A    between atoms: C23_24  and  C24_25
REMARK   12  A    between atoms: C27_28  and  O1_29
REMARK   13  A    between atoms: C28_31  and  O2_32
REMARK   14  A    between atoms: C30_35  and  O3_36
ROOT
HETATM    1  C10 UNL     1      -5.555  17.544  25.755  1.00  0.00     0.044 C
HETATM    2  C11 UNL     1      -6.346  18.444  24.882  1.00  0.00     0.050 C
HETATM    3  C12 UNL     1      -7.437  17.720  24.162  1.00  0.00    -0.051 A
HETATM    4  C13 UNL     1      -7.177  17.958  22.808  1.00  0.00     0.015 A
HETATM    5  C14 UNL     1      -7.981  17.438  21.850  1.00  0.00    -0.051 A
HETATM    6  C15 UNL     1      -9.057  16.675  22.231  1.00  0.00    -0.049 A
HETATM    7  C16 UNL     1      -9.304  16.448  23.562  1.00  0.00     0.015 A
HETATM    8  C17 UNL     1      -8.493  16.969  24.586  1.00  0.00    -0.049 A
HETATM    9  C18 UNL     1      -9.170  16.446  25.767  1.00  0.00     0.067 C
HETATM   10  C19 UNL     1      -8.589  16.776  27.094  1.00  0.00     0.119 C
HETATM   11  C27 UNL     1      -7.179  16.355  27.272  1.00  0.00     0.170 C
HETATM   12  C28 UNL     1      -6.184  17.495  27.157  1.00  0.00     0.157 C
HETATM   13  C29 UNL     1      -9.928  16.109  21.176  1.00  0.00     0.070 C
HETATM   14  C30 UNL     1      -9.127  15.520  20.038  1.00  0.00     0.122 C
HETATM   15  C31 UNL     1      -7.924  16.315  19.655  1.00  0.00     0.036 C
HETATM   16  C32 UNL     1      -7.788  17.631  20.390  1.00  0.00     0.041 C
ENDROOT
BRANCH   1  17
HETATM   17  C9  UNL     1      -4.118  17.756  25.818  1.00  0.00    -0.019 C
HETATM   18  C8  UNL     1      -3.338  18.030  24.807  1.00  0.00    -0.004 C
BRANCH  18  19
HETATM   19  C7  UNL     1      -1.867  18.226  25.006  1.00  0.00     0.001 C
HETATM   20  C6  UNL     1      -1.175  18.861  24.119  1.00  0.00     0.018 C
BRANCH  20  21
HETATM   21  C5  UNL     1       0.260  19.171  24.098  1.00  0.00     0.037 C
HETATM   22  C4  UNL     1       0.659  20.286  24.721  1.00  0.00    -0.008 C
BRANCH  22  23
HETATM   23  C3  UNL     1       1.980  20.862  24.875  1.00  0.00     0.028 C
BRANCH  23  24
HETATM   24  C2  UNL     1       1.856  22.169  25.659  1.00  0.00    -0.001 C
HETATM   25  C1  UNL     1       1.163  23.221  24.839  1.00  0.00     0.005 C
ENDBRANCH  23  24
ENDBRANCH  22  23
BRANCH  21  26
HETATM   26  C33 UNL     1       1.231  18.324  23.470  1.00  0.00     0.209 C
HETATM   27  O4  UNL     1       1.646  18.418  22.289  1.00  0.00    -0.644 OA
HETATM   28  O5  UNL     1       1.817  17.266  24.174  1.00  0.00    -0.644 OA
ENDBRANCH  21  26
ENDBRANCH  20  21
ENDBRANCH  18  19
ENDBRANCH   1  17
BRANCH  12  29
HETATM   29  O2  UNL     1      -6.730  18.740  27.356  1.00  0.00    -0.392 OA
ATOM     30  H2  UNL     1      -6.513  18.971  28.252  1.00  0.00     0.210 HD
ENDBRANCH  12  29
BRANCH  11  31
HETATM   31  O1  UNL     1      -6.878  15.651  28.410  1.00  0.00    -0.391 OA
ATOM     32  H1  UNL     1      -5.978  15.684  28.712  1.00  0.00     0.210 HD
ENDBRANCH  11  31
BRANCH  10  33
HETATM   33  N1  UNL     1      -9.519  16.383  28.110  1.00  0.00    -0.385 N
BRANCH  33  34
HETATM   34  C20 UNL     1      -9.957  17.383  29.000  1.00  0.00     0.058 C
BRANCH  34  35
HETATM   35  C21 UNL     1      -9.255  17.484  30.323  1.00  0.00     0.040 C
HETATM   36  C22 UNL     1      -9.187  16.211  31.089  1.00  0.00     0.010 C
ENDBRANCH  34  35
ENDBRANCH  33  34
BRANCH  33  37
HETATM   37  C23 UNL     1     -10.488  15.427  27.726  1.00  0.00     0.127 C
BRANCH  37  38
HETATM   38  C24 UNL     1     -11.878  15.684  28.277  1.00  0.00     0.003 A
HETATM   39  C25 UNL     1     -13.099  15.215  27.627  1.00  0.00     0.007 A
HETATM   40  C26 UNL     1     -12.617  14.434  28.795  1.00  0.00     0.007 A
ENDBRANCH  37  38
ENDBRANCH  33  37
ENDBRANCH  10  33
BRANCH  14  41
HETATM   41  O3  UNL     1      -9.992  15.290  18.982  1.00  0.00    -0.395 OA
ATOM     42  H3  UNL     1      -9.482  14.958  18.253  1.00  0.00     0.210 HD
ENDBRANCH  14  41
TORSDOF 14
ENDMDL