MODEL 1
REMARK VINA RESULT: -8.574091445      0.000      0.000
REMARK  17 active torsions:
REMARK  status: ('A' for Active; 'I' for Inactive)
REMARK    1  A    between atoms: C2_2  and  C3_3
REMARK    2  A    between atoms: C3_3  and  C4_4
REMARK    3  A    between atoms: C4_4  and  C5_5
REMARK    4  A    between atoms: C5_5  and  C6_6
REMARK    5  A    between atoms: C6_6  and  C7_7
REMARK    6  A    between atoms: C7_7  and  C8_8
REMARK    7  A    between atoms: C8_8  and  C9_9
REMARK    8  A    between atoms: C13_13  and  C14_14
REMARK    9  A    between atoms: C14_14  and  O1_15
REMARK   10  A    between atoms: C14_14  and  N1_17
REMARK   11  A    between atoms: C17_20  and  O2_21
REMARK   12  A    between atoms: C23_28  and  C24_29
REMARK       I    between atoms: C24_29  and  N2_31
REMARK   13  A    between atoms: N2_31  and  C25_33
REMARK   14  A    between atoms: C25_33  and  C26_34
REMARK   15  A    between atoms: C26_34  and  C27_35
REMARK   16  A    between atoms: C30_38  and  O4_39
REMARK   17  A    between atoms: C31_41  and  O5_42
ROOT
HETATM    1  C8  UNL     1      -8.077  17.060  27.444  1.00  0.00     0.015 C
HETATM    2  C11 UNL     1      -9.144  16.779  26.389  1.00  0.00    -0.039 A
HETATM    3  C12 UNL     1      -8.748  16.799  25.077  1.00  0.00     0.024 A
HETATM    4  C13 UNL     1      -9.640  16.541  23.995  1.00  0.00     0.015 A
HETATM    5  C20 UNL     1     -10.926  16.270  24.291  1.00  0.00     0.016 A
HETATM    6  C21 UNL     1     -11.316  16.254  25.637  1.00  0.00     0.009 A
HETATM    7  C22 UNL     1     -10.436  16.506  26.667  1.00  0.00    -0.035 A
HETATM    8  C23 UNL     1     -11.021  16.477  28.032  1.00  0.00     0.142 C
HETATM    9  C30 UNL     1     -10.175  17.338  28.882  1.00  0.00     0.165 C
HETATM   10  C31 UNL     1      -8.725  17.118  28.838  1.00  0.00     0.161 C
ENDROOT
BRANCH   4  11
HETATM   11  C14 UNL     1      -9.115  16.643  22.664  1.00  0.00     0.148 C
BRANCH  11  12
HETATM   12  O1  UNL     1      -9.817  16.059  21.695  1.00  0.00    -0.346 OA
ATOM     13  H1  UNL     1      -9.381  15.373  21.204  1.00  0.00     0.219 HD
ENDBRANCH  11  12
BRANCH  11  14
HETATM   14  N1  UNL     1      -7.962  17.275  22.212  1.00  0.00    -0.361 N
HETATM   15  C15 UNL     1      -6.829  17.659  22.984  1.00  0.00     0.127 C
HETATM   16  C16 UNL     1      -6.039  18.726  22.192  1.00  0.00     0.051 C
HETATM   17  C17 UNL     1      -5.468  18.091  20.958  1.00  0.00     0.121 C
HETATM   18  C18 UNL     1      -6.485  17.147  20.322  1.00  0.00     0.051 C
HETATM   19  C19 UNL     1      -7.858  17.593  20.752  1.00  0.00     0.127 C
BRANCH  17  20
HETATM   20  O2  UNL     1      -4.366  17.337  21.340  1.00  0.00    -0.395 OA
ATOM     21  H2  UNL     1      -3.934  17.035  20.549  1.00  0.00     0.210 HD
ENDBRANCH  17  20
ENDBRANCH  11  14
ENDBRANCH   4  11
BRANCH   1  22
HETATM   22  C7  UNL     1      -7.532  18.373  27.079  1.00  0.00     0.017 C
BRANCH  22  23
HETATM   23  C6  UNL     1      -6.135  18.567  26.673  1.00  0.00     0.001 C
BRANCH  23  24
HETATM   24  C5  UNL     1      -5.035  18.579  27.648  1.00  0.00     0.000 C
BRANCH  24  25
HETATM   25  C4  UNL     1      -3.928  17.653  27.114  1.00  0.00     0.000 C
BRANCH  25  26
HETATM   26  C3  UNL     1      -4.319  16.919  25.883  1.00  0.00    -0.000 C
BRANCH  26  27
HETATM   27  C2  UNL     1      -3.298  16.979  24.791  1.00  0.00    -0.005 C
HETATM   28  C1  UNL     1      -3.022  18.443  24.433  1.00  0.00     0.005 C
ENDBRANCH  26  27
ENDBRANCH  25  26
ENDBRANCH  24  25
ENDBRANCH  23  24
ENDBRANCH  22  23
ENDBRANCH   1  22
BRANCH   1  29
HETATM   29  C9  UNL     1      -7.254  15.836  27.491  1.00  0.00     0.012 C
HETATM   30  C10 UNL     1      -7.633  14.600  26.799  1.00  0.00     0.006 C
ENDBRANCH   1  29
BRANCH  10  31
HETATM   31  O5  UNL     1      -8.361  16.060  29.653  1.00  0.00    -0.392 OA
ATOM     32  H5  UNL     1      -9.062  15.767  30.222  1.00  0.00     0.210 HD
ENDBRANCH  10  31
BRANCH   8  33
HETATM   33  C24 UNL     1     -11.238  15.096  28.445  1.00  0.00     0.228 C
HETATM   34  O3  UNL     1     -10.235  14.376  28.801  1.00  0.00    -0.273 OA
HETATM   35  N2  UNL     1     -12.503  14.458  28.488  1.00  0.00    -0.360 N
ATOM     36  H2  UNL     1     -13.347  14.963  28.219  1.00  0.00     0.162 HD
BRANCH  35  37
HETATM   37  C25 UNL     1     -12.578  13.080  28.917  1.00  0.00     0.123 C
BRANCH  37  38
HETATM   38  C26 UNL     1     -13.596  12.936  30.031  1.00  0.00     0.024 C
BRANCH  38  39
HETATM   39  C27 UNL     1     -14.335  11.640  30.004  1.00  0.00    -0.013 A
HETATM   40  C28 UNL     1     -15.494  11.369  30.851  1.00  0.00     0.005 A
HETATM   41  C29 UNL     1     -14.157  10.759  31.231  1.00  0.00     0.005 A
ENDBRANCH  38  39
ENDBRANCH  37  38
ENDBRANCH  35  37
ENDBRANCH   8  33
BRANCH   9  42
HETATM   42  O4  UNL     1     -10.585  17.202  30.220  1.00  0.00    -0.392 OA
ATOM     43  H4  UNL     1     -10.023  16.569  30.651  1.00  0.00     0.210 HD
ENDBRANCH   9  42
TORSDOF 17
ENDMDL