MODEL 3
REMARK VINA RESULT: -7.533061374      4.013      5.825
REMARK  0 active torsions:
REMARK  status: ('A' for Active; 'I' for Inactive)
ROOT
HETATM    1  N1  UNL     1      10.068  -2.290  -6.185  1.00  0.00    -0.197 NA
HETATM    2  C1  UNL     1      11.091  -2.475  -5.659  1.00  0.00     0.064 C
HETATM    3  C2  UNL     1      12.406  -2.722  -5.013  1.00  0.00     0.101 C
HETATM    4  C3  UNL     1      13.393  -2.826  -6.124  1.00  0.00     0.043 C
HETATM    5  C4  UNL     1      14.819  -2.696  -5.783  1.00  0.00     0.054 C
HETATM    6  C5  UNL     1      15.106  -1.682  -4.717  1.00  0.00     0.045 C
HETATM    7  C6  UNL     1      14.156  -1.698  -3.596  1.00  0.00     0.084 C
HETATM    8  C7  UNL     1      12.684  -1.640  -4.033  1.00  0.00     0.033 C
HETATM    9  C8  UNL     1      12.086  -1.854  -2.674  1.00  0.00    -0.004 C
HETATM   10  C9  UNL     1      10.669  -2.152  -2.498  1.00  0.00     0.012 C
HETATM   11  C10 UNL     1      10.685  -1.235  -1.260  1.00  0.00     0.002 C
HETATM   12  C11 UNL     1      11.845  -0.514  -1.961  1.00  0.00     0.012 C
HETATM   13  C12 UNL     1      13.055  -2.660  -1.890  1.00  0.00     0.191 C
HETATM   14  C13 UNL     1      12.486  -3.904  -1.386  1.00  0.00     0.081 C
HETATM   15  N2  UNL     1      12.037  -4.887  -0.976  1.00  0.00    -0.196 NA
HETATM   16  N3  UNL     1      14.142  -2.901  -2.814  1.00  0.00    -0.204 NA
HETATM   17 CL1  UNL     1      15.638  -3.213  -2.008  1.00  0.00    -0.020 Cl
HETATM   18  S1  UNL     1      15.570  -4.326  -5.379  1.00  0.00    -0.042 SA
HETATM   19  N4  UNL     1      16.111  -4.733  -7.038  1.00  0.00    -0.318 N
ATOM     20  H4  UNL     1      16.642  -5.550  -7.341  1.00  0.00     0.175 HD
HETATM   21  C14 UNL     1      15.627  -3.651  -7.841  1.00  0.00     0.100 C
HETATM   22  N5  UNL     1      15.262  -3.772  -9.097  1.00  0.00    -0.387 N
ATOM     23  H51 UNL     1      14.918  -3.001  -9.668  1.00  0.00     0.157 HD
ATOM     24  H52 UNL     1      15.276  -4.633  -9.641  1.00  0.00     0.157 HD
HETATM   25  C15 UNL     1      15.606  -2.394  -7.047  1.00  0.00     0.180 C
HETATM   26  C16 UNL     1      16.987  -2.024  -6.666  1.00  0.00     0.073 C
HETATM   27  N6  UNL     1      18.071  -1.749  -6.360  1.00  0.00    -0.196 NA
ENDROOT
TORSDOF 0
ENDMDL