MODEL 4
REMARK VINA RESULT: -7.250072350      1.058      1.157
REMARK  0 active torsions:
REMARK  status: ('A' for Active; 'I' for Inactive)
ROOT
HETATM    1  F1  UNL     1      17.297  -2.456  -0.658  1.00  0.00    -0.203 F
HETATM    2  C1  UNL     1      17.564  -2.906  -1.925  1.00  0.00     0.152 A
HETATM    3  C2  UNL     1      18.692  -3.735  -1.959  1.00  0.00     0.045 A
HETATM    4  C3  UNL     1      19.089  -4.252  -3.155  1.00  0.00     0.006 A
HETATM    5  C4  UNL     1      18.351  -3.928  -4.284  1.00  0.00     0.040 A
HETATM    6  C5  UNL     1      17.234  -3.112  -4.280  1.00  0.00     0.105 A
HETATM    7  C6  UNL     1      16.831  -2.584  -3.043  1.00  0.00     0.140 A
HETATM    8  O1  UNL     1      15.735  -1.764  -2.905  1.00  0.00    -0.344 OA
HETATM    9  C7  UNL     1      14.407  -2.030  -3.322  1.00  0.00     0.203 C
HETATM   10  C8  UNL     1      13.542  -1.995  -2.067  1.00  0.00     0.259 C
HETATM   11  N1  UNL     1      12.825  -0.746  -1.950  1.00  0.00    -0.072 N
ATOM     12  H11 UNL     1      12.700  -0.299  -2.858  1.00  0.00     0.277 HD
ATOM     13  H12 UNL     1      13.393  -0.028  -1.499  1.00  0.00     0.277 HD
HETATM   14  C9  UNL     1      11.577  -0.926  -1.277  1.00  0.00     0.259 C
HETATM   15  C10 UNL     1      10.472  -0.452  -2.212  1.00  0.00     0.259 C
HETATM   16  N2  UNL     1      10.783   0.826  -2.804  1.00  0.00    -0.073 N
ATOM     17  H21 UNL     1      11.544   1.281  -2.300  1.00  0.00     0.277 HD
ATOM     18  H22 UNL     1      10.035   1.498  -2.627  1.00  0.00     0.277 HD
HETATM   19  C11 UNL     1      11.078   0.753  -4.209  1.00  0.00     0.242 C
HETATM   20  C12 UNL     1      10.092  -0.092  -4.981  1.00  0.00     0.101 C
HETATM   21  S1  UNL     1       9.895   0.462  -6.688  1.00  0.00    -0.167 SA
HETATM   22  C13 UNL     1      11.537   0.691  -7.468  1.00  0.00     0.075 C
HETATM   23  C14 UNL     1      11.730  -0.288  -8.582  1.00  0.00     0.020 C
HETATM   24  C15 UNL     1      13.148  -0.685  -8.820  1.00  0.00     0.075 C
HETATM   25  S2  UNL     1      14.210  -0.408  -7.388  1.00  0.00    -0.167 SA
HETATM   26  C16 UNL     1      15.202  -1.872  -7.100  1.00  0.00     0.100 C
HETATM   27  C17 UNL     1      16.331  -1.616  -6.101  1.00  0.00     0.186 C
HETATM   28  O2  UNL     1      16.555  -2.833  -5.440  1.00  0.00    -0.347 OA
ENDROOT
TORSDOF 0
ENDMDL