MODEL 1
REMARK VINA RESULT: -8.201374667      0.000      0.000
REMARK  1 active torsions:
REMARK  status: ('A' for Active; 'I' for Inactive)
REMARK    1  A    between atoms: N2_23  and  N3_25
ROOT
HETATM    1  C1  UNL     1      17.865  -3.875  -4.933  1.00  0.00     0.039 C
HETATM    2  C2  UNL     1      17.339  -2.464  -4.793  1.00  0.00     0.120 C
HETATM    3  C3  UNL     1      16.999  -1.907  -6.137  1.00  0.00     0.032 C
HETATM    4  C4  UNL     1      16.670  -2.991  -7.140  1.00  0.00     0.002 C
HETATM    5  C5  UNL     1      15.659  -2.530  -8.171  1.00  0.00     0.000 C
HETATM    6  C6  UNL     1      14.951  -3.782  -8.687  1.00  0.00     0.000 C
HETATM    7  C7  UNL     1      13.893  -4.220  -7.695  1.00  0.00     0.000 C
HETATM    8  C8  UNL     1      12.642  -3.452  -7.982  1.00  0.00     0.000 C
HETATM    9  C9  UNL     1      11.535  -3.677  -7.015  1.00  0.00     0.003 C
HETATM   10  C10 UNL     1      11.908  -3.652  -5.585  1.00  0.00     0.040 C
HETATM   11  C11 UNL     1      11.960  -2.226  -5.025  1.00  0.00     0.206 C
HETATM   12  F1  UNL     1      13.114  -1.669  -5.521  1.00  0.00    -0.246 F
HETATM   13  C12 UNL     1      11.940  -2.286  -3.510  1.00  0.00     0.227 C
HETATM   14  O1  UNL     1      12.073  -3.578  -3.124  1.00  0.00    -0.340 OA
HETATM   15  C13 UNL     1      12.513  -3.839  -1.854  1.00  0.00     0.162 C
HETATM   16  C14 UNL     1      11.991  -5.269  -1.562  1.00  0.00     0.078 C
HETATM   17  C15 UNL     1      11.958  -2.994  -0.775  1.00  0.00     0.078 C
HETATM   18  O2  UNL     1      13.879  -3.986  -1.880  1.00  0.00    -0.308 OA
HETATM   19  C16 UNL     1      14.631  -2.870  -1.619  1.00  0.00     0.376 C
HETATM   20  N1  UNL     1      14.236  -1.702  -2.357  1.00  0.00    -0.328 N
ATOM     21  H1  UNL     1      14.953  -0.981  -2.429  1.00  0.00     0.165 HD
HETATM   22  C17 UNL     1      13.010  -1.386  -3.003  1.00  0.00     0.127 C
HETATM   23  N2  UNL     1      12.738  -0.145  -3.197  1.00  0.00    -0.293 N
ATOM     24  H2  UNL     1      13.418   0.545  -2.879  1.00  0.00     0.187 HD
HETATM   25  O3  UNL     1      15.954  -3.194  -1.724  1.00  0.00    -0.319 OA
HETATM   26  C18 UNL     1      16.711  -2.499  -2.616  1.00  0.00     0.343 C
HETATM   27  O4  UNL     1      16.243  -2.478  -3.914  1.00  0.00    -0.362 OA
ENDROOT
BRANCH  23  28
HETATM   28  N3  UNL     1      11.587   0.319  -3.805  1.00  0.00    -0.344 N
ATOM     29  H32 UNL     1      11.673   0.624  -4.775  1.00  0.00     0.176 HD
ATOM     30  H31 UNL     1      10.675   0.374  -3.352  1.00  0.00     0.176 HD
ENDBRANCH  23  28
TORSDOF 1
ENDMDL