MODEL 2
REMARK VINA RESULT: -6.146283396      1.431      1.856
REMARK  2 active torsions:
REMARK  status: ('A' for Active; 'I' for Inactive)
REMARK       I    between atoms: N3_16  and  C10_17
REMARK    1  A    between atoms: C10_17  and  O2_19
REMARK    2  A    between atoms: O2_19  and  C11_20
ROOT
HETATM    1  C1  UNL     1      19.078  -3.157  -2.394  1.00  0.00     0.022 C
HETATM    2  C2  UNL     1      18.216  -3.000  -3.638  1.00  0.00     0.056 C
HETATM    3  C3  UNL     1      18.844  -3.919  -4.694  1.00  0.00     0.043 C
HETATM    4  C4  UNL     1      17.731  -4.202  -5.697  1.00  0.00     0.233 C
HETATM    5  N1  UNL     1      17.162  -2.919  -6.038  1.00  0.00    -0.075 N
ATOM      6  H11 UNL     1      17.841  -2.173  -5.894  1.00  0.00     0.277 HD
ATOM      7  H12 UNL     1      16.458  -2.643  -5.352  1.00  0.00     0.277 HD
HETATM    8  C5  UNL     1      16.623  -2.867  -7.368  1.00  0.00     0.233 C
HETATM    9  C6  UNL     1      15.751  -4.039  -7.706  1.00  0.00     0.055 C
HETATM   10  C7  UNL     1      14.483  -4.085  -6.905  1.00  0.00     0.234 C
HETATM   11  N2  UNL     1      13.705  -2.886  -6.973  1.00  0.00    -0.074 N
ATOM     12  H21 UNL     1      12.946  -2.977  -7.648  1.00  0.00     0.277 HD
ATOM     13  H22 UNL     1      14.228  -2.132  -7.418  1.00  0.00     0.277 HD
HETATM   14  C8  UNL     1      13.207  -2.484  -5.675  1.00  0.00     0.252 C
HETATM   15  C9  UNL     1      13.691  -1.103  -5.291  1.00  0.00     0.156 C
HETATM   16  N3  UNL     1      13.661  -0.897  -3.861  1.00  0.00    -0.317 N
HETATM   17  C10 UNL     1      12.405  -0.848  -3.208  1.00  0.00     0.364 C
HETATM   18  O1  UNL     1      11.325  -0.980  -3.845  1.00  0.00    -0.238 OA
HETATM   19  C15 UNL     1      14.893  -0.749  -3.155  1.00  0.00     0.214 C
HETATM   20  S1  UNL     1      15.368  -2.236  -2.243  1.00  0.00    -0.077 SA
HETATM   21  S2  UNL     1      16.534  -3.563  -3.378  1.00  0.00    -0.091 SA
ENDROOT
BRANCH  17  22
HETATM   22  O2  UNL     1      12.277  -0.654  -1.835  1.00  0.00    -0.294 OA
BRANCH  22  23
HETATM   23  C11 UNL     1      11.875  -1.698  -0.968  1.00  0.00     0.061 C
HETATM   24  C12 UNL     1      10.446  -1.545  -0.507  1.00  0.00     0.046 C
HETATM   25  C13 UNL     1      12.742  -1.590   0.294  1.00  0.00     0.046 C
HETATM   26  C14 UNL     1      12.108  -3.064  -1.536  1.00  0.00     0.046 C
ENDBRANCH  22  23
ENDBRANCH  17  22
TORSDOF 2
ENDMDL