MODEL 1
REMARK VINA RESULT: -7.503588567      0.000      0.000
REMARK  1 active torsions:
REMARK  status: ('A' for Active; 'I' for Inactive)
REMARK       I    between atoms: C1_2  and  N1_3
REMARK    1  A    between atoms: C1_2  and  C6_14
ROOT
HETATM    1  O1  UNL     1      16.282  -2.734  -1.213  1.00  0.00    -0.273 OA
HETATM    2  C1  UNL     1      15.463  -2.584  -2.161  1.00  0.00     0.227 C
HETATM    3  N1  UNL     1      15.956  -2.322  -3.444  1.00  0.00    -0.318 N
ATOM      4  H1  UNL     1      15.384  -1.774  -4.087  1.00  0.00     0.169 HD
HETATM    5  C2  UNL     1      17.119  -2.751  -3.850  1.00  0.00     0.117 A
HETATM    6  S1  UNL     1      18.194  -3.675  -2.902  1.00  0.00    -0.038 SA
HETATM    7  C3  UNL     1      19.637  -4.075  -3.737  1.00  0.00     0.174 A
HETATM    8  F1  UNL     1      20.653  -4.804  -3.204  1.00  0.00    -0.197 F
HETATM    9  C4  UNL     1      19.691  -3.587  -5.029  1.00  0.00     0.139 A
HETATM   10  N2  UNL     1      18.745  -2.871  -5.623  1.00  0.00    -0.351 N
ATOM     11  H2  UNL     1      18.937  -2.586  -6.583  1.00  0.00     0.166 HD
HETATM   12  C5  UNL     1      17.581  -2.479  -5.122  1.00  0.00     0.135 A
HETATM   13  S2  UNL     1      16.557  -1.583  -6.066  1.00  0.00    -0.057 SA
ENDROOT
BRANCH   2  14
HETATM   14  C6  UNL     1      13.986  -2.672  -1.978  1.00  0.00     0.087 C
HETATM   15  C7  UNL     1      13.245  -2.302  -3.225  1.00  0.00     0.019 C
HETATM   16  C8  UNL     1      12.841  -0.843  -3.269  1.00  0.00     0.063 C
HETATM   17  C9  UNL     1      11.549  -0.712  -2.513  1.00  0.00     0.221 C
HETATM   18  N3  UNL     1      11.072   0.634  -2.400  1.00  0.00    -0.047 N
HETATM   19  S3  UNL     1      10.191  -1.475  -3.488  1.00  0.00    -0.118 SA
HETATM   20  S4  UNL     1      11.742  -1.516  -0.917  1.00  0.00    -0.119 SA
HETATM   21  C10 UNL     1      10.533   1.067  -3.636  1.00  0.00     0.245 C
ATOM     22  H32 UNL     1      10.405   0.739  -1.635  1.00  0.00     0.280 HD
ATOM     23  H31 UNL     1      11.795   1.267  -2.057  1.00  0.00     0.280 HD
HETATM   24  C11 UNL     1       9.444   0.104  -4.068  1.00  0.00     0.105 C
HETATM   25  C12 UNL     1      13.527  -1.918  -0.756  1.00  0.00     0.091 C
ENDBRANCH   2  14
TORSDOF 1
ENDMDL