MODEL 3
REMARK VINA RESULT: -7.566352451      2.935      6.394
REMARK  5 active torsions:
REMARK  status: ('A' for Active; 'I' for Inactive)
REMARK    1  A    between atoms: C3_3  and  C4_4
REMARK    2  A    between atoms: C5_5  and  C6_6
REMARK    3  A    between atoms: C7_7  and  C8_8
REMARK    4  A    between atoms: C8_8  and  C11_11
REMARK    5  A    between atoms: C18_27  and  N5_28
ROOT
HETATM    1  C1  UNL     1      14.321  -0.609  -7.281  1.00  0.00     0.112 C
HETATM    2  C2  UNL     1      15.472  -1.260  -6.641  1.00  0.00    -0.105 C
HETATM    3  C3  UNL     1      16.409  -1.808  -6.114  1.00  0.00    -0.062 C
ENDROOT
BRANCH   3   4
HETATM    4  C4  UNL     1      17.518  -2.482  -5.494  1.00  0.00     0.080 A
HETATM    5  C5  UNL     1      17.419  -2.973  -4.204  1.00  0.00     0.061 A
HETATM    6  C16 UNL     1      18.448  -3.623  -3.572  1.00  0.00     0.027 A
HETATM    7  C17 UNL     1      18.294  -4.133  -2.184  1.00  0.00     0.070 C
HETATM    8  N4  UNL     1      19.601  -3.789  -4.238  1.00  0.00    -0.343 N
HETATM    9  C18 UNL     1      19.755  -3.335  -5.490  1.00  0.00     0.140 A
ATOM     10  H4  UNL     1      20.376  -4.270  -3.781  1.00  0.00     0.167 HD
HETATM   11  C19 UNL     1      18.725  -2.677  -6.140  1.00  0.00     0.179 A
HETATM   12  F1  UNL     1      18.867  -2.213  -7.403  1.00  0.00    -0.201 F
BRANCH   5  13
HETATM   13  C6  UNL     1      16.151  -2.763  -3.538  1.00  0.00    -0.062 C
HETATM   14  C7  UNL     1      15.083  -2.579  -3.001  1.00  0.00    -0.085 C
BRANCH  14  15
HETATM   15  C8  UNL     1      13.782  -2.365  -2.373  1.00  0.00     0.061 C
HETATM   16  C9  UNL     1      13.905  -1.908  -0.943  1.00  0.00     0.035 C
HETATM   17  C10 UNL     1      13.120  -1.215  -3.132  1.00  0.00     0.035 C
BRANCH  15  18
HETATM   18  C11 UNL     1      12.970  -3.567  -2.534  1.00  0.00     0.060 A
HETATM   19  N1  UNL     1      12.561  -4.238  -1.459  1.00  0.00    -0.352 N
HETATM   20  C12 UNL     1      11.819  -5.343  -1.437  1.00  0.00     0.181 A
ATOM     21  H1  UNL     1      12.847  -3.864  -0.554  1.00  0.00     0.166 HD
HETATM   22  N2  UNL     1      11.448  -5.828  -2.648  1.00  0.00    -0.345 N
HETATM   23  C13 UNL     1      11.828  -5.196  -3.802  1.00  0.00     0.105 A
ATOM     24  H2  UNL     1      10.879  -6.672  -2.699  1.00  0.00     0.167 HD
HETATM   25  S1  UNL     1      11.595  -5.449  -5.480  1.00  0.00    -0.065 SA
HETATM   26  C15 UNL     1      12.592  -4.059  -3.805  1.00  0.00     0.091 A
HETATM   27  C14 UNL     1      12.475  -4.106  -6.074  1.00  0.00     0.140 A
HETATM   28  N3  UNL     1      12.896  -3.541  -4.955  1.00  0.00    -0.356 N
ATOM     29  H3  UNL     1      13.463  -2.694  -4.996  1.00  0.00     0.166 HD
ENDBRANCH  15  18
ENDBRANCH  14  15
ENDBRANCH   5  13
BRANCH   9  30
HETATM   30  N5  UNL     1      20.851  -3.479  -6.155  1.00  0.00    -0.383 N
ATOM     31  H52 UNL     1      20.818  -4.121  -6.947  1.00  0.00     0.157 HD
ATOM     32  H51 UNL     1      21.712  -2.985  -5.916  1.00  0.00     0.157 HD
ENDBRANCH   9  30
ENDBRANCH   3   4
TORSDOF 5
ENDMDL