MODEL 5
REMARK VINA RESULT: -6.279014519      2.293      4.787
REMARK  0 active torsions:
REMARK  status: ('A' for Active; 'I' for Inactive)
ROOT
HETATM    1  C1  UNL     1      14.293  -2.709  -1.616  1.00  0.00     0.011 A
HETATM    2  C2  UNL     1      15.658  -2.955  -1.934  1.00  0.00     0.037 A
HETATM    3  C3  UNL     1      16.369  -2.158  -2.785  1.00  0.00     0.069 A
HETATM    4  C4  UNL     1      15.692  -1.100  -3.318  1.00  0.00     0.037 A
HETATM    5  C5  UNL     1      14.324  -0.833  -3.015  1.00  0.00     0.011 A
HETATM    6  C6  UNL     1      13.620  -1.641  -2.159  1.00  0.00    -0.049 A
HETATM    7  C7  UNL     1      12.188  -1.341  -1.858  1.00  0.00     0.112 C
HETATM    8  S1  UNL     1      11.118  -2.076  -3.174  1.00  0.00    -0.164 SA
HETATM    9  C8  UNL     1      10.035  -0.779  -3.810  1.00  0.00     0.084 C
HETATM   10  C9  UNL     1      10.000  -0.886  -5.315  1.00  0.00     0.085 C
HETATM   11  S2  UNL     1      11.494  -0.043  -5.954  1.00  0.00    -0.141 SA
HETATM   12  C10 UNL     1      11.877  -0.761  -7.567  1.00  0.00     0.305 C
HETATM   13  N1  UNL     1      11.873  -2.211  -7.412  1.00  0.00    -0.065 N
ATOM     14  H11 UNL     1      11.043  -2.632  -7.829  1.00  0.00     0.278 HD
ATOM     15  H12 UNL     1      11.715  -2.485  -6.442  1.00  0.00     0.278 HD
HETATM   16  C11 UNL     1      13.097  -2.792  -7.944  1.00  0.00     0.259 C
HETATM   17  C12 UNL     1      13.652  -3.719  -6.888  1.00  0.00     0.195 C
HETATM   18  O1  UNL     1      14.716  -4.479  -7.343  1.00  0.00    -0.388 OA
HETATM   19  C13 UNL     1      15.826  -3.747  -7.687  1.00  0.00     0.187 C
HETATM   20  C14 UNL     1      16.637  -3.332  -6.448  1.00  0.00     0.145 C
HETATM   21  N2  UNL     1      16.492  -4.345  -5.478  1.00  0.00    -0.398 N
ATOM     22  H2  UNL     1      15.720  -5.008  -5.530  1.00  0.00     0.158 HD
HETATM   23  C15 UNL     1      17.437  -4.421  -4.438  1.00  0.00     0.082 C
HETATM   24  C16 UNL     1      18.222  -3.198  -4.138  1.00  0.00     0.219 C
HETATM   25  O2  UNL     1      17.713  -2.426  -3.079  1.00  0.00    -0.346 OA
ENDROOT
TORSDOF 0
ENDMDL