MODEL 4
REMARK VINA RESULT: -6.892033194      1.187      1.247
REMARK  2 active torsions:
REMARK  status: ('A' for Active; 'I' for Inactive)
REMARK    1  A    between atoms: C2_2  and  C4_5
REMARK       I    between atoms: C4_5  and  N1_7
REMARK    2  A    between atoms: C10_14  and  N2_15
ROOT
HETATM    1  C4  UNL     1      17.552  -3.589  -3.717  1.00  0.00     0.259 C
HETATM    2  O1  UNL     1      17.163  -3.726  -2.507  1.00  0.00    -0.270 OA
HETATM    3  N1  UNL     1      16.584  -3.185  -4.663  1.00  0.00    -0.347 N
HETATM    4  C5  UNL     1      15.204  -2.952  -4.179  1.00  0.00     0.126 C
HETATM    5  C6  UNL     1      15.264  -1.787  -3.260  1.00  0.00     0.020 C
HETATM    6  C7  UNL     1      14.013  -0.895  -3.314  1.00  0.00     0.009 C
HETATM    7  C8  UNL     1      12.829  -1.735  -3.267  1.00  0.00     0.087 C
HETATM    8  C9  UNL     1      11.557  -1.258  -3.822  1.00  0.00     0.192 C
HETATM    9  O2  UNL     1      10.609  -2.064  -3.461  1.00  0.00    -0.289 OA
HETATM   10  C10 UNL     1      11.242  -0.113  -4.645  1.00  0.00     0.141 C
HETATM   11  N3  UNL     1      11.852   0.338  -5.839  1.00  0.00    -0.374 N
ATOM     12  H3  UNL     1      11.771   1.332  -6.053  1.00  0.00     0.161 HD
HETATM   13  C11 UNL     1      12.584  -0.483  -6.787  1.00  0.00     0.123 C
HETATM   14  C12 UNL     1      11.840  -0.661  -8.071  1.00  0.00     0.046 C
HETATM   15  C13 UNL     1      12.794  -1.031  -9.196  1.00  0.00     0.169 C
HETATM   16  O3  UNL     1      13.057  -2.386  -9.252  1.00  0.00    -0.389 OA
HETATM   17  C14 UNL     1      14.039  -2.804  -8.378  1.00  0.00     0.193 C
HETATM   18  C15 UNL     1      15.087  -3.694  -8.999  1.00  0.00     0.193 C
HETATM   19  O4  UNL     1      16.266  -3.518  -8.254  1.00  0.00    -0.387 OA
HETATM   20  C16 UNL     1      16.166  -3.970  -6.965  1.00  0.00     0.187 C
HETATM   21  C17 UNL     1      16.896  -2.997  -6.058  1.00  0.00     0.152 C
ENDROOT
BRANCH   1  22
HETATM   22  C2  UNL     1      18.970  -3.866  -3.995  1.00  0.00     0.176 C
HETATM   23  C1  UNL     1      19.765  -3.766  -2.689  1.00  0.00     0.062 C
HETATM   24  C3  UNL     1      19.179  -5.291  -4.490  1.00  0.00     0.062 C
HETATM   25  F1  UNL     1      19.540  -2.943  -4.854  1.00  0.00    -0.233 F
ENDBRANCH   1  22
BRANCH  10  26
HETATM   26  N2  UNL     1      10.247   0.615  -4.235  1.00  0.00    -0.383 N
ATOM     27  H22 UNL     1       9.338   0.155  -4.274  1.00  0.00     0.157 HD
ATOM     28  H21 UNL     1      10.491   1.555  -3.920  1.00  0.00     0.157 HD
ENDBRANCH  10  26
TORSDOF 2
ENDMDL