MODEL 5
REMARK VINA RESULT: -8.376250531      1.490      1.964
REMARK  12 active torsions:
REMARK  status: ('A' for Active; 'I' for Inactive)
REMARK    1  A    between atoms: C2_2  and  N1_3
REMARK    2  A    between atoms: N1_3  and  C3_4
REMARK    3  A    between atoms: C3_4  and  C4_5
REMARK    4  A    between atoms: C4_5  and  N2_6
REMARK    5  A    between atoms: N2_6  and  C5_8
REMARK    6  A    between atoms: C5_8  and  O1_9
REMARK    7  A    between atoms: C6_11  and  N3_12
REMARK    8  A    between atoms: N4_15  and  C9_16
REMARK    9  A    between atoms: C9_16  and  C10_17
REMARK   10  A    between atoms: C10_17  and  C11_18
REMARK   11  A    between atoms: C13_22  and  N6_23
REMARK   12  A    between atoms: C15_29  and  N9_30
ROOT
HETATM    1  N6  UNL     1      11.121 -10.763  24.313  1.00  0.00    -0.126 N
ATOM      2  H6  UNL     1      10.480 -11.375  24.818  1.00  0.00     0.197 HD
HETATM    3  C14 UNL     1      11.336  -9.471  24.776  1.00  0.00     0.196 C
HETATM    4  N7  UNL     1      11.519  -8.414  25.167  1.00  0.00    -0.171 NA
ENDROOT
BRANCH   1   5
HETATM    5  C13 UNL     1      11.725 -11.209  23.243  1.00  0.00     0.692 A
HETATM    6  N5  UNL     1      11.491 -12.481  22.877  1.00  0.00    -0.200 N
HETATM    7  C12 UNL     1      12.051 -13.031  21.810  1.00  0.00     0.117 A
ATOM      8  H5  UNL     1      10.857 -13.044  23.444  1.00  0.00     0.183 HD
HETATM    9  C11 UNL     1      12.911 -12.279  21.031  1.00  0.00     0.004 A
HETATM   10  C15 UNL     1      13.144 -10.979  21.417  1.00  0.00     0.122 A
HETATM   11  N8  UNL     1      12.547 -10.449  22.524  1.00  0.00    -0.176 N
ATOM     12  H8  UNL     1      12.728  -9.483  22.796  1.00  0.00     0.186 HD
BRANCH   9  13
HETATM   13  C10 UNL     1      13.517 -12.895  19.816  1.00  0.00     0.074 C
BRANCH  13  14
HETATM   14  C9  UNL     1      14.170 -14.189  20.167  1.00  0.00     0.270 C
BRANCH  14  15
HETATM   15  N4  UNL     1      15.492 -14.072  20.662  1.00  0.00     0.019 N
HETATM   16  C8  UNL     1      16.313 -15.255  20.353  1.00  0.00     0.294 C
HETATM   17  C7  UNL     1      17.780 -14.836  20.409  1.00  0.00     0.285 C
HETATM   18  N3  UNL     1      17.934 -13.926  21.513  1.00  0.00     0.043 N
HETATM   19  C17 UNL     1      17.006 -14.244  22.550  1.00  0.00     0.285 C
HETATM   20  C18 UNL     1      17.359 -12.664  20.943  1.00  0.00     0.444 C
HETATM   21  C16 UNL     1      15.570 -13.909  22.110  1.00  0.00     0.294 C
HETATM   22  N10 UNL     1      16.198 -12.936  20.167  1.00  0.00    -0.160 N
HETATM   23  O2  UNL     1      17.876 -11.572  21.157  1.00  0.00    -0.237 OA
ATOM     24  H10 UNL     1      15.906 -12.387  19.358  1.00  0.00     0.199 HD
BRANCH  18  25
HETATM   25  C6  UNL     1      19.239 -13.565  21.875  1.00  0.00     0.269 C
HETATM   26  C5  UNL     1      20.239 -14.579  22.079  1.00  0.00     0.160 C
BRANCH  26  27
HETATM   27  N2  UNL     1      20.178 -15.974  21.986  1.00  0.00    -0.368 N
ATOM     28  H2  UNL     1      20.311 -16.397  21.067  1.00  0.00     0.161 HD
BRANCH  27  29
HETATM   29  C4  UNL     1      19.935 -16.864  23.120  1.00  0.00     0.150 C
BRANCH  29  30
HETATM   30  C3  UNL     1      20.825 -16.655  24.283  1.00  0.00     0.257 C
BRANCH  30  31
HETATM   31  N1  UNL     1      20.110 -16.427  25.524  1.00  0.00    -0.066 N
HETATM   32  C19 UNL     1      19.907 -17.617  26.284  1.00  0.00     0.237 C
HETATM   33  C20 UNL     1      18.658 -17.377  27.106  1.00  0.00     0.029 C
HETATM   34  C21 UNL     1      17.832 -16.456  26.234  1.00  0.00     0.029 C
HETATM   35  C22 UNL     1      18.781 -15.966  25.183  1.00  0.00     0.237 C
BRANCH  31  36
HETATM   36  C2  UNL     1      20.784 -15.462  26.367  1.00  0.00     0.233 C
HETATM   37  C1  UNL     1      20.653 -14.051  25.906  1.00  0.00     0.035 C
ENDBRANCH  31  36
ENDBRANCH  30  31
ENDBRANCH  29  30
ENDBRANCH  27  29
ENDBRANCH  26  27
BRANCH  26  38
HETATM   38  O1  UNL     1      21.433 -14.134  22.415  1.00  0.00    -0.345 OA
ATOM     39  H1  UNL     1      21.412 -13.272  22.814  1.00  0.00     0.219 HD
ENDBRANCH  26  38
ENDBRANCH  18  25
ENDBRANCH  14  15
ENDBRANCH  13  14
ENDBRANCH   9  13
BRANCH  10  40
HETATM   40  N9  UNL     1      13.949 -10.225  20.758  1.00  0.00    -0.385 N
ATOM     41  H92 UNL     1      14.268 -10.558  19.848  1.00  0.00     0.157 HD
ATOM     42  H91 UNL     1      14.244  -9.321  21.125  1.00  0.00     0.157 HD
ENDBRANCH  10  40
ENDBRANCH   1   5
TORSDOF 12
ENDMDL