MODEL 2
REMARK VINA RESULT: -7.646685084      3.068      6.236
REMARK  11 active torsions:
REMARK  status: ('A' for Active; 'I' for Inactive)
REMARK       I    between atoms: C2_2  and  N1_4
REMARK    1  A    between atoms: N1_4  and  C3_6
REMARK    2  A    between atoms: C3_6  and  C4_7
REMARK    3  A    between atoms: C3_6  and  C19_39
REMARK       I    between atoms: C4_7  and  N2_9
REMARK    4  A    between atoms: N2_9  and  C5_11
REMARK    5  A    between atoms: C5_11  and  C6_12
REMARK    6  A    between atoms: C5_11  and  C10_20
REMARK    7  A    between atoms: C6_12  and  C7_13
REMARK    8  A    between atoms: C10_20  and  N5_22
REMARK       I    between atoms: N6_26  and  C14_27
REMARK    9  A    between atoms: C18_32  and  N7_33
REMARK   10  A    between atoms: N7_33  and  N8_34
REMARK   11  A    between atoms: N8_34  and  N9_36
ROOT
HETATM    1  C5  UNL     1      15.021 -16.154  20.510  1.00  0.00     0.113 C
ENDROOT
BRANCH   1   2
HETATM    2  N2  UNL     1      16.487 -16.505  20.525  1.00  0.00    -0.352 N
HETATM    3  C4  UNL     1      17.303 -16.229  21.625  1.00  0.00     0.241 C
HETATM    4  O2  UNL     1      16.721 -15.651  22.607  1.00  0.00    -0.271 OA
ATOM      5  H2  UNL     1      16.896 -16.958  19.708  1.00  0.00     0.163 HD
BRANCH   3   6
HETATM    6  C3  UNL     1      18.733 -16.513  21.801  1.00  0.00     0.179 C
BRANCH   6   7
HETATM    7  N1  UNL     1      19.205 -15.906  23.057  1.00  0.00    -0.348 N
HETATM    8  C2  UNL     1      19.847 -14.655  23.131  1.00  0.00     0.214 C
HETATM    9  C1  UNL     1      20.284 -14.134  24.448  1.00  0.00     0.117 C
HETATM   10  O1  UNL     1      20.084 -13.928  22.130  1.00  0.00    -0.274 OA
ATOM     11  H1  UNL     1      19.059 -16.423  23.924  1.00  0.00     0.163 HD
ENDBRANCH   6   7
BRANCH   6  12
HETATM   12  C19 UNL     1      19.097 -17.979  21.799  1.00  0.00     0.009 C
HETATM   13  C20 UNL     1      18.748 -18.600  23.163  1.00  0.00     0.012 C
HETATM   14  C21 UNL     1      20.508 -18.298  21.484  1.00  0.00     0.012 C
ENDBRANCH   6  12
ENDBRANCH   3   6
ENDBRANCH   1   2
BRANCH   1  15
HETATM   15  C6  UNL     1      14.506 -17.287  19.650  1.00  0.00     0.085 C
BRANCH  15  16
HETATM   16  C7  UNL     1      13.248 -17.920  20.012  1.00  0.00     0.027 A
HETATM   17  C8  UNL     1      12.644 -18.966  19.358  1.00  0.00     0.114 A
HETATM   18  N3  UNL     1      11.486 -19.205  19.983  1.00  0.00    -0.360 N
HETATM   19  C9  UNL     1      11.354 -18.353  20.991  1.00  0.00     0.180 A
ATOM     20  H3  UNL     1      10.812 -19.927  19.726  1.00  0.00     0.166 HD
HETATM   21  N4  UNL     1      12.427 -17.570  21.008  1.00  0.00    -0.355 N
ATOM     22  H4  UNL     1      12.598 -16.819  21.676  1.00  0.00     0.166 HD
ENDBRANCH  15  16
ENDBRANCH   1  15
BRANCH   1  23
HETATM   23  C10 UNL     1      14.843 -14.810  19.956  1.00  0.00     0.114 C
HETATM   24  C11 UNL     1      14.365 -14.805  18.522  1.00  0.00     0.035 C
BRANCH  23  25
HETATM   25  N5  UNL     1      14.034 -13.890  20.670  1.00  0.00    -0.285 N
HETATM   26  C12 UNL     1      12.654 -13.982  20.888  1.00  0.00     0.244 C
HETATM   27  O3  UNL     1      11.950 -14.674  20.169  1.00  0.00    -0.271 OA
HETATM   28  C13 UNL     1      12.035 -13.237  21.997  1.00  0.00     0.229 C
HETATM   29  N6  UNL     1      12.642 -11.961  22.229  1.00  0.00    -0.331 N
HETATM   30  C14 UNL     1      12.143 -11.141  23.287  1.00  0.00     0.216 C
HETATM   31  C16 UNL     1      13.724 -11.536  21.402  1.00  0.00     0.168 C
HETATM   32  C15 UNL     1      12.717  -9.810  23.585  1.00  0.00     0.117 C
HETATM   33  O4  UNL     1      11.189 -11.549  23.991  1.00  0.00    -0.274 OA
HETATM   34  C17 UNL     1      13.171 -11.128  20.056  1.00  0.00     0.042 C
HETATM   35  C18 UNL     1      14.684 -12.720  21.236  1.00  0.00     0.209 C
BRANCH  35  36
HETATM   36  N7  UNL     1      15.852 -12.655  21.551  1.00  0.00    -0.294 NA
BRANCH  36  37
HETATM   37  N8  UNL     1      17.105 -12.641  21.786  1.00  0.00    -0.181 N
ATOM     38  H8  UNL     1      17.447 -13.279  22.506  1.00  0.00     0.223 HD
BRANCH  37  39
HETATM   39  N9  UNL     1      17.992 -11.891  21.197  1.00  0.00    -0.320 N
ATOM     40  H92 UNL     1      18.124 -10.962  21.599  1.00  0.00     0.179 HD
ATOM     41  H91 UNL     1      18.554 -12.145  20.384  1.00  0.00     0.179 HD
ENDBRANCH  37  39
ENDBRANCH  36  37
ENDBRANCH  35  36
ENDBRANCH  23  25
ENDBRANCH   1  23
TORSDOF 11
ENDMDL