MODEL 1
REMARK VINA RESULT: -8.745381274      0.000      0.000
REMARK  10 active torsions:
REMARK  status: ('A' for Active; 'I' for Inactive)
REMARK       I    between atoms: N1_2  and  C2_4
REMARK    1  A    between atoms: C2_4  and  C3_6
REMARK    2  A    between atoms: C3_6  and  N2_7
REMARK       I    between atoms: N2_7  and  C4_9
REMARK    3  A    between atoms: C4_9  and  C5_11
REMARK    4  A    between atoms: C5_11  and  N3_13
REMARK       I    between atoms: N3_13  and  C7_15
REMARK    5  A    between atoms: C7_15  and  C8_17
REMARK    6  A    between atoms: C8_17  and  C9_18
REMARK    7  A    between atoms: C9_18  and  N4_19
REMARK    8  A    between atoms: C9_18  and  C12_24
REMARK       I    between atoms: N4_19  and  C10_21
REMARK    9  A    between atoms: C12_24  and  C13_25
REMARK   10  A    between atoms: C12_24  and  N8_37
REMARK       I    between atoms: C13_25  and  N5_27
ROOT
HETATM    1  C9  UNL     1      16.911 -14.278  19.703  1.00  0.00     0.030 C
ENDROOT
BRANCH   1   2
HETATM    2  C8  UNL     1      16.567 -15.283  20.733  1.00  0.00     0.158 C
BRANCH   2   3
HETATM    3  C7  UNL     1      16.869 -14.796  22.087  1.00  0.00     0.223 C
HETATM    4  N3  UNL     1      17.883 -15.473  22.875  1.00  0.00    -0.348 N
ATOM      5  H3  UNL     1      18.360 -16.302  22.520  1.00  0.00     0.163 HD
HETATM    6  O3  UNL     1      16.288 -13.818  22.601  1.00  0.00    -0.273 OA
BRANCH   4   7
HETATM    7  C5  UNL     1      18.196 -14.930  24.188  1.00  0.00     0.172 C
HETATM    8  C6  UNL     1      18.096 -16.287  25.049  1.00  0.00     0.042 C
BRANCH   7   9
HETATM    9  C4  UNL     1      19.612 -14.574  24.229  1.00  0.00     0.240 C
HETATM   10  N2  UNL     1      20.337 -14.574  25.442  1.00  0.00    -0.351 N
ATOM     11  H2  UNL     1      19.873 -14.827  26.314  1.00  0.00     0.163 HD
HETATM   12  O2  UNL     1      20.200 -14.239  23.146  1.00  0.00    -0.271 OA
BRANCH  10  13
HETATM   13  C3  UNL     1      21.759 -14.210  25.443  1.00  0.00     0.225 C
BRANCH  13  14
HETATM   14  C2  UNL     1      22.554 -15.459  25.221  1.00  0.00     0.234 C
HETATM   15  N1  UNL     1      22.608 -16.439  26.224  1.00  0.00    -0.364 N
HETATM   16  C1  UNL     1      23.390 -17.656  25.940  1.00  0.00     0.149 C
ATOM     17  H1  UNL     1      22.126 -16.314  27.115  1.00  0.00     0.161 HD
HETATM   18  O1  UNL     1      23.165 -15.618  24.141  1.00  0.00    -0.272 OA
ENDBRANCH  13  14
ENDBRANCH  10  13
ENDBRANCH   7   9
ENDBRANCH   4   7
ENDBRANCH   2   3
ENDBRANCH   1   2
BRANCH   1  19
HETATM   19  N4  UNL     1      18.036 -13.447  19.886  1.00  0.00    -0.332 N
HETATM   20  C10 UNL     1      19.402 -13.731  19.943  1.00  0.00     0.217 C
HETATM   21  C11 UNL     1      20.377 -12.578  20.135  1.00  0.00     0.117 C
HETATM   22  O4  UNL     1      19.967 -14.843  19.850  1.00  0.00    -0.274 OA
ATOM     23  H4  UNL     1      17.812 -12.458  19.997  1.00  0.00     0.168 HD
ENDBRANCH   1  19
BRANCH   1  24
HETATM   24  C12 UNL     1      15.741 -13.685  18.968  1.00  0.00     0.225 C
BRANCH  24  25
HETATM   25  C13 UNL     1      15.157 -12.496  19.839  1.00  0.00     0.252 C
HETATM   26  O5  UNL     1      15.802 -11.452  19.848  1.00  0.00    -0.270 OA
HETATM   27  N5  UNL     1      14.006 -12.763  20.466  1.00  0.00    -0.310 N
HETATM   28  C14 UNL     1      13.176 -12.526  21.324  1.00  0.00     0.124 A
ATOM     29  H5  UNL     1      13.636 -13.578  19.977  1.00  0.00     0.170 HD
HETATM   30  C15 UNL     1      13.132 -11.528  22.295  1.00  0.00     0.076 A
HETATM   31  N7  UNL     1      12.065 -13.316  21.581  1.00  0.00    -0.285 N
HETATM   32  C16 UNL     1      12.025 -11.735  23.093  1.00  0.00     0.025 A
HETATM   33  C17 UNL     1      11.621 -10.950  24.257  1.00  0.00     0.070 C
HETATM   34  N6  UNL     1      11.405 -12.858  22.601  1.00  0.00    -0.304 N
ATOM     35  H6  UNL     1      10.552 -13.270  22.980  1.00  0.00     0.186 HD
ATOM     36  H7  UNL     1      11.803 -14.142  21.043  1.00  0.00     0.188 HD
ENDBRANCH  24  25
BRANCH  24  37
HETATM   37  N8  UNL     1      16.090 -13.004  17.750  1.00  0.00    -0.333 N
HETATM   38  C18 UNL     1      17.286 -12.569  17.028  1.00  0.00     0.136 C
HETATM   39  C19 UNL     1      16.483 -13.011  15.811  1.00  0.00     0.123 C
HETATM   40  C20 UNL     1      15.353 -12.465  16.620  1.00  0.00     0.222 C
HETATM   41  O6  UNL     1      14.282 -11.860  16.554  1.00  0.00    -0.273 OA
ENDBRANCH  24  37
ENDBRANCH   1  24
TORSDOF 10
ENDMDL