MODEL 5
REMARK VINA RESULT: -7.536959909      1.768      2.294
REMARK  13 active torsions:
REMARK  status: ('A' for Active; 'I' for Inactive)
REMARK    1  A    between atoms: C3_3  and  C4_4
REMARK    2  A    between atoms: C4_4  and  N1_5
REMARK    3  A    between atoms: N1_5  and  C5_6
REMARK    4  A    between atoms: C6_7  and  O1_8
REMARK    5  A    between atoms: C6_7  and  N2_10
REMARK    6  A    between atoms: N2_10  and  N3_12
REMARK       I    between atoms: N3_12  and  C7_14
REMARK    7  A    between atoms: C7_14  and  C8_16
REMARK    8  A    between atoms: C8_16  and  C9_17
REMARK    9  A    between atoms: C8_16  and  N5_24
REMARK   10  A    between atoms: C9_17  and  C10_18
REMARK   11  A    between atoms: C10_18  and  C11_19
REMARK   12  A    between atoms: C11_19  and  N4_21
REMARK       I    between atoms: N5_24  and  C14_25
REMARK   13  A    between atoms: C17_29  and  N6_30
REMARK       I    between atoms: N6_30  and  C18_31
ROOT
HETATM    1  C1  UNL     1      19.979 -12.940  18.077  1.00  0.00     0.112 C
HETATM    2  C2  UNL     1      19.999 -13.374  19.481  1.00  0.00    -0.109 C
HETATM    3  C3  UNL     1      19.967 -13.720  20.619  1.00  0.00    -0.076 C
ENDROOT
BRANCH   3   4
HETATM    4  C4  UNL     1      19.854 -14.137  22.015  1.00  0.00     0.364 C
BRANCH   4   5
HETATM    5  N1  UNL     1      19.166 -15.407  22.197  1.00  0.00     0.054 N
HETATM    6  C16 UNL     1      18.858 -15.652  23.583  1.00  0.00     0.321 C
HETATM    7  C17 UNL     1      20.130 -16.309  24.169  1.00  0.00     0.288 C
HETATM    8  C20 UNL     1      20.735 -16.930  22.982  1.00  0.00     0.279 C
HETATM    9  O5  UNL     1      21.688 -17.766  22.969  1.00  0.00    -0.268 OA
HETATM   10  N7  UNL     1      20.060 -16.446  21.842  1.00  0.00    -0.177 N
ATOM     11  H7  UNL     1      20.197 -16.796  20.893  1.00  0.00     0.197 HD
BRANCH   5  12
HETATM   12  C5  UNL     1      18.030 -15.439  21.325  1.00  0.00     0.287 C
HETATM   13  C6  UNL     1      17.172 -16.603  21.287  1.00  0.00     0.181 C
BRANCH  13  14
HETATM   14  O1  UNL     1      17.533 -17.609  22.090  1.00  0.00    -0.344 OA
ATOM     15  H1  UNL     1      17.279 -17.517  23.000  1.00  0.00     0.219 HD
ENDBRANCH  13  14
BRANCH  13  16
HETATM   16  N2  UNL     1      16.071 -16.829  20.510  1.00  0.00    -0.276 N
ATOM     17  H2  UNL     1      16.282 -17.359  19.664  1.00  0.00     0.189 HD
BRANCH  16  18
HETATM   18  N3  UNL     1      14.795 -16.510  20.617  1.00  0.00    -0.265 N
HETATM   19  C7  UNL     1      13.753 -16.612  21.559  1.00  0.00     0.272 C
HETATM   20  O2  UNL     1      13.911 -17.160  22.662  1.00  0.00    -0.268 OA
ATOM     21  H3  UNL     1      14.466 -16.055  19.765  1.00  0.00     0.190 HD
BRANCH  19  22
HETATM   22  C8  UNL     1      12.426 -16.002  21.166  1.00  0.00     0.260 C
BRANCH  22  23
HETATM   23  C9  UNL     1      12.671 -14.519  20.844  1.00  0.00     0.056 C
BRANCH  23  24
HETATM   24  C10 UNL     1      12.818 -13.841  22.257  1.00  0.00     0.073 C
BRANCH  24  25
HETATM   25  C11 UNL     1      13.615 -12.614  21.963  1.00  0.00     0.074 C
HETATM   26  S1  UNL     1      15.187 -12.835  21.499  1.00  0.00    -0.066 SA
BRANCH  25  27
HETATM   27  N4  UNL     1      13.115 -11.323  22.034  1.00  0.00    -0.384 N
HETATM   28  C12 UNL     1      13.270 -10.424  20.882  1.00  0.00     0.149 C
HETATM   29  C13 UNL     1      12.436 -10.787  23.179  1.00  0.00     0.149 C
ENDBRANCH  25  27
ENDBRANCH  24  25
ENDBRANCH  23  24
ENDBRANCH  22  23
BRANCH  22  30
HETATM   30  N5  UNL     1      11.839 -16.664  20.107  1.00  0.00    -0.400 NA
HETATM   31  C14 UNL     1      11.258 -17.313  19.063  1.00  0.00     0.283 C
HETATM   32  C15 UNL     1      12.031 -18.520  18.474  1.00  0.00     0.134 C
HETATM   33  O3  UNL     1      10.184 -17.119  18.475  1.00  0.00    -0.258 OA
ENDBRANCH  22  30
ENDBRANCH  19  22
ENDBRANCH  16  18
ENDBRANCH  13  16
ENDBRANCH   5  12
BRANCH   7  34
HETATM   34  N6  UNL     1      20.929 -15.326  24.809  1.00  0.00    -0.398 NA
HETATM   35  C18 UNL     1      21.735 -14.430  25.347  1.00  0.00     0.283 C
HETATM   36  C19 UNL     1      21.088 -13.793  26.696  1.00  0.00     0.134 C
HETATM   37  O4  UNL     1      22.827 -13.880  25.219  1.00  0.00    -0.258 OA
ENDBRANCH   7  34
ENDBRANCH   4   5
ENDBRANCH   3   4
TORSDOF 13
ENDMDL