MODEL 5
REMARK VINA RESULT: -8.227887191      3.647      7.883
REMARK  10 active torsions:
REMARK  status: ('A' for Active; 'I' for Inactive)
REMARK       I    between atoms: N1_4  and  C4_6
REMARK    1  A    between atoms: C4_6  and  C5_8
REMARK    2  A    between atoms: C5_8  and  N2_9
REMARK    3  A    between atoms: C5_8  and  C15_23
REMARK       I    between atoms: N2_9  and  C6_11
REMARK    4  A    between atoms: C6_11  and  C7_13
REMARK    5  A    between atoms: C7_13  and  N3_14
REMARK    6  A    between atoms: N3_14  and  C8_15
REMARK    7  A    between atoms: C8_15  and  C9_16
REMARK       I    between atoms: C15_23  and  N4_25
REMARK    8  A    between atoms: N4_25  and  C16_27
REMARK    9  A    between atoms: C17_32  and  N7_33
REMARK       I    between atoms: N7_33  and  C18_35
REMARK       I    between atoms: C18_35  and  N8_37
REMARK   10  A    between atoms: N8_37  and  C19_38
ROOT
HETATM    1  C1  UNL     1      11.823  -9.172  24.616  1.00  0.00     0.018 C
HETATM    2  C2  UNL     1      12.282  -9.981  23.838  1.00  0.00    -0.072 C
HETATM    3  C3  UNL     1      12.809 -10.972  22.897  1.00  0.00     0.155 C
HETATM    4  N1  UNL     1      12.940 -10.583  21.682  1.00  0.00    -0.328 N
ATOM      5  H1  UNL     1      12.679  -9.624  21.449  1.00  0.00     0.168 HD
HETATM    6  C4  UNL     1      13.425 -11.410  20.655  1.00  0.00     0.254 C
HETATM    7  O1  UNL     1      13.230 -11.012  19.465  1.00  0.00    -0.270 OA
ENDROOT
BRANCH   6   8
HETATM    8  C5  UNL     1      14.122 -12.678  20.867  1.00  0.00     0.270 C
BRANCH   8   9
HETATM    9  N2  UNL     1      13.491 -13.731  20.053  1.00  0.00    -0.339 N
HETATM   10  C6  UNL     1      12.570 -14.631  20.733  1.00  0.00     0.244 C
HETATM   11  O2  UNL     1      12.431 -14.363  21.909  1.00  0.00    -0.272 OA
ATOM     12  H2  UNL     1      13.690 -13.825  19.057  1.00  0.00     0.163 HD
BRANCH  10  13
HETATM   13  C7  UNL     1      11.981 -15.696  19.933  1.00  0.00     0.339 C
BRANCH  13  14
HETATM   14  N3  UNL     1      12.384 -17.037  20.103  1.00  0.00    -0.055 N
HETATM   15  C11 UNL     1      13.525 -17.074  21.036  1.00  0.00     0.264 C
HETATM   16  C12 UNL     1      13.644 -18.348  21.777  1.00  0.00     0.195 C
HETATM   17  O3  UNL     1      13.117 -19.442  21.088  1.00  0.00    -0.388 OA
HETATM   18  C13 UNL     1      11.742 -19.286  20.946  1.00  0.00     0.195 C
HETATM   19  C14 UNL     1      11.338 -17.826  20.744  1.00  0.00     0.264 C
BRANCH  14  20
HETATM   20  C8  UNL     1      12.811 -17.700  18.921  1.00  0.00     0.237 C
BRANCH  20  21
HETATM   21  C9  UNL     1      13.932 -17.133  18.143  1.00  0.00     0.023 C
HETATM   22  C10 UNL     1      14.798 -18.314  17.666  1.00  0.00     0.007 C
ENDBRANCH  20  21
ENDBRANCH  14  20
ENDBRANCH  13  14
ENDBRANCH  10  13
ENDBRANCH   8   9
BRANCH   8  23
HETATM   23  C15 UNL     1      15.537 -12.660  20.359  1.00  0.00     0.268 C
HETATM   24  O4  UNL     1      16.013 -11.538  19.975  1.00  0.00    -0.270 OA
HETATM   25  N4  UNL     1      16.324 -13.773  20.285  1.00  0.00    -0.155 N
ATOM     26  H4  UNL     1      15.793 -14.617  20.072  1.00  0.00     0.187 HD
BRANCH  25  27
HETATM   27  C16 UNL     1      17.530 -13.989  20.417  1.00  0.00     0.714 A
HETATM   28  N5  UNL     1      18.576 -13.366  19.774  1.00  0.00    -0.117 N
HETATM   29  N6  UNL     1      19.663 -13.935  20.217  1.00  0.00    -0.117 N
ATOM     30  H5  UNL     1      18.514 -12.612  19.090  1.00  0.00     0.206 HD
HETATM   31  C17 UNL     1      19.394 -14.907  21.121  1.00  0.00     0.716 A
ATOM     32  H6  UNL     1      20.603 -13.678  19.918  1.00  0.00     0.206 HD
HETATM   33  N9  UNL     1      18.070 -14.934  21.235  1.00  0.00    -0.019 N
ATOM     34  H9  UNL     1      17.542 -15.562  21.840  1.00  0.00     0.203 HD
BRANCH  31  35
HETATM   35  N7  UNL     1      20.232 -15.653  21.756  1.00  0.00    -0.128 N
HETATM   36  C18 UNL     1      20.632 -15.121  23.082  1.00  0.00     0.406 C
HETATM   37  O5  UNL     1      21.526 -14.209  22.912  1.00  0.00    -0.230 OA
HETATM   38  N8  UNL     1      20.071 -15.611  24.126  1.00  0.00    -0.397 NA
ATOM     39  H7  UNL     1      20.589 -16.532  21.379  1.00  0.00     0.190 HD
BRANCH  38  40
HETATM   40  C19 UNL     1      19.439 -16.159  25.323  1.00  0.00     0.219 C
HETATM   41  C20 UNL     1      19.929 -15.319  26.543  1.00  0.00     0.041 C
ENDBRANCH  38  40
ENDBRANCH  31  35
ENDBRANCH  25  27
ENDBRANCH   8  23
ENDBRANCH   6   8
TORSDOF 10
ENDMDL