MODEL 1
REMARK VINA RESULT: -8.521596672      0.000      0.000
REMARK  10 active torsions:
REMARK  status: ('A' for Active; 'I' for Inactive)
REMARK    1  A    between atoms: C3_3  and  C4_4
REMARK    2  A    between atoms: C4_4  and  C5_5
REMARK    3  A    between atoms: C5_5  and  N1_7
REMARK    4  A    between atoms: N1_7  and  C7_10
REMARK    5  A    between atoms: C7_10  and  C8_11
REMARK    6  A    between atoms: C11_17  and  C12_18
REMARK       I    between atoms: C12_18  and  N3_20
REMARK    7  A    between atoms: N3_20  and  C13_22
REMARK    8  A    between atoms: C13_22  and  C15_24
REMARK       I    between atoms: C15_24  and  N4_26
REMARK    9  A    between atoms: N4_26  and  C16_28
REMARK   10  A    between atoms: C16_28  and  C17_29
ROOT
HETATM    1  C1  UNL     1      20.319 -12.963  19.522  1.00  0.00     0.027 C
HETATM    2  C2  UNL     1      20.427 -13.405  20.635  1.00  0.00    -0.026 C
HETATM    3  C3  UNL     1      20.565 -13.950  21.951  1.00  0.00    -0.014 C
ENDROOT
BRANCH   3   4
HETATM    4  C4  UNL     1      20.699 -14.407  23.071  1.00  0.00    -0.060 C
BRANCH   4   5
HETATM    5  C5  UNL     1      20.834 -15.002  24.410  1.00  0.00     0.261 C
HETATM    6  C6  UNL     1      20.583 -13.889  25.411  1.00  0.00     0.054 C
BRANCH   5   7
HETATM    7  N1  UNL     1      19.897 -16.119  24.609  1.00  0.00    -0.059 N
ATOM      8  H12 UNL     1      20.041 -16.871  23.934  1.00  0.00     0.278 HD
ATOM      9  H11 UNL     1      20.098 -16.649  25.458  1.00  0.00     0.278 HD
BRANCH   7  10
HETATM   10  C7  UNL     1      18.574 -15.620  24.586  1.00  0.00     0.266 C
BRANCH  10  11
HETATM   11  C8  UNL     1      17.693 -16.316  23.569  1.00  0.00     0.180 C
HETATM   12  N2  UNL     1      18.425 -17.373  22.894  1.00  0.00    -0.348 N
HETATM   13  C9  UNL     1      17.771 -18.055  21.832  1.00  0.00     0.219 C
ATOM     14  H2  UNL     1      19.375 -17.617  23.172  1.00  0.00     0.163 HD
HETATM   15  O1  UNL     1      17.985 -19.247  21.532  1.00  0.00    -0.274 OA
HETATM   16  C10 UNL     1      16.765 -17.234  21.072  1.00  0.00     0.124 C
HETATM   17  C11 UNL     1      17.347 -15.822  21.098  1.00  0.00     0.158 C
HETATM   18  C22 UNL     1      17.173 -15.358  22.531  1.00  0.00     0.164 C
HETATM   19  O6  UNL     1      16.664 -14.311  22.732  1.00  0.00    -0.295 OA
BRANCH  17  20
HETATM   20  C12 UNL     1      16.571 -14.973  20.137  1.00  0.00     0.234 C
HETATM   21  O2  UNL     1      15.430 -15.371  19.761  1.00  0.00    -0.272 OA
HETATM   22  N3  UNL     1      17.073 -13.769  19.659  1.00  0.00    -0.326 N
ATOM     23  H3  UNL     1      18.005 -13.572  20.025  1.00  0.00     0.168 HD
BRANCH  22  24
HETATM   24  C13 UNL     1      16.627 -12.768  18.811  1.00  0.00     0.076 C
HETATM   25  C14 UNL     1      17.277 -12.746  17.442  1.00  0.00     0.074 C
BRANCH  24  26
HETATM   26  C15 UNL     1      15.217 -12.389  18.688  1.00  0.00     0.264 C
HETATM   27  O3  UNL     1      14.646 -12.314  17.594  1.00  0.00    -0.266 OA
HETATM   28  N4  UNL     1      14.524 -12.129  19.893  1.00  0.00    -0.351 N
ATOM     29  H4  UNL     1      15.068 -12.144  20.756  1.00  0.00     0.163 HD
BRANCH  28  30
HETATM   30  C16 UNL     1      13.123 -11.849  20.006  1.00  0.00     0.169 C
BRANCH  30  31
HETATM   31  C17 UNL     1      12.727 -11.840  21.441  1.00  0.00     0.050 A
HETATM   32  C18 UNL     1      12.038 -12.947  21.945  1.00  0.00     0.023 A
HETATM   33  C19 UNL     1      12.164 -14.203  21.127  1.00  0.00     0.069 C
HETATM   34  N5  UNL     1      11.473 -12.980  23.147  1.00  0.00    -0.312 N
HETATM   35  C20 UNL     1      11.579 -11.878  23.905  1.00  0.00     0.327 A
ATOM     36  H5  UNL     1      10.978 -13.807  23.479  1.00  0.00     0.170 HD
HETATM   37  O4  UNL     1      11.068 -11.858  25.032  1.00  0.00    -0.247 OA
HETATM   38  N6  UNL     1      12.240 -10.757  23.485  1.00  0.00    -0.275 N
HETATM   39  C21 UNL     1      12.806 -10.744  22.269  1.00  0.00     0.259 A
ATOM     40  H6  UNL     1      12.303  -9.938  24.091  1.00  0.00     0.173 HD
HETATM   41  O5  UNL     1      13.427  -9.699  21.887  1.00  0.00    -0.267 OA
ENDBRANCH  30  31
ENDBRANCH  28  30
ENDBRANCH  24  26
ENDBRANCH  22  24
ENDBRANCH  17  20
ENDBRANCH  10  11
ENDBRANCH   7  10
ENDBRANCH   5   7
ENDBRANCH   4   5
ENDBRANCH   3   4
TORSDOF 10
ENDMDL