MODEL 1
REMARK VINA RESULT: -8.063560713      0.000      0.000
REMARK  12 active torsions:
REMARK  status: ('A' for Active; 'I' for Inactive)
REMARK    1  A    between atoms: C2_2  and  N2_6
REMARK       I    between atoms: N2_6  and  C3_8
REMARK    2  A    between atoms: N4_10  and  C4_12
REMARK    3  A    between atoms: C4_12  and  C5_13
REMARK    4  A    between atoms: C5_13  and  C6_14
REMARK    5  A    between atoms: C6_14  and  C7_15
REMARK    6  A    between atoms: C7_15  and  N5_16
REMARK    7  A    between atoms: C7_15  and  C11_24
REMARK       I    between atoms: N5_16  and  C8_18
REMARK    8  A    between atoms: C8_18  and  C9_20
REMARK    9  A    between atoms: C9_20  and  O2_22
REMARK       I    between atoms: C11_24  and  N6_26
REMARK   10  A    between atoms: N7_30  and  C15_31
REMARK   11  A    between atoms: C15_31  and  O4_32
REMARK   12  A    between atoms: C16_34  and  N8_35
ROOT
HETATM    1  C7  UNL     1      19.853 -14.460  22.266  1.00  0.00     0.177 C
ENDROOT
BRANCH   1   2
HETATM    2  C6  UNL     1      20.301 -13.837  20.945  1.00  0.00     0.040 C
BRANCH   2   3
HETATM    3  C5  UNL     1      19.097 -13.326  20.171  1.00  0.00     0.047 C
BRANCH   3   4
HETATM    4  C4  UNL     1      18.436 -12.203  20.936  1.00  0.00     0.063 C
BRANCH   4   5
HETATM    5  N4  UNL     1      17.039 -12.330  21.023  1.00  0.00    -0.344 N
HETATM    6  C3  UNL     1      16.101 -12.209  20.204  1.00  0.00     0.193 C
HETATM    7  N2  UNL     1      14.755 -12.429  20.699  1.00  0.00    -0.321 N
HETATM    8  N3  UNL     1      16.179 -11.878  18.821  1.00  0.00    -0.063 NA
ATOM      9  H2  UNL     1      14.372 -13.373  20.652  1.00  0.00     0.169 HD
ATOM     10  H4  UNL     1      16.719 -12.576  21.960  1.00  0.00     0.167 HD
BRANCH   7  11
HETATM   11  C2  UNL     1      13.953 -11.416  21.238  1.00  0.00     0.072 C
HETATM   12  C1  UNL     1      13.055 -11.631  22.375  1.00  0.00     0.088 C
HETATM   13  N1  UNL     1      14.021 -10.249  20.700  1.00  0.00    -0.389 N
ATOM     14  H12 UNL     1      13.437  -9.511  21.092  1.00  0.00     0.157 HD
ATOM     15  H11 UNL     1      14.647 -10.099  19.908  1.00  0.00     0.157 HD
ENDBRANCH   7  11
ENDBRANCH   4   5
ENDBRANCH   3   4
ENDBRANCH   2   3
ENDBRANCH   1   2
BRANCH   1  16
HETATM   16  N5  UNL     1      20.917 -14.258  23.255  1.00  0.00    -0.346 N
HETATM   17  C8  UNL     1      20.583 -14.258  24.612  1.00  0.00     0.246 C
HETATM   18  O1  UNL     1      19.403 -14.424  25.035  1.00  0.00    -0.271 OA
ATOM     19  H5  UNL     1      21.882 -14.119  22.957  1.00  0.00     0.163 HD
BRANCH  17  20
HETATM   20  C9  UNL     1      21.621 -14.058  25.646  1.00  0.00     0.206 C
HETATM   21  C10 UNL     1      21.019 -13.788  27.007  1.00  0.00     0.049 C
BRANCH  20  22
HETATM   22  O2  UNL     1      22.431 -15.183  25.685  1.00  0.00    -0.387 OA
ATOM     23  H2  UNL     1      22.942 -15.216  24.885  1.00  0.00     0.210 HD
ENDBRANCH  20  22
ENDBRANCH  17  20
ENDBRANCH   1  16
BRANCH   1  24
HETATM   24  C11 UNL     1      19.748 -15.916  22.062  1.00  0.00     0.242 C
HETATM   25  O3  UNL     1      20.819 -16.598  22.174  1.00  0.00    -0.271 OA
HETATM   26  N6  UNL     1      18.578 -16.618  21.759  1.00  0.00    -0.349 N
HETATM   27  C12 UNL     1      18.680 -18.070  21.565  1.00  0.00     0.127 C
HETATM   28  C21 UNL     1      17.366 -15.865  21.707  1.00  0.00     0.145 C
HETATM   29  C13 UNL     1      17.603 -18.737  22.400  1.00  0.00     0.040 C
HETATM   30  C14 UNL     1      16.328 -18.912  21.632  1.00  0.00     0.126 C
HETATM   31  N7  UNL     1      15.662 -17.570  21.444  1.00  0.00    -0.359 N
HETATM   32  C20 UNL     1      16.393 -16.547  20.758  1.00  0.00     0.145 C
BRANCH  31  33
HETATM   33  C15 UNL     1      14.404 -17.498  21.992  1.00  0.00     0.162 C
HETATM   34  C16 UNL     1      13.040 -17.308  21.624  1.00  0.00     0.256 C
BRANCH  33  35
HETATM   35  O4  UNL     1      14.466 -17.664  23.345  1.00  0.00    -0.345 OA
ATOM     36  H4  UNL     1      13.970 -18.431  23.607  1.00  0.00     0.219 HD
ENDBRANCH  33  35
BRANCH  34  37
HETATM   37  N8  UNL     1      12.476 -17.131  20.364  1.00  0.00    -0.055 N
HETATM   38  C17 UNL     1      12.188 -15.820  19.892  1.00  0.00     0.277 C
HETATM   39  C18 UNL     1      13.026 -17.986  19.303  1.00  0.00     0.277 C
HETATM   40  C19 UNL     1      11.091 -17.779  20.524  1.00  0.00     0.277 C
ENDBRANCH  34  37
ENDBRANCH  31  33
ENDBRANCH   1  24
TORSDOF 12
ENDMDL