MODEL 4
REMARK VINA RESULT: -6.834278660      3.374      5.278
REMARK  11 active torsions:
REMARK  status: ('A' for Active; 'I' for Inactive)
REMARK    1  A    between atoms: C2_2  and  N1_3
REMARK    2  A    between atoms: N1_3  and  C4_5
REMARK    3  A    between atoms: N1_3  and  C6_7
REMARK    4  A    between atoms: C6_7  and  C7_8
REMARK    5  A    between atoms: N3_14  and  C10_15
REMARK    6  A    between atoms: C10_15  and  C11_16
REMARK    7  A    between atoms: C11_16  and  C12_17
REMARK    8  A    between atoms: C12_17  and  N4_18
REMARK    9  A    between atoms: N4_18  and  C13_19
REMARK   10  A    between atoms: C14_20  and  C15_21
REMARK   11  A    between atoms: N5_22  and  N6_24
ROOT
HETATM    1  C13 UNL     1      16.171 -13.812  20.431  1.00  0.00     0.124 A
HETATM    2  C14 UNL     1      14.909 -13.348  20.045  1.00  0.00     0.037 A
HETATM    3  C17 UNL     1      14.736 -12.736  18.836  1.00  0.00     0.106 A
HETATM    4  N9  UNL     1      15.792 -12.581  18.014  1.00  0.00    -0.351 N
ATOM      5  H9  UNL     1      15.658 -12.124  17.111  1.00  0.00     0.166 HD
HETATM    6  C18 UNL     1      17.020 -13.016  18.357  1.00  0.00     0.120 A
HETATM    7  C19 UNL     1      17.253 -13.633  19.554  1.00  0.00     0.045 A
HETATM    8  C20 UNL     1      18.616 -14.102  19.954  1.00  0.00     0.173 C
HETATM    9  N10 UNL     1      19.547 -13.166  19.355  1.00  0.00    -0.334 N
HETATM   10  C21 UNL     1      20.672 -12.646  20.100  1.00  0.00     0.154 C
HETATM   11  C22 UNL     1      19.342 -12.752  18.009  1.00  0.00     0.323 C
HETATM   12  O1  UNL     1      20.345 -12.332  17.383  1.00  0.00    -0.247 OA
HETATM   13  N11 UNL     1      18.064 -12.808  17.390  1.00  0.00    -0.294 N
ATOM     14  H11 UNL     1      17.907 -12.712  16.388  1.00  0.00     0.172 HD
ENDROOT
BRANCH   1  15
HETATM   15  N4  UNL     1      16.304 -14.360  21.473  1.00  0.00    -0.446 NA
BRANCH  15  16
HETATM   16  C12 UNL     1      16.447 -14.983  22.638  1.00  0.00     0.223 C
BRANCH  16  17
HETATM   17  C11 UNL     1      16.930 -16.446  22.526  1.00  0.00     0.078 C
BRANCH  17  18
HETATM   18  C10 UNL     1      18.338 -16.655  22.870  1.00  0.00     0.068 C
BRANCH  18  19
HETATM   19  N3  UNL     1      18.717 -17.317  24.032  1.00  0.00    -0.343 N
HETATM   20  C7  UNL     1      19.325 -16.451  25.018  1.00  0.00     0.316 C
HETATM   21  N2  UNL     1      18.935 -16.921  26.295  1.00  0.00    -0.048 N
HETATM   22  C8  UNL     1      18.178 -18.144  26.150  1.00  0.00     0.279 C
ATOM     23  H22 UNL     1      19.731 -17.032  26.924  1.00  0.00     0.280 HD
ATOM     24  H21 UNL     1      18.427 -16.215  26.827  1.00  0.00     0.280 HD
HETATM   25  C9  UNL     1      17.909 -18.262  24.664  1.00  0.00     0.092 C
BRANCH  20  26
HETATM   26  C6  UNL     1      20.759 -16.267  24.757  1.00  0.00     0.291 C
BRANCH  26  27
HETATM   27  N1  UNL     1      21.267 -14.934  24.905  1.00  0.00    -0.068 N
HETATM   28  C3  UNL     1      20.136 -14.034  24.747  1.00  0.00     0.272 C
BRANCH  27  29
HETATM   29  C2  UNL     1      22.232 -14.596  23.904  1.00  0.00     0.232 C
HETATM   30  C1  UNL     1      23.598 -14.223  24.493  1.00  0.00     0.035 C
ENDBRANCH  27  29
BRANCH  27  31
HETATM   31  C4  UNL     1      21.810 -14.654  26.212  1.00  0.00     0.232 C
HETATM   32  C5  UNL     1      20.947 -13.707  27.021  1.00  0.00     0.035 C
ENDBRANCH  27  31
ENDBRANCH  26  27
ENDBRANCH  20  26
ENDBRANCH  18  19
ENDBRANCH  17  18
ENDBRANCH  16  17
ENDBRANCH  15  16
ENDBRANCH   1  15
BRANCH   2  33
HETATM   33  C15 UNL     1      13.753 -13.544  20.962  1.00  0.00     0.123 C
HETATM   34  N5  UNL     1      13.616 -12.697  21.932  1.00  0.00    -0.309 N
ATOM     35  H5  UNL     1      14.313 -11.955  21.996  1.00  0.00     0.186 HD
BRANCH  34  36
HETATM   36  N6  UNL     1      12.640 -12.700  22.867  1.00  0.00    -0.276 N
HETATM   37  C16 UNL     1      11.890 -11.741  23.243  1.00  0.00     0.215 C
HETATM   38  N7  UNL     1      10.922 -11.995  24.259  1.00  0.00    -0.065 NA
HETATM   39  N8  UNL     1      11.977 -10.445  22.698  1.00  0.00    -0.065 NA
ATOM     40  H6  UNL     1      12.483 -13.592  23.337  1.00  0.00     0.189 HD
ENDBRANCH  34  36
ENDBRANCH   2  33
TORSDOF 11
ENDMDL