MODEL 1
REMARK VINA RESULT: -7.993599138      0.000      0.000
REMARK  9 active torsions:
REMARK  status: ('A' for Active; 'I' for Inactive)
REMARK    1  A    between atoms: C2_2  and  C4_4
REMARK    2  A    between atoms: C4_4  and  N1_5
REMARK    3  A    between atoms: C4_4  and  C5_9
REMARK       I    between atoms: C5_9  and  N2_11
REMARK    4  A    between atoms: C9_15  and  C10_16
REMARK    5  A    between atoms: C10_16  and  N3_17
REMARK    6  A    between atoms: C10_16  and  C19_39
REMARK    7  A    between atoms: C11_19  and  C12_20
REMARK    8  A    between atoms: C11_19  and  C18_36
REMARK    9  A    between atoms: C12_20  and  N5_24
REMARK       I    between atoms: N6_27  and  C15_28
REMARK       I    between atoms: C15_28  and  N7_30
ROOT
HETATM    1  N3  UNL     1      18.741 -15.867  23.786  1.00  0.00    -0.350 N
ATOM      2  H3  UNL     1      18.334 -15.273  24.509  1.00  0.00     0.166 HD
HETATM    3  C11 UNL     1      19.554 -15.125  23.010  1.00  0.00     0.142 C
ENDROOT
BRANCH   1   4
HETATM    4  C10 UNL     1      18.253 -17.202  23.946  1.00  0.00     0.034 C
BRANCH   4   5
HETATM    5  C9  UNL     1      17.311 -17.370  22.845  1.00  0.00     0.137 C
HETATM    6  N2  UNL     1      16.175 -18.211  22.797  1.00  0.00    -0.340 N
HETATM    7  C5  UNL     1      14.759 -17.927  22.689  1.00  0.00     0.251 C
HETATM    8  C6  UNL     1      16.649 -19.570  22.939  1.00  0.00     0.127 C
HETATM    9  O1  UNL     1      13.856 -18.627  23.095  1.00  0.00    -0.271 OA
HETATM   10  C7  UNL     1      17.803 -19.564  21.930  1.00  0.00     0.022 C
HETATM   11  C8  UNL     1      18.028 -18.119  21.660  1.00  0.00     0.033 C
BRANCH   7  12
HETATM   12  C4  UNL     1      14.372 -16.650  21.977  1.00  0.00     0.278 C
BRANCH  12  13
HETATM   13  C2  UNL     1      14.009 -17.125  20.538  1.00  0.00     0.017 C
HETATM   14  C1  UNL     1      12.777 -16.465  20.033  1.00  0.00     0.012 C
HETATM   15  C3  UNL     1      15.150 -16.939  19.589  1.00  0.00     0.012 C
ENDBRANCH  12  13
BRANCH  12  16
HETATM   16  N1  UNL     1      13.192 -16.072  22.518  1.00  0.00    -0.066 N
ATOM     17  H13 UNL     1      12.359 -16.643  22.372  1.00  0.00     0.275 HD
ATOM     18  H12 UNL     1      13.171 -16.076  23.538  1.00  0.00     0.275 HD
ATOM     19  H11 UNL     1      13.119 -15.138  22.115  1.00  0.00     0.275 HD
ENDBRANCH  12  16
ENDBRANCH   7  12
ENDBRANCH   4   5
BRANCH   4  20
HETATM   20  C19 UNL     1      18.113 -17.521  25.363  1.00  0.00    -0.063 C
HETATM   21  C20 UNL     1      18.153 -16.563  26.478  1.00  0.00     0.045 C
HETATM   22  C21 UNL     1      18.801 -18.826  25.788  1.00  0.00     0.045 C
ENDBRANCH   4  20
ENDBRANCH   1   4
BRANCH   3  23
HETATM   23  C12 UNL     1      19.293 -14.658  21.680  1.00  0.00     0.130 C
HETATM   24  N4  UNL     1      20.233 -14.439  20.785  1.00  0.00    -0.384 N
ATOM     25  H42 UNL     1      21.152 -14.712  21.132  1.00  0.00     0.157 HD
ATOM     26  H41 UNL     1      20.048 -14.107  19.839  1.00  0.00     0.157 HD
BRANCH  23  27
HETATM   27  N5  UNL     1      18.004 -14.275  21.191  1.00  0.00    -0.348 N
HETATM   28  C13 UNL     1      17.775 -13.712  19.876  1.00  0.00     0.146 C
HETATM   29  C14 UNL     1      16.894 -12.514  20.298  1.00  0.00     0.149 C
HETATM   30  N6  UNL     1      16.044 -13.103  21.299  1.00  0.00    -0.316 N
HETATM   31  C15 UNL     1      14.767 -12.624  21.699  1.00  0.00     0.325 C
HETATM   32  C17 UNL     1      16.691 -14.300  21.813  1.00  0.00     0.255 C
HETATM   33  O2  UNL     1      14.168 -13.262  22.641  1.00  0.00    -0.247 OA
HETATM   34  N7  UNL     1      14.162 -11.539  21.130  1.00  0.00    -0.285 N
HETATM   35  C16 UNL     1      13.397 -10.626  21.415  1.00  0.00     0.204 C
ATOM     36  H7  UNL     1      14.437 -11.465  20.151  1.00  0.00     0.172 HD
HETATM   37  N8  UNL     1      12.788 -10.400  22.699  1.00  0.00    -0.066 NA
HETATM   38  N9  UNL     1      13.071  -9.690  20.369  1.00  0.00    -0.066 NA
ENDBRANCH  23  27
ENDBRANCH   3  23
BRANCH   3  39
HETATM   39  C18 UNL     1      20.512 -14.433  23.899  1.00  0.00     0.285 C
HETATM   40  N10 UNL     1      21.916 -14.400  23.561  1.00  0.00    -0.056 NA
HETATM   41  O3  UNL     1      20.249 -13.809  24.969  1.00  0.00    -0.269 OA
ENDBRANCH   3  39
TORSDOF 9
ENDMDL