MODEL 3
REMARK VINA RESULT: -5.731676605      2.186      3.154
REMARK  3 active torsions:
REMARK  status: ('A' for Active; 'I' for Inactive)
REMARK    1  A    between atoms: C2_2  and  C4_4
REMARK    2  A    between atoms: C7_7  and  C8_8
REMARK    3  A    between atoms: C8_8  and  C9_9
ROOT
HETATM    1  C4  UNL     1      -0.578  19.569  18.835  1.00  0.00     0.045 C
HETATM    2  C5  UNL     1      -1.098  18.721  19.923  1.00  0.00     0.019 C
HETATM    3  C6  UNL     1      -0.386  17.377  19.724  1.00  0.00     0.033 C
HETATM    4  C7  UNL     1      -1.173  16.689  18.668  1.00  0.00     0.194 C
HETATM    5  N3  UNL     1      -0.941  17.554  17.479  1.00  0.00    -0.064 N
ATOM      6  H31 UNL     1      -1.799  17.952  17.098  1.00  0.00     0.278 HD
ATOM      7  H32 UNL     1      -0.662  17.031  16.650  1.00  0.00     0.278 HD
HETATM    8  C11 UNL     1       0.016  18.548  17.869  1.00  0.00     0.209 C
HETATM    9  C12 UNL     1       0.852  17.760  18.885  1.00  0.00     0.095 C
HETATM   10 BR1  UNL     1       2.080  18.850  19.850  1.00  0.00    -0.088 Br
ENDROOT
BRANCH   4  11
HETATM   11  C8  UNL     1      -0.788  15.300  18.410  1.00  0.00     0.066 C
BRANCH  11  12
HETATM   12  C9  UNL     1      -1.845  14.376  17.931  1.00  0.00     0.151 A
HETATM   13  N1  UNL     1      -1.544  13.080  17.374  1.00  0.00    -0.367 N
HETATM   14  C10 UNL     1      -2.048  14.163  16.487  1.00  0.00     0.094 A
ATOM     15  H1  UNL     1      -1.221  12.120  17.499  1.00  0.00     0.161 HD
HETATM   16  N2  UNL     1      -2.387  14.545  15.315  1.00  0.00    -0.387 N
ATOM     17  H22 UNL     1      -2.733  15.287  14.707  1.00  0.00     0.157 HD
ATOM     18  H21 UNL     1      -2.528  14.398  14.315  1.00  0.00     0.157 HD
ENDBRANCH  11  12
ENDBRANCH   4  11
BRANCH   1  19
HETATM   19  C2  UNL     1      -1.463  20.514  18.190  1.00  0.00    -0.087 C
HETATM   20  C1  UNL     1      -1.431  20.798  16.926  1.00  0.00     0.014 C
HETATM   21  C3  UNL     1      -2.473  21.208  19.053  1.00  0.00     0.043 C
ENDBRANCH   1  19
TORSDOF 3
ENDMDL