MODEL 3
REMARK VINA RESULT: -6.195624095      1.448      2.153
REMARK  6 active torsions:
REMARK  status: ('A' for Active; 'I' for Inactive)
REMARK       I    between atoms: C1_4  and  N3_6
REMARK    1  A    between atoms: C2_8  and  C3_9
REMARK    2  A    between atoms: C2_8  and  N4_20
REMARK    3  A    between atoms: C3_9  and  C4_10
REMARK    4  A    between atoms: C5_11  and  C6_12
REMARK    5  A    between atoms: C6_12  and  C7_13
REMARK    6  A    between atoms: C7_13  and  C8_14
ROOT
HETATM    1  N1  UNL     1      -0.125  15.332  18.526  1.00  0.00    -0.373 N
ATOM      2  H11 UNL     1       0.814  15.704  18.384  1.00  0.00     0.158 HD
ATOM      3  H12 UNL     1      -0.248  14.387  18.890  1.00  0.00     0.158 HD
HETATM    4  C1  UNL     1      -1.151  16.047  18.249  1.00  0.00     0.187 C
HETATM    5  N2  UNL     1      -2.450  15.532  18.445  1.00  0.00    -0.064 NA
HETATM    6  N3  UNL     1      -0.980  17.355  17.746  1.00  0.00    -0.320 N
ATOM      7  H3  UNL     1      -0.849  17.480  16.742  1.00  0.00     0.169 HD
HETATM    8  C2  UNL     1      -0.982  18.397  18.502  1.00  0.00     0.096 C
ENDROOT
BRANCH   8   9
HETATM    9  C3  UNL     1      -0.796  19.727  17.891  1.00  0.00     0.170 C
BRANCH   9  10
HETATM   10  C4  UNL     1       0.528  19.831  17.297  1.00  0.00    -0.099 C
HETATM   11  C5  UNL     1       1.643  19.941  16.800  1.00  0.00    -0.106 C
BRANCH  11  12
HETATM   12  C6  UNL     1       2.973  20.095  16.213  1.00  0.00     0.094 C
BRANCH  12  13
HETATM   13  C7  UNL     1       2.893  21.058  15.055  1.00  0.00     0.017 C
BRANCH  13  14
HETATM   14  C8  UNL     1       4.072  20.917  14.115  1.00  0.00    -0.014 C
HETATM   15  C9  UNL     1       4.457  22.248  13.541  1.00  0.00     0.005 C
HETATM   16  C10 UNL     1       5.814  22.304  12.951  1.00  0.00     0.000 C
HETATM   17  C11 UNL     1       6.866  21.539  13.672  1.00  0.00     0.000 C
HETATM   18  C12 UNL     1       6.399  20.160  14.103  1.00  0.00     0.000 C
HETATM   19  C13 UNL     1       5.203  20.368  14.983  1.00  0.00     0.005 C
ENDBRANCH  13  14
ENDBRANCH  12  13
ENDBRANCH  11  12
ENDBRANCH   9  10
ENDBRANCH   8   9
BRANCH   8  20
HETATM   20  N4  UNL     1      -1.164  18.198  19.897  1.00  0.00    -0.322 N
HETATM   21  C14 UNL     1      -0.191  17.990  20.693  1.00  0.00     0.202 C
HETATM   22  N5  UNL     1      -0.512  17.804  22.082  1.00  0.00    -0.066 NA
HETATM   23  N6  UNL     1       1.164  17.934  20.286  1.00  0.00    -0.066 NA
ATOM     24  H4  UNL     1      -2.111  18.222  20.276  1.00  0.00     0.169 HD
ENDBRANCH   8  20
TORSDOF 6
ENDMDL