MODEL 3
REMARK VINA RESULT: -6.328284838      1.739      2.713
REMARK  4 active torsions:
REMARK  status: ('A' for Active; 'I' for Inactive)
REMARK    1  A    between atoms: C2_2  and  C3_3
REMARK    2  A    between atoms: C3_3  and  N1_4
REMARK       I    between atoms: N1_4  and  C4_6
REMARK       I    between atoms: C4_6  and  N3_10
REMARK    3  A    between atoms: N3_10  and  C5_12
REMARK    4  A    between atoms: C7_16  and  N5_17
ROOT
HETATM    1  C5  UNL     1      -0.720  17.102  19.552  1.00  0.00     0.698 A
HETATM    2  N4  UNL     1       0.555  17.092  19.988  1.00  0.00    -0.198 N
ATOM      3  H4  UNL     1       0.979  16.336  20.526  1.00  0.00     0.183 HD
HETATM    4  C6  UNL     1       1.192  18.216  19.615  1.00  0.00     0.163 A
HETATM    5  C7  UNL     1       0.264  18.977  18.905  1.00  0.00     0.240 A
HETATM    6  N6  UNL     1      -0.880  18.275  18.885  1.00  0.00    -0.167 N
ATOM      7  H6  UNL     1      -1.743  18.578  18.436  1.00  0.00     0.186 HD
ENDROOT
BRANCH   1   8
HETATM    8  N3  UNL     1      -1.650  16.212  19.710  1.00  0.00    -0.023 N
HETATM    9  C4  UNL     1      -1.363  14.867  19.252  1.00  0.00     0.686 C
HETATM   10  N1  UNL     1      -1.152  14.600  17.884  1.00  0.00    -0.226 N
HETATM   11  N2  UNL     1      -1.291  13.895  20.092  1.00  0.00    -0.234 N
ATOM     12  H1  UNL     1      -1.213  15.368  17.216  1.00  0.00     0.177 HD
ATOM     13  H22 UNL     1      -1.089  12.948  19.770  1.00  0.00     0.174 HD
ATOM     14  H21 UNL     1      -1.443  14.088  21.082  1.00  0.00     0.174 HD
ATOM     15  H3  UNL     1      -2.546  16.448  20.139  1.00  0.00     0.203 HD
BRANCH  10  16
HETATM   16  C3  UNL     1      -0.854  13.285  17.404  1.00  0.00     0.137 C
BRANCH  16  17
HETATM   17  C2  UNL     1      -1.526  12.919  16.117  1.00  0.00     0.016 C
HETATM   18  C1  UNL     1      -2.303  14.147  15.624  1.00  0.00     0.006 C
ENDBRANCH  16  17
ENDBRANCH  10  16
ENDBRANCH   1   8
BRANCH   5  19
HETATM   19  N5  UNL     1       0.486  20.252  18.319  1.00  0.00     0.006 N
HETATM   20  C8  UNL     1       1.825  20.712  18.681  1.00  0.00     0.285 C
HETATM   21  C9  UNL     1      -0.514  21.184  18.771  1.00  0.00     0.249 C
HETATM   22  C10 UNL     1      -1.086  22.046  17.696  1.00  0.00     0.029 C
HETATM   23  C11 UNL     1      -0.082  22.546  16.714  1.00  0.00     0.006 C
HETATM   24  C12 UNL     1       0.711  21.411  16.152  1.00  0.00     0.068 C
HETATM   25  C13 UNL     1       0.463  20.105  16.896  1.00  0.00     0.379 C
HETATM   26  F1  UNL     1       1.415  19.209  16.462  1.00  0.00    -0.218 F
ENDBRANCH   5  19
TORSDOF 4
ENDMDL