MODEL 1
REMARK VINA RESULT: -6.254343032      0.000      0.000
REMARK  6 active torsions:
REMARK  status: ('A' for Active; 'I' for Inactive)
REMARK    1  A    between atoms: O1_1  and  C1_3
REMARK    2  A    between atoms: C1_3  and  C2_4
REMARK    3  A    between atoms: C3_5  and  C4_6
REMARK    4  A    between atoms: C4_6  and  C5_7
REMARK    5  A    between atoms: C7_9  and  C8_10
REMARK    6  A    between atoms: C9_11  and  C10_12
ROOT
HETATM    1  C5  UNL     1      -0.811  16.797  18.453  1.00  0.00     0.015 A
HETATM    2  C6  UNL     1       0.114  17.128  19.422  1.00  0.00     0.048 A
HETATM    3  C7  UNL     1       0.907  18.170  18.958  1.00  0.00     0.053 A
HETATM    4  C13 UNL     1       0.437  18.453  17.697  1.00  0.00     0.099 A
HETATM    5 BR1  UNL     1       1.171  19.818  16.583  1.00  0.00    -0.030 Br
HETATM    6  N2  UNL     1      -0.584  17.624  17.420  1.00  0.00    -0.352 N
ATOM      7  H2  UNL     1      -1.112  17.623  16.547  1.00  0.00     0.166 HD
ENDROOT
BRANCH   3   8
HETATM    8  C8  UNL     1       1.999  18.808  19.676  1.00  0.00    -0.064 C
HETATM    9  C9  UNL     1       2.887  19.350  20.270  1.00  0.00    -0.093 C
BRANCH   9  10
HETATM   10  C10 UNL     1       3.962  20.037  20.999  1.00  0.00     0.116 C
HETATM   11  C11 UNL     1       3.467  20.897  22.146  1.00  0.00     0.251 C
HETATM   12  N1  UNL     1       3.476  22.088  21.297  1.00  0.00    -0.073 N
HETATM   13  C12 UNL     1       4.376  21.357  20.408  1.00  0.00     0.251 C
ATOM     14  H12 UNL     1       2.608  22.497  20.950  1.00  0.00     0.277 HD
ATOM     15  H11 UNL     1       3.728  23.003  21.670  1.00  0.00     0.277 HD
ENDBRANCH   9  10
ENDBRANCH   3   8
BRANCH   1  16
HETATM   16  C4  UNL     1      -1.854  15.741  18.532  1.00  0.00     0.084 C
BRANCH  16  17
HETATM   17  C3  UNL     1      -2.123  15.205  17.159  1.00  0.00    -0.023 C
HETATM   18  C2  UNL     1      -1.745  14.007  16.775  1.00  0.00    -0.005 C
BRANCH  18  19
HETATM   19  C1  UNL     1      -2.040  13.538  15.412  1.00  0.00     0.191 C
BRANCH  19  20
HETATM   20  O1  UNL     1      -3.316  13.903  14.982  1.00  0.00    -0.397 OA
ATOM     21  H1  UNL     1      -3.298  14.461  14.213  1.00  0.00     0.209 HD
ENDBRANCH  19  20
ENDBRANCH  18  19
ENDBRANCH  16  17
ENDBRANCH   1  16
TORSDOF 6
ENDMDL