MODEL 4
REMARK VINA RESULT: -5.737483863      2.871      3.151
REMARK  2 active torsions:
REMARK  status: ('A' for Active; 'I' for Inactive)
REMARK       I    between atoms: N1_2  and  C2_4
REMARK       I    between atoms: C2_4  and  N3_8
REMARK       I    between atoms: C3_10  and  N4_11
REMARK       I    between atoms: C3_10  and  N5_14
REMARK    1  A    between atoms: N5_14  and  C4_16
REMARK    2  A    between atoms: C4_16  and  C5_17
ROOT
HETATM    1  C1  UNL     1      -1.848  17.675  24.461  1.00  0.00     0.165 C
HETATM    2  N1  UNL     1      -2.098  17.783  23.038  1.00  0.00    -0.230 N
ATOM      3  H1  UNL     1      -3.060  17.761  22.699  1.00  0.00     0.177 HD
HETATM    4  C2  UNL     1      -1.042  17.918  22.108  1.00  0.00     0.685 C
HETATM    5  N2  UNL     1      -0.141  18.796  22.323  1.00  0.00    -0.234 N
ATOM      6  H21 UNL     1       0.621  18.893  21.652  1.00  0.00     0.174 HD
ATOM      7  H22 UNL     1      -0.191  19.384  23.154  1.00  0.00     0.174 HD
HETATM    8  N3  UNL     1      -0.973  17.101  20.954  1.00  0.00    -0.023 N
ATOM      9  H3  UNL     1      -1.270  16.128  21.028  1.00  0.00     0.203 HD
HETATM   10  C3  UNL     1      -0.550  17.530  19.811  1.00  0.00     0.698 C
HETATM   11  N4  UNL     1      -0.146  18.875  19.734  1.00  0.00    -0.156 N
ATOM     12  H4  UNL     1       0.842  19.125  19.787  1.00  0.00     0.192 HD
HETATM   13 BR1  UNL     1      -1.454  20.201  19.533  1.00  0.00     0.063 Br
HETATM   14  N5  UNL     1      -0.484  16.712  18.667  1.00  0.00    -0.225 N
ATOM     15  H5  UNL     1      -0.380  17.134  17.744  1.00  0.00     0.177 HD
ENDROOT
BRANCH  14  16
HETATM   16  C4  UNL     1      -0.565  15.266  18.799  1.00  0.00     0.142 C
BRANCH  16  17
HETATM   17  C5  UNL     1      -1.846  14.753  18.177  1.00  0.00     0.004 C
HETATM   18  C6  UNL     1      -1.685  13.306  17.872  1.00  0.00     0.006 C
HETATM   19  C7  UNL     1      -1.339  13.296  16.387  1.00  0.00     0.000 C
HETATM   20  C8  UNL     1      -2.268  14.384  15.872  1.00  0.00     0.000 C
HETATM   21  C9  UNL     1      -2.149  15.473  16.888  1.00  0.00     0.006 C
ENDBRANCH  16  17
ENDBRANCH  14  16
TORSDOF 2
ENDMDL