MODEL 3
REMARK VINA RESULT: -5.817377289      2.631      3.027
REMARK  4 active torsions:
REMARK  status: ('A' for Active; 'I' for Inactive)
REMARK    1  A    between atoms: N1_2  and  C3_4
REMARK    2  A    between atoms: C3_4  and  C4_5
REMARK    3  A    between atoms: C4_5  and  C5_6
REMARK    4  A    between atoms: C5_6  and  C6_7
ROOT
HETATM    1  C6  UNL     1      -0.389  17.343  18.665  1.00  0.00    -0.006 A
HETATM    2  C7  UNL     1      -0.922  18.112  17.653  1.00  0.00     0.088 A
HETATM    3 BR1  UNL     1      -0.855  20.027  17.482  1.00  0.00    -0.031 Br
HETATM    4  N2  UNL     1      -1.567  17.328  16.770  1.00  0.00    -0.334 N
ATOM      5  H2  UNL     1      -2.043  17.663  15.932  1.00  0.00     0.168 HD
HETATM    6  C8  UNL     1      -1.492  16.043  17.152  1.00  0.00     0.135 A
HETATM    7  N3  UNL     1      -1.854  14.771  16.825  1.00  0.00    -0.283 N
ATOM      8  H3  UNL     1      -2.395  14.483  16.010  1.00  0.00     0.188 HD
HETATM    9  N4  UNL     1      -1.370  13.985  17.763  1.00  0.00    -0.283 N
ATOM     10  H4  UNL     1      -1.480  12.971  17.788  1.00  0.00     0.188 HD
HETATM   11  C9  UNL     1      -0.702  14.720  18.692  1.00  0.00     0.128 A
HETATM   12  N5  UNL     1      -0.116  14.253  19.728  1.00  0.00    -0.384 N
ATOM     13  H51 UNL     1       0.384  14.804  20.426  1.00  0.00     0.157 HD
ATOM     14  H52 UNL     1      -0.070  13.271  20.000  1.00  0.00     0.157 HD
HETATM   15  C10 UNL     1      -0.764  16.039  18.326  1.00  0.00     0.063 A
ENDROOT
BRANCH   1  16
HETATM   16  C5  UNL     1       0.437  17.760  19.822  1.00  0.00     0.047 C
BRANCH  16  17
HETATM   17  C4  UNL     1       1.718  18.382  19.400  1.00  0.00     0.049 C
BRANCH  17  18
HETATM   18  C3  UNL     1       2.363  19.188  20.445  1.00  0.00     0.057 C
BRANCH  18  19
HETATM   19  N1  UNL     1       3.105  20.170  20.114  1.00  0.00    -0.402 N
HETATM   20  C1  UNL     1       4.131  20.586  21.043  1.00  0.00     0.148 C
HETATM   21  C2  UNL     1       2.905  20.824  18.876  1.00  0.00     0.148 C
ENDBRANCH  18  19
ENDBRANCH  17  18
ENDBRANCH  16  17
ENDBRANCH   1  16
TORSDOF 4
ENDMDL