MODEL 1
REMARK VINA RESULT: -5.609637238      0.000      0.000
REMARK  4 active torsions:
REMARK  status: ('A' for Active; 'I' for Inactive)
REMARK    1  A    between atoms: C3_5  and  O1_6
REMARK    2  A    between atoms: C6_10  and  C7_11
REMARK    3  A    between atoms: C7_11  and  C8_12
REMARK    4  A    between atoms: C9_17  and  C10_18
ROOT
HETATM    1  C1  UNL     1      -0.660  19.007  17.390  1.00  0.00     0.044 C
HETATM    2  C2  UNL     1      -0.933  17.723  17.523  1.00  0.00     0.036 A
HETATM    3  N1  UNL     1      -1.738  17.079  16.627  1.00  0.00    -0.336 N
ATOM      4  H1  UNL     1      -2.180  17.506  15.813  1.00  0.00     0.168 HD
HETATM    5  C3  UNL     1      -1.852  15.791  16.994  1.00  0.00     0.161 A
HETATM    6  C5  UNL     1      -1.117  15.615  18.128  1.00  0.00     0.074 A
HETATM    7 BR1  UNL     1      -0.941  13.973  19.058  1.00  0.00    -0.045 Br
HETATM    8  C6  UNL     1      -0.521  16.844  18.479  1.00  0.00     0.014 A
ENDROOT
BRANCH   8   9
HETATM    9  C7  UNL     1       0.240  16.988  19.515  1.00  0.00     0.048 C
BRANCH   9  10
HETATM   10  C8  UNL     1       0.117  17.849  20.665  1.00  0.00     0.072 A
HETATM   11  N2  UNL     1      -0.595  17.785  21.817  1.00  0.00    -0.299 N
HETATM   12  N3  UNL     1      -0.143  18.941  22.239  1.00  0.00    -0.302 N
ATOM     13  H2  UNL     1      -1.239  17.098  22.207  1.00  0.00     0.187 HD
HETATM   14  C9  UNL     1       0.591  19.077  21.126  1.00  0.00     0.053 A
ATOM     15  H3  UNL     1      -0.291  19.507  23.075  1.00  0.00     0.186 HD
BRANCH  14  16
HETATM   16  C10 UNL     1       1.527  20.047  20.528  1.00  0.00     0.056 C
HETATM   17  C11 UNL     1       2.954  19.644  20.716  1.00  0.00     0.011 C
ENDBRANCH  14  16
ENDBRANCH   9  10
ENDBRANCH   8   9
BRANCH   5  18
HETATM   18  O1  UNL     1      -2.612  14.886  16.269  1.00  0.00    -0.340 OA
HETATM   19  C4  UNL     1      -2.100  13.901  15.433  1.00  0.00     0.211 C
ENDBRANCH   5  18
TORSDOF 4
ENDMDL