MODEL 2
REMARK VINA RESULT: -6.254510949      1.326      4.387
REMARK  5 active torsions:
REMARK  status: ('A' for Active; 'I' for Inactive)
REMARK    1  A    between atoms: C2_2  and  S1_3
REMARK    2  A    between atoms: S1_3  and  C3_4
REMARK    3  A    between atoms: C5_8  and  C6_9
REMARK    4  A    between atoms: C8_13  and  C9_14
REMARK    5  A    between atoms: C9_14  and  C10_15
ROOT
HETATM    1  C3  UNL     1      -0.704  17.484  19.452  1.00  0.00     0.102 A
HETATM    2  N1  UNL     1       0.225  18.481  19.259  1.00  0.00    -0.335 N
ATOM      3  H1  UNL     1       0.652  19.034  20.002  1.00  0.00     0.168 HD
HETATM    4  C4  UNL     1       0.486  18.619  17.952  1.00  0.00     0.102 A
HETATM    5  C5  UNL     1       1.326  19.476  17.389  1.00  0.00     0.021 C
HETATM    6  N2  UNL     1      -0.270  17.716  17.304  1.00  0.00    -0.340 N
ATOM      7  H2  UNL     1      -0.286  17.584  16.293  1.00  0.00     0.167 HD
HETATM    8  C8  UNL     1      -1.015  17.000  18.199  1.00  0.00     0.069 A
ENDROOT
BRANCH   8   9
HETATM    9  C9  UNL     1      -1.842  16.052  17.828  1.00  0.00     0.051 C
BRANCH   9  10
HETATM   10  C10 UNL     1      -1.350  14.728  17.487  1.00  0.00     0.059 A
HETATM   11  C11 UNL     1      -1.617  14.014  16.322  1.00  0.00     0.037 A
HETATM   12  C12 UNL     1      -2.452  14.447  15.185  1.00  0.00     0.070 C
HETATM   13  N3  UNL     1      -0.967  12.832  16.405  1.00  0.00    -0.301 N
HETATM   14  N4  UNL     1      -0.306  12.753  17.552  1.00  0.00    -0.266 N
ATOM     15  H3  UNL     1      -0.983  12.105  15.689  1.00  0.00     0.186 HD
HETATM   16  C13 UNL     1      -0.529  13.898  18.222  1.00  0.00     0.272 A
ATOM     17  H4  UNL     1       0.266  11.970  17.869  1.00  0.00     0.190 HD
HETATM   18  O1  UNL     1      -0.059  14.180  19.354  1.00  0.00    -0.266 OA
ENDBRANCH   9  10
ENDBRANCH   8   9
BRANCH   1  19
HETATM   19  S1  UNL     1      -1.288  17.006  20.893  1.00  0.00    -0.083 SA
BRANCH  19  20
HETATM   20  C2  UNL     1      -1.200  17.997  22.376  1.00  0.00     0.041 C
HETATM   21  C1  UNL     1      -1.976  17.745  23.415  1.00  0.00     0.019 C
ENDBRANCH  19  20
ENDBRANCH   1  19
BRANCH   5  22
HETATM   22  C6  UNL     1       1.522  19.526  15.930  1.00  0.00     0.026 C
HETATM   23  C7  UNL     1       2.730  20.347  15.543  1.00  0.00     0.009 C
ENDBRANCH   5  22
TORSDOF 5
ENDMDL