MODEL 5
REMARK VINA RESULT: -4.707361247      3.535      5.768
REMARK  3 active torsions:
REMARK  status: ('A' for Active; 'I' for Inactive)
REMARK    1  A    between atoms: C2_2  and  C3_3
REMARK    2  A    between atoms: C3_3  and  C5_5
REMARK    3  A    between atoms: C8_8  and  N1_9
REMARK       I    between atoms: N1_9  and  C9_11
REMARK       I    between atoms: C9_11  and  N3_15
ROOT
HETATM    1  C5  UNL     1       1.969  20.757  16.688  1.00  0.00     0.023 C
HETATM    2  C6  UNL     1       2.564  21.118  18.017  1.00  0.00     0.009 C
HETATM    3  C7  UNL     1       2.361  19.685  18.429  1.00  0.00     0.038 C
HETATM    4  C8  UNL     1       1.201  19.763  17.484  1.00  0.00     0.053 C
HETATM    5  C11 UNL     1       0.291  20.699  18.299  1.00  0.00     0.048 C
HETATM    6  C12 UNL     1       1.347  21.749  18.697  1.00  0.00     0.065 C
HETATM    7 BR1  UNL     1       0.930  23.454  17.909  1.00  0.00    -0.091 Br
ENDROOT
BRANCH   4   8
HETATM    8  N1  UNL     1       0.656  18.629  16.933  1.00  0.00    -0.217 N
HETATM    9  C9  UNL     1      -0.356  17.881  17.595  1.00  0.00     0.667 C
HETATM   10  N2  UNL     1      -1.540  17.797  17.058  1.00  0.00    -0.235 N
HETATM   11  N3  UNL     1      -0.150  17.210  18.828  1.00  0.00    -0.231 N
ATOM     12  H22 UNL     1      -1.688  18.280  16.171  1.00  0.00     0.174 HD
ATOM     13  H21 UNL     1      -2.266  17.261  17.532  1.00  0.00     0.174 HD
HETATM   14  C10 UNL     1      -1.037  17.284  19.968  1.00  0.00     0.165 C
ATOM     15  H3  UNL     1       0.686  16.633  18.918  1.00  0.00     0.177 HD
ATOM     16  H1  UNL     1       0.986  18.314  16.022  1.00  0.00     0.178 HD
ENDBRANCH   4   8
BRANCH   1  17
HETATM   17  C3  UNL     1       2.828  20.382  15.580  1.00  0.00    -0.012 C
HETATM   18  C4  UNL     1       4.193  20.938  15.497  1.00  0.00     0.010 C
BRANCH  17  19
HETATM   19  C2  UNL     1       2.073  20.682  14.277  1.00  0.00     0.000 C
HETATM   20  C1  UNL     1       1.008  21.705  14.468  1.00  0.00     0.005 C
ENDBRANCH  17  19
ENDBRANCH   1  17
TORSDOF 3
ENDMDL