MODEL 2
REMARK VINA RESULT: -6.092811916      2.000      2.527
REMARK  5 active torsions:
REMARK  status: ('A' for Active; 'I' for Inactive)
REMARK    1  A    between atoms: C3_7  and  C4_8
REMARK    2  A    between atoms: C4_8  and  C5_9
REMARK    3  A    between atoms: C6_10  and  O1_11
REMARK    4  A    between atoms: C7_15  and  C8_16
REMARK    5  A    between atoms: C9_18  and  C10_19
ROOT
HETATM    1  C5  UNL     1      -1.248  16.688  18.113  1.00  0.00     0.025 A
HETATM    2  C6  UNL     1      -1.606  17.338  16.940  1.00  0.00     0.151 A
HETATM    3  N3  UNL     1      -0.999  18.538  16.964  1.00  0.00    -0.339 N
ATOM      4  H3  UNL     1      -1.076  19.243  16.230  1.00  0.00     0.168 HD
HETATM    5  C7  UNL     1      -0.277  18.677  18.089  1.00  0.00     0.028 A
HETATM    6  C9  UNL     1      -0.418  17.517  18.835  1.00  0.00    -0.021 A
ENDROOT
BRANCH   1   7
HETATM    7  C4  UNL     1      -1.715  15.356  18.463  1.00  0.00     0.049 C
BRANCH   7   8
HETATM    8  C3  UNL     1      -1.178  14.284  17.928  1.00  0.00     0.076 A
HETATM    9  C2  UNL     1      -1.434  13.529  16.776  1.00  0.00     0.066 A
HETATM   10  C1  UNL     1      -2.318  13.624  15.799  1.00  0.00     0.047 C
HETATM   11  N1  UNL     1      -0.417  12.723  17.127  1.00  0.00    -0.299 N
HETATM   12  N2  UNL     1      -0.178  13.437  18.212  1.00  0.00    -0.298 N
ATOM     13  H1  UNL     1       0.004  11.890  16.717  1.00  0.00     0.187 HD
ATOM     14  H2  UNL     1       0.502  13.371  18.971  1.00  0.00     0.187 HD
ENDBRANCH   7   8
ENDBRANCH   1   7
BRANCH   2  15
HETATM   15  O1  UNL     1      -2.416  16.896  15.921  1.00  0.00    -0.345 OA
ATOM     16  H1  UNL     1      -3.052  16.189  15.926  1.00  0.00     0.219 HD
ENDBRANCH   2  15
BRANCH   6  17
HETATM   17  C10 UNL     1       0.204  17.228  20.137  1.00  0.00     0.037 C
HETATM   18  C11 UNL     1      -0.542  17.854  21.301  1.00  0.00     0.010 C
ENDBRANCH   6  17
BRANCH   5  19
HETATM   19  C8  UNL     1       0.520  19.861  18.447  1.00  0.00     0.142 C
HETATM   20 BR1  UNL     1       2.102  20.068  17.375  1.00  0.00    -0.090 Br
ENDBRANCH   5  19
TORSDOF 5
ENDMDL