MODEL 2
REMARK VINA RESULT: -7.274108972      1.953      3.066
REMARK  4 active torsions:
REMARK  status: ('A' for Active; 'I' for Inactive)
REMARK    1  A    between atoms: C4_9  and  C5_10
REMARK    2  A    between atoms: C15_26  and  C16_27
REMARK    3  A    between atoms: C16_27  and  C17_28
REMARK    4  A    between atoms: C17_28  and  C18_29
ROOT
HETATM    1  C1  UNL     1       3.331  22.607  13.300  1.00  0.00     0.043 C
HETATM    2  C2  UNL     1       2.697  22.059  14.300  1.00  0.00     0.031 A
HETATM    3  N1  UNL     1       1.443  21.568  14.103  1.00  0.00    -0.342 N
ATOM      4  H1  UNL     1       1.028  21.640  13.175  1.00  0.00     0.167 HD
HETATM    5  C3  UNL     1       0.731  20.990  15.086  1.00  0.00     0.110 A
HETATM    6  N2  UNL     1      -0.436  20.570  14.770  1.00  0.00    -0.385 N
ATOM      7  H21 UNL     1      -0.977  20.132  15.516  1.00  0.00     0.157 HD
ATOM      8  H22 UNL     1      -0.846  20.647  13.839  1.00  0.00     0.157 HD
HETATM    9  C4  UNL     1       1.286  20.886  16.346  1.00  0.00     0.015 A
HETATM   10  C13 UNL     1       2.580  21.387  16.568  1.00  0.00    -0.040 A
HETATM   11  C14 UNL     1       3.136  21.237  17.907  1.00  0.00     0.050 C
HETATM   12  C15 UNL     1       3.288  21.977  15.546  1.00  0.00    -0.025 A
ENDROOT
BRANCH   9  13
HETATM   13  C5  UNL     1       0.606  20.328  17.316  1.00  0.00     0.031 C
HETATM   14  C6  UNL     1       0.504  18.938  17.675  1.00  0.00     0.018 A
HETATM   15  C7  UNL     1       1.292  18.244  18.572  1.00  0.00     0.018 A
HETATM   16  C12 UNL     1      -0.448  18.048  17.179  1.00  0.00     0.089 A
HETATM   17  C8  UNL     1       2.444  18.827  19.345  1.00  0.00     0.069 C
HETATM   18  N3  UNL     1       0.838  16.990  18.619  1.00  0.00    -0.356 N
HETATM   19  C9  UNL     1      -0.207  16.842  17.793  1.00  0.00     0.085 A
ATOM     20  H3  UNL     1       1.230  16.250  19.201  1.00  0.00     0.166 HD
HETATM   21  C10 UNL     1      -1.138  15.944  17.317  1.00  0.00     0.051 A
HETATM   22  C11 UNL     1      -1.274  14.491  17.699  1.00  0.00     0.072 C
HETATM   23  N4  UNL     1      -1.904  16.619  16.445  1.00  0.00    -0.302 N
HETATM   24  N5  UNL     1      -1.498  17.875  16.358  1.00  0.00    -0.297 N
ATOM     25  H4  UNL     1      -2.686  16.221  15.924  1.00  0.00     0.186 HD
ATOM     26  H5  UNL     1      -1.914  18.594  15.765  1.00  0.00     0.187 HD
ENDBRANCH   9  13
BRANCH  12  27
HETATM   27  C16 UNL     1       4.633  22.493  15.799  1.00  0.00     0.042 C
BRANCH  27  28
HETATM   28  C17 UNL     1       5.685  21.406  15.839  1.00  0.00     0.008 C
BRANCH  28  29
HETATM   29  C18 UNL     1       5.974  20.883  14.439  1.00  0.00    -0.023 C
HETATM   30  C19 UNL     1       6.536  19.479  14.488  1.00  0.00     0.009 C
HETATM   31  C20 UNL     1       7.036  21.739  13.759  1.00  0.00     0.009 C
ENDBRANCH  28  29
ENDBRANCH  27  28
ENDBRANCH  12  27
TORSDOF 4
ENDMDL