MODEL 2
REMARK VINA RESULT: -6.241838969      3.059      6.978
REMARK  7 active torsions:
REMARK  status: ('A' for Active; 'I' for Inactive)
REMARK    1  A    between atoms: C2_2  and  C3_3
REMARK    2  A    between atoms: C3_3  and  C4_4
REMARK    3  A    between atoms: C4_4  and  N1_5
REMARK       I    between atoms: C5_7  and  N2_8
REMARK       I    between atoms: C5_7  and  N3_11
REMARK    4  A    between atoms: N3_11  and  C7_13
REMARK    5  A    between atoms: C7_13  and  C8_14
REMARK    6  A    between atoms: C15_21  and  N4_22
REMARK    7  A    between atoms: N4_22  and  C16_24
ROOT
HETATM    1  C8  UNL     1       2.004  20.830  17.954  1.00  0.00    -0.021 C
HETATM    2  C9  UNL     1       1.180  21.904  17.233  1.00  0.00     0.016 C
HETATM    3  C10 UNL     1       0.072  21.284  16.447  1.00  0.00    -0.011 C
HETATM    4  C11 UNL     1       0.694  20.384  15.394  1.00  0.00     0.009 C
HETATM    5  C12 UNL     1       1.471  19.320  16.099  1.00  0.00    -0.011 C
HETATM    6  C13 UNL     1       2.607  19.965  16.868  1.00  0.00     0.016 C
HETATM    7  C14 UNL     1       0.604  18.526  17.004  1.00  0.00     0.035 C
HETATM    8  C15 UNL     1      -0.021  19.429  18.084  1.00  0.00     0.033 C
HETATM    9  C17 UNL     1      -0.827  20.447  17.312  1.00  0.00     0.035 C
HETATM   10  C18 UNL     1       1.117  20.035  18.861  1.00  0.00     0.042 C
ENDROOT
BRANCH   1  11
HETATM   11  C7  UNL     1       3.085  21.554  18.713  1.00  0.00     0.147 C
BRANCH  11  12
HETATM   12  N3  UNL     1       3.816  22.480  17.901  1.00  0.00    -0.226 N
HETATM   13  C5  UNL     1       5.203  22.716  18.060  1.00  0.00     0.669 C
HETATM   14  N1  UNL     1       6.068  22.549  17.128  1.00  0.00    -0.227 N
HETATM   15  N2  UNL     1       5.706  23.172  19.317  1.00  0.00    -0.231 N
ATOM     16  H1  UNL     1       7.048  22.746  17.331  1.00  0.00     0.177 HD
HETATM   17  C6  UNL     1       5.707  24.602  19.545  1.00  0.00     0.165 C
ATOM     18  H2  UNL     1       6.049  22.518  20.021  1.00  0.00     0.177 HD
ATOM     19  H3  UNL     1       3.315  22.993  17.175  1.00  0.00     0.177 HD
BRANCH  14  20
HETATM   20  C4  UNL     1       5.711  22.090  15.793  1.00  0.00     0.138 C
BRANCH  20  21
HETATM   21  C3  UNL     1       6.439  20.800  15.455  1.00  0.00     0.020 C
BRANCH  21  22
HETATM   22  C2  UNL     1       5.579  19.985  14.514  1.00  0.00    -0.003 C
HETATM   23  C1  UNL     1       4.474  20.783  13.903  1.00  0.00     0.005 C
ENDBRANCH  21  22
ENDBRANCH  20  21
ENDBRANCH  14  20
ENDBRANCH  11  12
ENDBRANCH   1  11
BRANCH   8  24
HETATM   24  N4  UNL     1      -0.906  18.621  18.853  1.00  0.00    -0.360 N
ATOM     25  H4  UNL     1      -1.821  19.028  19.050  1.00  0.00     0.162 HD
BRANCH  24  26
HETATM   26  C16 UNL     1      -0.686  17.337  19.376  1.00  0.00     0.181 C
HETATM   27  N5  UNL     1       0.199  17.097  20.433  1.00  0.00    -0.070 NA
HETATM   28  S1  UNL     1      -1.461  16.003  18.777  1.00  0.00    -0.044 SA
ENDBRANCH  24  26
ENDBRANCH   8  24
TORSDOF 7
ENDMDL