MODEL 1
REMARK VINA RESULT: -6.715841353      0.000      0.000
REMARK  7 active torsions:
REMARK  status: ('A' for Active; 'I' for Inactive)
REMARK       I    between atoms: N1_2  and  C2_4
REMARK       I    between atoms: C2_4  and  N2_6
REMARK    1  A    between atoms: N2_6  and  C3_8
REMARK    2  A    between atoms: C3_8  and  C4_9
REMARK    3  A    between atoms: C4_9  and  N3_10
REMARK    4  A    between atoms: C4_9  and  C12_22
REMARK    5  A    between atoms: N3_10  and  C5_12
REMARK    6  A    between atoms: C5_12  and  N4_14
REMARK    7  A    between atoms: N4_14  and  C6_16
ROOT
HETATM    1  C4  UNL     1      -0.308  17.029  17.527  1.00  0.00     0.106 C
ENDROOT
BRANCH   1   2
HETATM    2  C3  UNL     1      -0.045  17.706  18.830  1.00  0.00     0.149 C
BRANCH   2   3
HETATM    3  N2  UNL     1       1.290  17.747  19.306  1.00  0.00    -0.341 N
HETATM    4  C2  UNL     1       1.858  19.039  19.525  1.00  0.00     0.315 C
HETATM    5  N1  UNL     1       3.189  19.170  19.999  1.00  0.00    -0.347 N
HETATM    6  O1  UNL     1       1.193  20.078  19.301  1.00  0.00    -0.247 OA
HETATM    7  C1  UNL     1       3.772  20.476  20.224  1.00  0.00     0.151 C
ATOM      8  H1  UNL     1       3.742  18.333  20.185  1.00  0.00     0.163 HD
ATOM      9  H2  UNL     1       1.820  16.894  19.484  1.00  0.00     0.164 HD
ENDBRANCH   2   3
ENDBRANCH   1   2
BRANCH   1  10
HETATM   10  N3  UNL     1      -1.038  18.021  16.715  1.00  0.00    -0.361 N
ATOM     11  H3  UNL     1      -1.940  17.770  16.311  1.00  0.00     0.162 HD
BRANCH  10  12
HETATM   12  C5  UNL     1      -0.509  19.310  16.488  1.00  0.00     0.168 C
HETATM   13  S1  UNL     1      -1.410  20.659  16.835  1.00  0.00    -0.041 SA
BRANCH  12  14
HETATM   14  N4  UNL     1       0.795  19.546  15.994  1.00  0.00    -0.363 N
ATOM     15  H4  UNL     1       1.502  18.818  16.101  1.00  0.00     0.162 HD
BRANCH  14  16
HETATM   16  C6  UNL     1       1.156  20.769  15.351  1.00  0.00     0.083 C
HETATM   17  C7  UNL     1       2.163  21.530  16.196  1.00  0.00     0.025 C
HETATM   18  C8  UNL     1       3.378  20.679  16.492  1.00  0.00     0.002 C
HETATM   19  C9  UNL     1       3.866  19.962  15.252  1.00  0.00     0.000 C
HETATM   20  C10 UNL     1       3.257  20.596  13.995  1.00  0.00     0.002 C
HETATM   21  C11 UNL     1       1.754  20.416  14.001  1.00  0.00     0.025 C
ENDBRANCH  14  16
ENDBRANCH  12  14
ENDBRANCH  10  12
ENDBRANCH   1  10
BRANCH   1  22
HETATM   22  C12 UNL     1      -1.239  15.844  17.653  1.00  0.00     0.010 C
HETATM   23  C13 UNL     1      -0.601  14.565  18.019  1.00  0.00     0.007 C
HETATM   24  C14 UNL     1      -1.530  13.380  17.648  1.00  0.00     0.000 C
HETATM   25  C15 UNL     1      -1.490  13.366  16.136  1.00  0.00     0.000 C
HETATM   26  C16 UNL     1      -2.152  14.592  15.632  1.00  0.00     0.000 C
HETATM   27  C17 UNL     1      -2.211  15.769  16.513  1.00  0.00     0.007 C
ENDBRANCH   1  22
TORSDOF 7
ENDMDL