MODEL 1
REMARK VINA RESULT: -6.626296487      0.000      0.000
REMARK  9 active torsions:
REMARK  status: ('A' for Active; 'I' for Inactive)
REMARK    1  A    between atoms: C2_2  and  C3_3
REMARK    2  A    between atoms: C3_3  and  C4_4
REMARK    3  A    between atoms: C4_4  and  C5_5
REMARK    4  A    between atoms: C5_5  and  C6_6
REMARK    5  A    between atoms: C6_6  and  C7_7
REMARK    6  A    between atoms: C7_7  and  O1_8
REMARK    7  A    between atoms: N1_10  and  C8_12
REMARK    8  A    between atoms: C9_17  and  N4_18
REMARK       I    between atoms: N4_18  and  C10_20
REMARK       I    between atoms: C10_20  and  N5_22
REMARK    9  A    between atoms: N5_22  and  C11_24
ROOT
HETATM    1  C8  UNL     1       2.106  20.779  18.503  1.00  0.00     0.713 A
HETATM    2  N2  UNL     1       3.139  20.464  19.272  1.00  0.00    -0.117 N
ATOM      3  H2  UNL     1       4.075  20.865  19.220  1.00  0.00     0.206 HD
HETATM    4  N3  UNL     1       2.726  19.519  20.133  1.00  0.00    -0.117 N
ATOM      5  H3  UNL     1       3.317  19.090  20.845  1.00  0.00     0.206 HD
HETATM    6  C9  UNL     1       1.454  19.219  19.937  1.00  0.00     0.715 A
HETATM    7  N6  UNL     1       1.036  19.989  18.925  1.00  0.00    -0.019 N
ATOM      8  H6  UNL     1       0.096  19.996  18.529  1.00  0.00     0.203 HD
ENDROOT
BRANCH   6   9
HETATM    9  N4  UNL     1       0.713  18.350  20.560  1.00  0.00    -0.139 N
HETATM   10  C10 UNL     1      -0.186  17.574  19.805  1.00  0.00     0.334 C
HETATM   11  O2  UNL     1      -1.353  17.962  19.669  1.00  0.00    -0.246 OA
HETATM   12  N5  UNL     1       0.256  16.372  19.218  1.00  0.00    -0.338 N
ATOM     13  H5  UNL     1       1.229  16.091  19.340  1.00  0.00     0.164 HD
ATOM     14  H4  UNL     1       0.782  18.233  21.571  1.00  0.00     0.189 HD
BRANCH  12  15
HETATM   15  C11 UNL     1      -0.623  15.529  18.454  1.00  0.00     0.086 C
HETATM   16  C12 UNL     1      -0.796  16.134  17.072  1.00  0.00     0.025 C
HETATM   17  C13 UNL     1      -2.219  15.916  16.564  1.00  0.00     0.002 C
HETATM   18  C14 UNL     1      -2.172  14.578  15.829  1.00  0.00     0.000 C
HETATM   19  C15 UNL     1      -2.015  13.507  16.901  1.00  0.00     0.000 C
HETATM   20  C16 UNL     1      -0.561  13.365  17.206  1.00  0.00     0.002 C
HETATM   21  C17 UNL     1      -0.135  14.138  18.433  1.00  0.00     0.025 C
ENDBRANCH  12  15
ENDBRANCH   6   9
BRANCH   1  22
HETATM   22  N1  UNL     1       2.029  21.599  17.564  1.00  0.00    -0.173 N
HETATM   23  C7  UNL     1       2.077  21.454  16.212  1.00  0.00     0.131 C
ATOM     24  H1  UNL     1       1.907  22.564  17.870  1.00  0.00     0.186 HD
BRANCH  23  25
HETATM   25  C6  UNL     1       2.497  20.251  15.469  1.00  0.00     0.084 C
BRANCH  25  26
HETATM   26  C5  UNL     1       2.869  20.612  14.021  1.00  0.00     0.008 C
BRANCH  26  27
HETATM   27  C4  UNL     1       4.365  20.627  13.914  1.00  0.00     0.000 C
BRANCH  27  28
HETATM   28  C3  UNL     1       5.096  19.886  14.978  1.00  0.00    -0.000 C
BRANCH  28  29
HETATM   29  C2  UNL     1       6.508  19.647  14.426  1.00  0.00    -0.005 C
HETATM   30  C1  UNL     1       7.018  20.981  13.929  1.00  0.00     0.005 C
ENDBRANCH  28  29
ENDBRANCH  27  28
ENDBRANCH  26  27
ENDBRANCH  25  26
ENDBRANCH  23  25
BRANCH  23  31
HETATM   31  O1  UNL     1       1.704  22.503  15.528  1.00  0.00    -0.349 OA
ATOM     32  H1  UNL     1       0.958  23.001  15.840  1.00  0.00     0.219 HD
ENDBRANCH  23  31
ENDBRANCH   1  22
TORSDOF 9
ENDMDL