MODEL 1
REMARK VINA RESULT: -7.494681406      0.000      0.000
REMARK  7 active torsions:
REMARK  status: ('A' for Active; 'I' for Inactive)
REMARK    1  A    between atoms: C2_2  and  C3_3
REMARK    2  A    between atoms: N2_11  and  C10_13
REMARK    3  A    between atoms: C10_13  and  C11_14
REMARK    4  A    between atoms: C11_14  and  O1_15
REMARK    5  A    between atoms: C11_14  and  C12_17
REMARK    6  A    between atoms: C12_17  and  C14_19
REMARK    7  A    between atoms: C15_20  and  O2_21
ROOT
HETATM    1  C10 UNL     1      -0.022  18.590  18.787  1.00  0.00     0.274 C
ENDROOT
BRANCH   1   2
HETATM    2  N2  UNL     1       0.727  19.547  18.070  1.00  0.00    -0.059 N
HETATM    3  C7  UNL     1       1.885  20.101  18.683  1.00  0.00     0.236 C
HETATM    4  C6  UNL     1       2.883  20.649  17.718  1.00  0.00     0.046 A
HETATM    5  C8  UNL     1       2.640  19.232  19.641  1.00  0.00     0.047 C
HETATM    6  C5  UNL     1       2.854  20.385  16.382  1.00  0.00    -0.030 A
HETATM    7  N1  UNL     1       3.961  21.462  17.981  1.00  0.00    -0.361 N
HETATM    8  C4  UNL     1       3.951  21.065  15.847  1.00  0.00     0.034 A
HETATM    9  C20 UNL     1       1.787  19.538  15.819  1.00  0.00     0.068 C
HETATM   10  C3  UNL     1       4.611  21.719  16.864  1.00  0.00     0.009 A
HETATM   11  C19 UNL     1       1.104  18.788  16.855  1.00  0.00     0.242 C
ATOM     12  H1  UNL     1       4.219  21.814  18.903  1.00  0.00     0.165 HD
HETATM   13  C9  UNL     1      -0.062  20.669  17.565  1.00  0.00     0.273 C
BRANCH  10  14
HETATM   14  C2  UNL     1       5.826  22.551  16.702  1.00  0.00     0.052 C
HETATM   15  C1  UNL     1       5.792  23.709  17.682  1.00  0.00     0.011 C
ENDBRANCH  10  14
ENDBRANCH   1   2
BRANCH   1  16
HETATM   16  C11 UNL     1       0.182  17.130  18.552  1.00  0.00     0.173 C
BRANCH  16  17
HETATM   17  O1  UNL     1       0.806  16.472  19.601  1.00  0.00    -0.389 OA
ATOM     18  H1  UNL     1       1.688  16.180  19.404  1.00  0.00     0.210 HD
ENDBRANCH  16  17
BRANCH  16  19
HETATM   19  C12 UNL     1      -1.140  16.452  18.385  1.00  0.00    -0.039 C
HETATM   20  C13 UNL     1      -1.770  16.126  19.737  1.00  0.00     0.047 C
BRANCH  19  21
HETATM   21  C14 UNL     1      -1.326  15.426  17.403  1.00  0.00     0.025 A
HETATM   22  C15 UNL     1      -2.056  15.691  16.221  1.00  0.00     0.093 A
HETATM   23  C16 UNL     1      -2.059  14.553  15.476  1.00  0.00     0.125 A
HETATM   24  N3  UNL     1      -1.378  13.598  16.121  1.00  0.00    -0.366 N
HETATM   25  C17 UNL     1      -0.925  14.133  17.307  1.00  0.00     0.018 A
ATOM     26  H3  UNL     1      -1.222  12.645  15.793  1.00  0.00     0.165 HD
HETATM   27  C18 UNL     1      -0.112  13.297  18.221  1.00  0.00     0.069 C
BRANCH  22  28
HETATM   28  O2  UNL     1      -2.673  16.865  15.832  1.00  0.00    -0.358 OA
ATOM     29  H2  UNL     1      -2.656  17.292  14.984  1.00  0.00     0.217 HD
ENDBRANCH  22  28
ENDBRANCH  19  21
ENDBRANCH  16  19
ENDBRANCH   1  16
TORSDOF 7
ENDMDL