MODEL 4
REMARK VINA RESULT: -6.569634421      6.366     10.410
REMARK  6 active torsions:
REMARK  status: ('A' for Active; 'I' for Inactive)
REMARK    1  A    between atoms: C2_2  and  N1_5
REMARK       I    between atoms: N1_5  and  C5_7
REMARK    2  A    between atoms: C5_7  and  C6_9
REMARK    3  A    between atoms: C6_9  and  N2_12
REMARK       I    between atoms: N2_12  and  C9_14
REMARK       I    between atoms: C9_14  and  N3_16
REMARK    4  A    between atoms: N3_16  and  C10_18
REMARK    5  A    between atoms: C10_18  and  C11_19
REMARK       I    between atoms: C11_19  and  N4_21
REMARK    6  A    between atoms: N4_21  and  C12_23
ROOT
HETATM    1  N2  UNL     1      -0.391  17.732  24.982  1.00  0.00    -0.326 N
ATOM      2  H2  UNL     1       0.149  16.870  25.067  1.00  0.00     0.165 HD
HETATM    3  C9  UNL     1      -1.088  18.023  23.784  1.00  0.00     0.317 C
HETATM    4  O2  UNL     1      -1.780  19.074  23.646  1.00  0.00    -0.247 OA
HETATM    5  N3  UNL     1      -1.014  17.113  22.699  1.00  0.00    -0.334 N
ATOM      6  H3  UNL     1      -0.463  16.259  22.781  1.00  0.00     0.164 HD
ENDROOT
BRANCH   1   7
HETATM    7  C6  UNL     1      -0.453  18.660  26.074  1.00  0.00     0.108 C
HETATM    8  C7  UNL     1       0.295  18.020  27.228  1.00  0.00     0.049 C
HETATM    9  C8  UNL     1       0.150  19.999  25.702  1.00  0.00     0.049 C
BRANCH   7  10
HETATM   10  C5  UNL     1      -1.862  18.898  26.438  1.00  0.00     0.246 C
HETATM   11  N1  UNL     1      -2.752  17.801  26.525  1.00  0.00    -0.351 N
ATOM     12  H1  UNL     1      -2.406  16.860  26.333  1.00  0.00     0.163 HD
HETATM   13  O1  UNL     1      -2.257  20.059  26.664  1.00  0.00    -0.271 OA
BRANCH  11  14
HETATM   14  C2  UNL     1      -4.144  17.985  26.879  1.00  0.00     0.022 C
HETATM   15  C1  UNL     1      -4.853  16.641  26.954  1.00  0.00     0.037 C
HETATM   16  C3  UNL     1      -4.812  18.838  25.826  1.00  0.00     0.037 C
HETATM   17  C4  UNL     1      -4.329  18.657  28.218  1.00  0.00     0.037 C
ENDBRANCH  11  14
ENDBRANCH   7  10
ENDBRANCH   1   7
BRANCH   5  18
HETATM   18  C10 UNL     1      -1.720  17.405  21.483  1.00  0.00     0.227 C
BRANCH  18  19
HETATM   19  C11 UNL     1      -0.908  16.995  20.316  1.00  0.00     0.235 C
HETATM   20  O3  UNL     1       0.348  17.155  20.333  1.00  0.00    -0.272 OA
HETATM   21  N4  UNL     1      -1.563  16.427  19.199  1.00  0.00    -0.355 N
ATOM     22  H4  UNL     1      -2.576  16.303  19.195  1.00  0.00     0.162 HD
BRANCH  21  23
HETATM   23  C12 UNL     1      -0.765  16.028  18.062  1.00  0.00     0.084 C
HETATM   24  C13 UNL     1      -1.599  16.217  16.814  1.00  0.00     0.025 C
HETATM   25  C14 UNL     1      -1.574  14.993  15.920  1.00  0.00     0.002 C
HETATM   26  C15 UNL     1      -2.080  13.774  16.663  1.00  0.00     0.000 C
HETATM   27  C16 UNL     1      -1.510  13.698  18.046  1.00  0.00     0.002 C
HETATM   28  C17 UNL     1      -0.315  14.601  18.173  1.00  0.00     0.025 C
ENDBRANCH  21  23
ENDBRANCH  18  19
ENDBRANCH   5  18
TORSDOF 6
ENDMDL