MODEL 2
REMARK VINA RESULT: -6.985645874      1.250      1.574
REMARK  4 active torsions:
REMARK  status: ('A' for Active; 'I' for Inactive)
REMARK    1  A    between atoms: C2_2  and  C3_3
REMARK    2  A    between atoms: C3_3  and  N1_4
REMARK    3  A    between atoms: C6_7  and  N2_8
REMARK       I    between atoms: N2_8  and  C7_10
REMARK       I    between atoms: C7_10  and  N3_12
REMARK    4  A    between atoms: N3_12  and  C8_14
ROOT
HETATM    1  N2  UNL     1       0.206  18.084  16.327  1.00  0.00    -0.332 N
ATOM      2  H2  UNL     1       0.471  17.440  15.581  1.00  0.00     0.165 HD
HETATM    3  C7  UNL     1       0.839  19.345  16.467  1.00  0.00     0.317 C
HETATM    4  O1  UNL     1       0.500  20.133  17.400  1.00  0.00    -0.247 OA
HETATM    5  N3  UNL     1       1.855  19.691  15.536  1.00  0.00    -0.338 N
ATOM      6  H3  UNL     1       2.114  19.044  14.791  1.00  0.00     0.164 HD
ENDROOT
BRANCH   1   7
HETATM    7  C6  UNL     1      -0.831  17.740  17.281  1.00  0.00     0.155 C
HETATM    8  C5  UNL     1      -0.163  16.856  18.338  1.00  0.00     0.049 C
HETATM    9  C4  UNL     1      -1.269  16.270  19.166  1.00  0.00     0.116 C
HETATM   10  N1  UNL     1      -1.888  15.200  18.400  1.00  0.00    -0.227 NA
HETATM   11  N5  UNL     1      -2.115  15.581  17.100  1.00  0.00    -0.307 N
HETATM   12  C19 UNL     1      -1.864  16.901  16.626  1.00  0.00     0.108 C
ATOM     13  H5  UNL     1      -2.478  14.889  16.445  1.00  0.00     0.182 HD
HETATM   14  N4  UNL     1      -2.514  17.390  15.636  1.00  0.00    -0.386 N
ATOM     15  H42 UNL     1      -2.336  18.335  15.297  1.00  0.00     0.157 HD
ATOM     16  H41 UNL     1      -3.225  16.814  15.185  1.00  0.00     0.157 HD
BRANCH  10  17
HETATM   17  C3  UNL     1      -1.136  13.979  18.548  1.00  0.00     0.140 C
BRANCH  17  18
HETATM   18  C2  UNL     1      -0.983  13.236  17.283  1.00  0.00    -0.021 C
HETATM   19  C1  UNL     1       0.095  12.518  17.069  1.00  0.00     0.008 C
ENDBRANCH  17  18
ENDBRANCH  10  17
ENDBRANCH   1   7
BRANCH   5  20
HETATM   20  C8  UNL     1       2.505  20.947  15.654  1.00  0.00     0.094 C
HETATM   21  C9  UNL     1       2.467  21.643  14.300  1.00  0.00     0.009 C
HETATM   22  C10 UNL     1       3.266  20.825  13.331  1.00  0.00     0.011 C
HETATM   23  C14 UNL     1       3.009  23.060  14.414  1.00  0.00     0.011 C
HETATM   24  C11 UNL     1       4.694  20.704  13.800  1.00  0.00    -0.013 C
HETATM   25  C12 UNL     1       5.244  22.112  13.905  1.00  0.00     0.009 C
HETATM   26  C18 UNL     1       4.736  20.064  15.146  1.00  0.00     0.011 C
HETATM   27  C13 UNL     1       4.450  22.932  14.868  1.00  0.00    -0.010 C
HETATM   28  C15 UNL     1       4.420  22.304  16.244  1.00  0.00    -0.009 C
HETATM   29  C16 UNL     1       5.735  22.435  16.914  1.00  0.00     0.011 C
HETATM   30  C17 UNL     1       3.933  20.877  16.121  1.00  0.00     0.013 C
ENDBRANCH   5  20
TORSDOF 4
ENDMDL