MODEL 4
REMARK VINA RESULT: -7.024538279      5.153     10.163
REMARK  5 active torsions:
REMARK  status: ('A' for Active; 'I' for Inactive)
REMARK    1  A    between atoms: C2_2  and  C3_3
REMARK    2  A    between atoms: C3_3  and  C4_4
REMARK    3  A    between atoms: C4_4  and  C5_5
REMARK    4  A    between atoms: C5_5  and  C6_6
REMARK       I    between atoms: N3_15  and  C10_17
REMARK       I    between atoms: C10_17  and  N4_19
REMARK    5  A    between atoms: N4_19  and  C11_21
ROOT
HETATM    1  C6  UNL     1      -0.638  16.117  18.800  1.00  0.00     0.101 C
HETATM    2  C7  UNL     1      -1.240  16.964  19.893  1.00  0.00     0.146 C
HETATM    3  N1  UNL     1      -0.279  17.998  20.171  1.00  0.00    -0.372 N
ATOM      4  H1  UNL     1       0.033  18.173  21.127  1.00  0.00     0.161 HD
HETATM    5  C8  UNL     1       0.239  18.793  19.063  1.00  0.00     0.139 C
HETATM    6  N2  UNL     1       0.807  19.892  19.345  1.00  0.00    -0.383 N
ATOM      7  H21 UNL     1       1.170  20.448  18.570  1.00  0.00     0.157 HD
ATOM      8  H22 UNL     1       0.936  20.275  20.281  1.00  0.00     0.157 HD
HETATM    9  C9  UNL     1       0.055  18.246  17.727  1.00  0.00     0.149 C
HETATM   10  N3  UNL     1       0.427  18.792  16.675  1.00  0.00    -0.292 N
ATOM     11  H3  UNL     1       0.189  18.223  15.863  1.00  0.00     0.172 HD
HETATM   12  C10 UNL     1       1.055  19.919  16.308  1.00  0.00     0.322 C
HETATM   13  O1  UNL     1       0.398  20.998  16.098  1.00  0.00    -0.247 OA
HETATM   14  N4  UNL     1       2.468  20.012  16.122  1.00  0.00    -0.338 N
ATOM     15  H4  UNL     1       3.033  19.178  16.277  1.00  0.00     0.164 HD
HETATM   16  N5  UNL     1      -0.632  16.956  17.624  1.00  0.00    -0.367 N
ATOM     17  H5  UNL     1      -1.087  16.662  16.759  1.00  0.00     0.161 HD
ENDROOT
BRANCH   1  18
HETATM   18  C5  UNL     1      -1.299  14.807  18.563  1.00  0.00     0.027 C
BRANCH  18  19
HETATM   19  C4  UNL     1      -0.423  13.888  17.771  1.00  0.00     0.002 C
BRANCH  19  20
HETATM   20  C3  UNL     1      -1.305  13.081  16.825  1.00  0.00    -0.000 C
BRANCH  20  21
HETATM   21  C2  UNL     1      -1.942  14.106  15.878  1.00  0.00    -0.005 C
HETATM   22  C1  UNL     1      -2.083  13.450  14.527  1.00  0.00     0.005 C
ENDBRANCH  20  21
ENDBRANCH  19  20
ENDBRANCH  18  19
ENDBRANCH   1  18
BRANCH  14  23
HETATM   23  C11 UNL     1       3.139  21.235  15.722  1.00  0.00     0.091 C
HETATM   24  C12 UNL     1       4.560  21.200  16.180  1.00  0.00     0.030 C
HETATM   25  C13 UNL     1       5.417  20.822  14.986  1.00  0.00    -0.012 C
HETATM   26  C14 UNL     1       5.989  22.089  14.408  1.00  0.00     0.010 C
HETATM   27  C20 UNL     1       4.393  20.321  13.957  1.00  0.00     0.011 C
HETATM   28  C15 UNL     1       4.951  23.147  14.287  1.00  0.00    -0.010 C
HETATM   29  C16 UNL     1       5.104  23.869  12.941  1.00  0.00     0.005 C
HETATM   30  C18 UNL     1       3.614  22.701  13.843  1.00  0.00    -0.004 C
HETATM   31  C17 UNL     1       4.004  22.951  12.425  1.00  0.00     0.006 C
HETATM   32  C19 UNL     1       3.263  21.285  14.212  1.00  0.00     0.013 C
ENDBRANCH  14  23
TORSDOF 5
ENDMDL