MODEL 4
REMARK VINA RESULT: -6.865068082      4.005      5.562
REMARK  5 active torsions:
REMARK  status: ('A' for Active; 'I' for Inactive)
REMARK    1  A    between atoms: C2_2  and  C3_3
REMARK    2  A    between atoms: C3_3  and  N1_4
REMARK       I    between atoms: N1_4  and  C4_6
REMARK       I    between atoms: C4_6  and  N3_10
REMARK    3  A    between atoms: N3_10  and  C5_12
REMARK    4  A    between atoms: C5_12  and  C6_13
REMARK    5  A    between atoms: C10_22  and  C11_23
ROOT
HETATM    1  C6  UNL     1       1.077  19.518  19.651  1.00  0.00     0.112 C
HETATM    2  N4  UNL     1       2.128  19.723  20.644  1.00  0.00    -0.360 N
ATOM      3  H4  UNL     1       2.027  19.303  21.568  1.00  0.00     0.162 HD
HETATM    4  C7  UNL     1       3.281  20.485  20.361  1.00  0.00     0.172 C
HETATM    5  S1  UNL     1       4.247  21.024  21.562  1.00  0.00    -0.041 SA
HETATM    6  N5  UNL     1       3.563  20.761  18.999  1.00  0.00    -0.336 N
ATOM      7  H5  UNL     1       4.391  21.310  18.768  1.00  0.00     0.168 HD
HETATM    8  C8  UNL     1       2.815  20.343  18.051  1.00  0.00     0.024 C
HETATM    9  C9  UNL     1       3.215  20.699  16.654  1.00  0.00    -0.038 C
HETATM   10  C10 UNL     1       4.483  20.927  16.460  1.00  0.00    -0.009 C
HETATM   11  C15 UNL     1       2.201  20.780  15.601  1.00  0.00     0.040 C
HETATM   12  C16 UNL     1       0.977  19.926  15.922  1.00  0.00     0.005 C
HETATM   13  C17 UNL     1       0.516  20.081  17.336  1.00  0.00     0.013 C
HETATM   14  C18 UNL     1       1.605  19.548  18.261  1.00  0.00     0.060 C
ENDROOT
BRANCH   1  15
HETATM   15  C5  UNL     1       0.565  18.101  19.906  1.00  0.00     0.164 C
BRANCH  15  16
HETATM   16  N3  UNL     1       0.696  17.233  18.782  1.00  0.00    -0.225 N
HETATM   17  C4  UNL     1      -0.274  16.268  18.481  1.00  0.00     0.667 C
HETATM   18  N1  UNL     1      -1.361  16.610  17.613  1.00  0.00    -0.227 N
HETATM   19  N2  UNL     1      -0.189  15.095  18.970  1.00  0.00    -0.235 N
ATOM     20  H1  UNL     1      -1.994  17.372  17.854  1.00  0.00     0.177 HD
ATOM     21  H22 UNL     1      -0.895  14.392  18.751  1.00  0.00     0.174 HD
ATOM     22  H21 UNL     1       0.585  14.852  19.588  1.00  0.00     0.174 HD
ATOM     23  H3  UNL     1       1.517  17.316  18.183  1.00  0.00     0.177 HD
BRANCH  18  24
HETATM   24  C3  UNL     1      -1.545  15.869  16.406  1.00  0.00     0.137 C
BRANCH  24  25
HETATM   25  C2  UNL     1      -2.489  14.689  16.610  1.00  0.00     0.016 C
HETATM   26  C1  UNL     1      -1.812  13.439  16.124  1.00  0.00     0.006 C
ENDBRANCH  24  25
ENDBRANCH  18  24
ENDBRANCH  15  16
ENDBRANCH   1  15
BRANCH  10  27
HETATM   27  C11 UNL     1       5.043  21.287  15.152  1.00  0.00    -0.033 C
HETATM   28  C12 UNL     1       4.925  22.767  14.910  1.00  0.00     0.018 C
HETATM   29  C13 UNL     1       6.564  20.980  15.155  1.00  0.00     0.018 C
HETATM   30  C14 UNL     1       4.462  20.438  14.062  1.00  0.00     0.018 C
ENDBRANCH  10  27
TORSDOF 5
ENDMDL