MODEL 3
REMARK VINA RESULT: -6.226909662      1.566      2.372
REMARK  10 active torsions:
REMARK  status: ('A' for Active; 'I' for Inactive)
REMARK    1  A    between atoms: C2_2  and  C3_3
REMARK    2  A    between atoms: C3_3  and  C4_4
REMARK    3  A    between atoms: C4_4  and  N1_5
REMARK    4  A    between atoms: N1_5  and  C5_7
REMARK    5  A    between atoms: C5_7  and  N2_9
REMARK    6  A    between atoms: N2_9  and  N3_11
REMARK    7  A    between atoms: N3_11  and  C6_13
REMARK    8  A    between atoms: C6_13  and  N4_15
REMARK    9  A    between atoms: N4_15  and  C7_17
REMARK   10  A    between atoms: C7_17  and  C8_18
ROOT
HETATM    1  C6  UNL     1       0.261  19.280  16.701  1.00  0.00     0.186 C
HETATM    2  S2  UNL     1      -0.688  20.621  16.755  1.00  0.00    -0.040 SA
ENDROOT
BRANCH   1   3
HETATM    3  N3  UNL     1      -0.323  17.986  16.678  1.00  0.00    -0.274 N
ATOM      4  H3  UNL     1      -0.230  17.387  15.858  1.00  0.00     0.189 HD
BRANCH   3   5
HETATM    5  N2  UNL     1      -1.020  17.557  17.795  1.00  0.00    -0.274 N
ATOM      6  H2  UNL     1      -2.036  17.652  17.819  1.00  0.00     0.189 HD
BRANCH   5   7
HETATM    7  C5  UNL     1      -0.352  16.992  18.899  1.00  0.00     0.186 C
HETATM    8  S1  UNL     1       0.057  17.908  20.184  1.00  0.00    -0.040 SA
BRANCH   7   9
HETATM    9  N1  UNL     1      -0.030  15.626  18.905  1.00  0.00    -0.366 N
ATOM     10  H1  UNL     1       0.925  15.330  19.107  1.00  0.00     0.161 HD
BRANCH   9  11
HETATM   11  C4  UNL     1      -1.041  14.643  18.630  1.00  0.00     0.122 C
BRANCH  11  12
HETATM   12  C3  UNL     1      -0.578  13.696  17.559  1.00  0.00     0.019 C
BRANCH  12  13
HETATM   13  C2  UNL     1      -1.725  13.442  16.593  1.00  0.00    -0.003 C
HETATM   14  C1  UNL     1      -2.057  14.711  15.815  1.00  0.00     0.005 C
ENDBRANCH  12  13
ENDBRANCH  11  12
ENDBRANCH   9  11
ENDBRANCH   7   9
ENDBRANCH   5   7
ENDBRANCH   3   5
ENDBRANCH   1   3
BRANCH   1  15
HETATM   15  N4  UNL     1       1.664  19.400  16.679  1.00  0.00    -0.365 N
ATOM     16  H4  UNL     1       2.245  18.666  16.273  1.00  0.00     0.161 HD
BRANCH  15  17
HETATM   17  C7  UNL     1       2.265  20.593  17.246  1.00  0.00     0.131 C
BRANCH  17  18
HETATM   18  C8  UNL     1       3.316  21.113  16.300  1.00  0.00    -0.023 C
HETATM   19  C9  UNL     1       2.837  22.260  15.464  1.00  0.00     0.015 C
HETATM   20  C10 UNL     1       3.957  22.645  14.518  1.00  0.00    -0.013 C
HETATM   21  C11 UNL     1       4.319  21.493  13.624  1.00  0.00     0.009 C
HETATM   22  C15 UNL     1       5.152  23.092  15.325  1.00  0.00     0.009 C
HETATM   23  C12 UNL     1       4.832  20.356  14.463  1.00  0.00    -0.013 C
HETATM   24  C13 UNL     1       6.017  20.781  15.315  1.00  0.00     0.009 C
HETATM   25  C17 UNL     1       3.739  19.930  15.421  1.00  0.00     0.015 C
HETATM   26  C14 UNL     1       5.638  21.949  16.173  1.00  0.00    -0.013 C
HETATM   27  C16 UNL     1       4.507  21.553  17.099  1.00  0.00     0.015 C
ENDBRANCH  17  18
ENDBRANCH  15  17
ENDBRANCH   1  15
TORSDOF 10
ENDMDL