MODEL 5
REMARK VINA RESULT: -6.967809972      1.839      2.426
REMARK  14 active torsions:
REMARK  status: ('A' for Active; 'I' for Inactive)
REMARK    1  A    between atoms: C2_2  and  C3_3
REMARK    2  A    between atoms: C3_3  and  C4_4
REMARK    3  A    between atoms: C4_4  and  C5_5
REMARK    4  A    between atoms: C6_6  and  O1_7
REMARK    5  A    between atoms: C8_10  and  O2_11
REMARK    6  A    between atoms: O2_11  and  C9_12
REMARK    7  A    between atoms: C13_16  and  O3_17
REMARK    8  A    between atoms: O3_17  and  C14_18
REMARK    9  A    between atoms: C15_19  and  O4_20
REMARK   10  A    between atoms: C17_24  and  O6_25
REMARK   11  A    between atoms: C19_29  and  C20_30
REMARK   12  A    between atoms: C20_30  and  O8_31
REMARK   13  A    between atoms: C21_33  and  O9_34
REMARK   14  A    between atoms: C22_36  and  O10_37
ROOT
HETATM    1  C5  UNL     1      -2.641  -2.668   7.555  1.00  0.00     0.045 C
HETATM    2  C6  UNL     1      -3.856  -2.379   6.705  1.00  0.00     0.143 C
HETATM    3  C7  UNL     1      -4.500  -3.609   7.231  1.00  0.00     0.090 C
HETATM    4  C8  UNL     1      -5.539  -3.508   8.281  1.00  0.00     0.277 C
HETATM    5  O7  UNL     1      -6.767  -3.729   7.692  1.00  0.00    -0.350 OA
HETATM    6  C19 UNL     1      -6.621  -4.309   6.469  1.00  0.00     0.178 C
HETATM    7  C21 UNL     1      -5.155  -4.503   6.202  1.00  0.00     0.167 C
HETATM    8  C22 UNL     1      -3.134  -4.091   7.687  1.00  0.00     0.143 C
ENDROOT
BRANCH   4   9
HETATM    9  O2  UNL     1      -5.570  -2.362   9.029  1.00  0.00    -0.354 OA
BRANCH   9  10
HETATM   10  C9  UNL     1      -6.453  -2.385  10.081  1.00  0.00     0.131 C
HETATM   11  C10 UNL     1      -6.369  -0.991  10.725  1.00  0.00     0.033 C
HETATM   12  C11 UNL     1      -5.205  -1.096  11.647  1.00  0.00     0.010 C
HETATM   13  C12 UNL     1      -5.317  -2.490  12.171  1.00  0.00     0.024 A
HETATM   14  C13 UNL     1      -6.674  -2.956  12.551  1.00  0.00     0.134 A
HETATM   15  C18 UNL     1      -6.103  -3.287  11.213  1.00  0.00     0.050 A
BRANCH  14  16
HETATM   16  O3  UNL     1      -6.698  -3.885  13.572  1.00  0.00    -0.372 OA
BRANCH  16  17
HETATM   17  C14 UNL     1      -7.857  -3.764  14.286  1.00  0.00     0.207 C
HETATM   18  C15 UNL     1      -8.706  -5.007  14.317  1.00  0.00     0.175 C
HETATM   19  C16 UNL     1      -9.480  -4.806  15.600  1.00  0.00     0.205 C
HETATM   20  O5  UNL     1      -8.768  -3.973  16.414  1.00  0.00    -0.356 OA
HETATM   21  C17 UNL     1      -7.621  -3.564  15.785  1.00  0.00     0.288 C
BRANCH  18  22
HETATM   22  O4  UNL     1      -9.550  -5.112  13.223  1.00  0.00    -0.391 OA
ATOM     23  H4  UNL     1     -10.016  -5.940  13.192  1.00  0.00     0.210 HD
ENDBRANCH  18  22
BRANCH  21  24
HETATM   24  O6  UNL     1      -6.566  -4.371  16.207  1.00  0.00    -0.369 OA
ATOM     25  H6  UNL     1      -6.168  -3.998  16.985  1.00  0.00     0.212 HD
ENDBRANCH  21  24
ENDBRANCH  16  17
ENDBRANCH  14  16
ENDBRANCH   9  10
ENDBRANCH   4   9
BRANCH   2  26
HETATM   26  O1  UNL     1      -3.573  -2.553   5.330  1.00  0.00    -0.394 OA
ATOM     27  H1  UNL     1      -4.369  -2.670   4.826  1.00  0.00     0.210 HD
ENDBRANCH   2  26
BRANCH   7  28
HETATM   28  O9  UNL     1      -4.830  -5.836   6.363  1.00  0.00    -0.392 OA
ATOM     29  H9  UNL     1      -5.180  -6.207   7.164  1.00  0.00     0.210 HD
ENDBRANCH   7  28
BRANCH   8  30
HETATM   30  O10 UNL     1      -2.475  -4.886   6.752  1.00  0.00    -0.394 OA
ATOM     31  H10 UNL     1      -3.051  -5.028   6.009  1.00  0.00     0.210 HD
ENDBRANCH   8  30
BRANCH   6  32
HETATM   32  C20 UNL     1      -7.367  -5.631   6.455  1.00  0.00     0.198 C
BRANCH  32  33
HETATM   33  O8  UNL     1      -7.627  -6.018   5.164  1.00  0.00    -0.398 OA
ATOM     34  H8  UNL     1      -7.887  -6.931   5.139  1.00  0.00     0.209 HD
ENDBRANCH  32  33
ENDBRANCH   6  32
BRANCH   1  35
HETATM   35  C4  UNL     1      -1.331  -2.514   6.841  1.00  0.00     0.010 C
BRANCH  35  36
HETATM   36  C3  UNL     1      -0.204  -2.634   7.815  1.00  0.00     0.000 C
BRANCH  36  37
HETATM   37  C2  UNL     1       1.149  -2.585   7.097  1.00  0.00    -0.005 C
HETATM   38  C1  UNL     1       1.599  -3.993   6.771  1.00  0.00     0.005 C
ENDBRANCH  36  37
ENDBRANCH  35  36
ENDBRANCH   1  35
TORSDOF 14
ENDMDL