MODEL 4
REMARK VINA RESULT: -7.716653538      2.088      2.866
REMARK  12 active torsions:
REMARK  status: ('A' for Active; 'I' for Inactive)
REMARK    1  A    between atoms: C2_2  and  C3_3
REMARK    2  A    between atoms: C4_5  and  C5_6
REMARK    3  A    between atoms: C5_6  and  N1_7
REMARK       I    between atoms: N1_7  and  C6_9
REMARK    4  A    between atoms: C6_9  and  C7_11
REMARK    5  A    between atoms: C7_11  and  C8_13
REMARK    6  A    between atoms: C10_15  and  O4_16
REMARK    7  A    between atoms: C11_18  and  O5_19
REMARK    8  A    between atoms: C12_21  and  S1_22
REMARK    9  A    between atoms: S1_22  and  C13_23
REMARK   10  A    between atoms: C18_29  and  O7_30
REMARK   11  A    between atoms: C19_32  and  O8_33
REMARK   12  A    between atoms: C20_35  and  O9_36
ROOT
HETATM    1  N1  UNL     1      -6.326  -3.201  13.980  1.00  0.00    -0.352 N
ATOM      2  H1  UNL     1      -6.161  -2.264  14.347  1.00  0.00     0.162 HD
HETATM    3  C6  UNL     1      -6.453  -3.394  12.558  1.00  0.00     0.290 C
HETATM    4  O2  UNL     1      -6.654  -4.534  12.083  1.00  0.00    -0.264 OA
ENDROOT
BRANCH   3   5
HETATM    5  C7  UNL     1      -6.348  -2.265  11.681  1.00  0.00     0.245 C
HETATM    6  O3  UNL     1      -6.884  -1.160  11.992  1.00  0.00    -0.284 OA
BRANCH   5   7
HETATM    7  C8  UNL     1      -5.621  -2.285  10.367  1.00  0.00     0.205 C
HETATM    8  C9  UNL     1      -4.540  -3.314  10.362  1.00  0.00     0.074 C
HETATM    9  C10 UNL     1      -3.645  -3.118   9.176  1.00  0.00     0.153 C
HETATM   10  C11 UNL     1      -4.267  -2.096   8.243  1.00  0.00     0.185 C
HETATM   11  C12 UNL     1      -4.386  -0.822   9.030  1.00  0.00     0.215 C
HETATM   12  O6  UNL     1      -5.231  -0.998  10.117  1.00  0.00    -0.359 OA
BRANCH   9  13
HETATM   13  O4  UNL     1      -3.338  -4.262   8.484  1.00  0.00    -0.393 OA
ATOM     14  H4  UNL     1      -2.418  -4.500   8.487  1.00  0.00     0.210 HD
ENDBRANCH   9  13
BRANCH  10  15
HETATM   15  O5  UNL     1      -3.521  -1.880   7.104  1.00  0.00    -0.390 OA
ATOM     16  H5  UNL     1      -3.488  -2.637   6.531  1.00  0.00     0.210 HD
ENDBRANCH  10  15
BRANCH  11  17
HETATM   17  S1  UNL     1      -2.751  -0.298   9.562  1.00  0.00    -0.130 SA
BRANCH  17  18
HETATM   18  C13 UNL     1      -2.256   1.289   8.883  1.00  0.00     0.050 C
HETATM   19  C14 UNL     1      -0.856   1.152   8.294  1.00  0.00     0.015 C
HETATM   20  C15 UNL     1      -0.173   2.473   8.648  1.00  0.00     0.001 C
HETATM   21  C16 UNL     1      -0.670   2.691  10.064  1.00  0.00     0.001 C
HETATM   22  C17 UNL     1      -2.123   2.291   9.992  1.00  0.00     0.015 C
ENDBRANCH  17  18
ENDBRANCH  11  17
ENDBRANCH   5   7
ENDBRANCH   3   5
BRANCH   1  23
HETATM   23  C5  UNL     1      -6.428  -4.316  14.896  1.00  0.00     0.157 C
BRANCH  23  24
HETATM   24  C4  UNL     1      -7.810  -4.375  15.440  1.00  0.00     0.171 C
HETATM   25  O1  UNL     1      -8.616  -5.166  14.630  1.00  0.00    -0.374 OA
HETATM   26  C3  UNL     1      -9.886  -5.344  15.072  1.00  0.00     0.153 C
HETATM   27  C20 UNL     1     -10.384  -4.464  16.145  1.00  0.00     0.178 C
HETATM   28  C19 UNL     1      -9.674  -3.193  16.400  1.00  0.00     0.180 C
HETATM   29  C18 UNL     1      -8.489  -3.015  15.473  1.00  0.00     0.180 C
BRANCH  26  30
HETATM   30  C2  UNL     1     -10.819  -5.166  13.865  1.00  0.00     0.030 C
HETATM   31  C1  UNL     1     -12.191  -5.621  14.312  1.00  0.00     0.007 C
ENDBRANCH  26  30
BRANCH  27  32
HETATM   32  O9  UNL     1     -10.348  -5.212  17.348  1.00  0.00    -0.390 OA
ATOM     33  H9  UNL     1      -9.520  -5.017  17.774  1.00  0.00     0.210 HD
ENDBRANCH  27  32
BRANCH  28  34
HETATM   34  O8  UNL     1      -9.137  -3.124  17.707  1.00  0.00    -0.390 OA
ATOM     35  H8  UNL     1      -8.944  -4.024  17.946  1.00  0.00     0.210 HD
ENDBRANCH  28  34
BRANCH  29  36
HETATM   36  O7  UNL     1      -7.627  -2.018  15.916  1.00  0.00    -0.390 OA
ATOM     37  H7  UNL     1      -7.047  -1.721  15.225  1.00  0.00     0.210 HD
ENDBRANCH  29  36
ENDBRANCH  23  24
ENDBRANCH   1  23
TORSDOF 12
ENDMDL