MODEL 3
REMARK VINA RESULT: -6.695588202      1.953      6.388
REMARK  15 active torsions:
REMARK  status: ('A' for Active; 'I' for Inactive)
REMARK    1  A    between atoms: N1_1  and  C1_5
REMARK    2  A    between atoms: C3_7  and  N2_8
REMARK    3  A    between atoms: C4_12  and  O1_13
REMARK    4  A    between atoms: O1_13  and  C5_14
REMARK    5  A    between atoms: C7_16  and  C8_17
REMARK    6  A    between atoms: C8_17  and  O2_18
REMARK    7  A    between atoms: C9_21  and  O4_22
REMARK    8  A    between atoms: O4_22  and  C10_23
REMARK    9  A    between atoms: C16_29  and  O5_30
REMARK   10  A    between atoms: C17_32  and  O6_33
REMARK   11  A    between atoms: C18_35  and  O7_36
REMARK   12  A    between atoms: O7_36  and  C19_37
REMARK   13  A    between atoms: C19_37  and  C20_38
REMARK   14  A    between atoms: C21_39  and  C22_40
REMARK   15  A    between atoms: C22_40  and  O8_41
ROOT
HETATM    1  C1  UNL     1      -7.255  -3.952   6.979  1.00  0.00     0.217 C
HETATM    2  C2  UNL     1      -6.629  -5.026   6.078  1.00  0.00     0.071 C
HETATM    3  C3  UNL     1      -5.254  -4.487   5.748  1.00  0.00     0.217 C
HETATM    4  C4  UNL     1      -4.402  -4.189   6.922  1.00  0.00     0.183 C
HETATM    5  C17 UNL     1      -5.070  -4.063   8.241  1.00  0.00     0.180 C
HETATM    6  C18 UNL     1      -6.540  -4.060   8.296  1.00  0.00     0.184 C
ENDROOT
BRANCH   4   7
HETATM    7  O1  UNL     1      -3.707  -2.995   6.624  1.00  0.00    -0.373 OA
BRANCH   7   8
HETATM    8  C5  UNL     1      -2.429  -2.960   7.122  1.00  0.00     0.158 C
HETATM    9  C6  UNL     1      -1.496  -2.595   5.991  1.00  0.00     0.069 C
HETATM   10  C7  UNL     1      -0.161  -2.120   6.472  1.00  0.00     0.150 C
HETATM   11  O3  UNL     1      -0.392  -0.964   7.213  1.00  0.00    -0.351 OA
HETATM   12  C9  UNL     1      -1.087  -1.227   8.387  1.00  0.00     0.291 C
HETATM   13  C16 UNL     1      -2.366  -1.960   8.222  1.00  0.00     0.202 C
BRANCH  10  14
HETATM   14  C8  UNL     1       0.584  -3.164   7.258  1.00  0.00     0.196 C
BRANCH  14  15
HETATM   15  O2  UNL     1       0.893  -4.205   6.371  1.00  0.00    -0.398 OA
ATOM     16  H2  UNL     1       1.840  -4.278   6.344  1.00  0.00     0.209 HD
ENDBRANCH  14  15
ENDBRANCH  10  14
BRANCH  12  17
HETATM   17  O4  UNL     1      -1.364   0.017   8.962  1.00  0.00    -0.353 OA
BRANCH  17  18
HETATM   18  C10 UNL     1      -2.668   0.436   8.747  1.00  0.00     0.124 C
HETATM   19  C11 UNL     1      -2.572   1.900   8.294  1.00  0.00     0.032 C
HETATM   20  C12 UNL     1      -1.453   2.499   9.140  1.00  0.00     0.002 C
HETATM   21  C13 UNL     1      -1.697   2.374  10.603  1.00  0.00     0.000 C
HETATM   22  C14 UNL     1      -2.260   1.073  11.052  1.00  0.00     0.002 C
HETATM   23  C15 UNL     1      -3.318   0.509  10.134  1.00  0.00     0.032 C
ENDBRANCH  17  18
ENDBRANCH  12  17
BRANCH  13  24
HETATM   24  O5  UNL     1      -2.677  -2.565   9.461  1.00  0.00    -0.388 OA
ATOM     25  H5  UNL     1      -3.554  -2.326   9.737  1.00  0.00     0.210 HD
ENDBRANCH  13  24
ENDBRANCH   7   8
ENDBRANCH   4   7
BRANCH   3  26
HETATM   26  N2  UNL     1      -4.558  -5.390   4.831  1.00  0.00    -0.072 N
ATOM     27  H23 UNL     1      -4.957  -6.329   4.848  1.00  0.00     0.274 HD
ATOM     28  H22 UNL     1      -4.749  -5.162   3.856  1.00  0.00     0.274 HD
ATOM     29  H21 UNL     1      -3.558  -5.399   5.031  1.00  0.00     0.274 HD
ENDBRANCH   3  26
BRANCH   5  30
HETATM   30  O6  UNL     1      -4.619  -5.137   9.051  1.00  0.00    -0.390 OA
ATOM     31  H6  UNL     1      -5.373  -5.681   9.249  1.00  0.00     0.210 HD
ENDBRANCH   5  30
BRANCH   6  32
HETATM   32  O7  UNL     1      -6.980  -3.006   9.097  1.00  0.00    -0.369 OA
BRANCH  32  33
HETATM   33  C19 UNL     1      -5.957  -2.326   9.717  1.00  0.00     0.262 C
BRANCH  33  34
HETATM   34  C20 UNL     1      -6.134  -2.456  11.160  1.00  0.00    -0.078 C
HETATM   35  C21 UNL     1      -6.296  -2.550  12.353  1.00  0.00    -0.079 C
BRANCH  35  36
HETATM   36  C22 UNL     1      -6.489  -2.646  13.800  1.00  0.00     0.257 C
BRANCH  36  37
HETATM   37  O8  UNL     1      -5.418  -3.290  14.433  1.00  0.00    -0.389 OA
ATOM     38  H8  UNL     1      -5.391  -3.105  15.364  1.00  0.00     0.210 HD
ENDBRANCH  36  37
ENDBRANCH  35  36
ENDBRANCH  33  34
ENDBRANCH  32  33
ENDBRANCH   6  32
BRANCH   1  39
HETATM   39  N1  UNL     1      -7.057  -2.644   6.439  1.00  0.00    -0.072 N
ATOM     40  H13 UNL     1      -6.918  -1.952   7.175  1.00  0.00     0.274 HD
ATOM     41  H12 UNL     1      -6.153  -2.563   5.973  1.00  0.00     0.274 HD
ATOM     42  H11 UNL     1      -7.823  -2.382   5.818  1.00  0.00     0.274 HD
ENDBRANCH   1  39
TORSDOF 15
ENDMDL