MODEL 2
REMARK VINA RESULT: -8.625023606      2.868      8.240
REMARK  11 active torsions:
REMARK  status: ('A' for Active; 'I' for Inactive)
REMARK    1  A    between atoms: C4_4  and  O1_5
REMARK    2  A    between atoms: O1_5  and  C5_6
REMARK    3  A    between atoms: C5_6  and  C6_7
REMARK    4  A    between atoms: C7_9  and  O3_10
REMARK    5  A    between atoms: C8_12  and  O4_13
REMARK    6  A    between atoms: C9_15  and  O5_16
REMARK    7  A    between atoms: C10_18  and  O6_19
REMARK    8  A    between atoms: C12_23  and  O8_24
REMARK    9  A    between atoms: O8_24  and  C13_25
REMARK   10  A    between atoms: C17_29  and  C18_30
REMARK   11  A    between atoms: C18_30  and  C19_31
REMARK       I    between atoms: C19_31  and  N1_33
ROOT
HETATM    1  C19 UNL     1      -5.767  -2.301   9.307  1.00  0.00     0.233 C
HETATM    2  O9  UNL     1      -6.572  -3.154   9.744  1.00  0.00    -0.272 OA
HETATM    3  N1  UNL     1      -5.668  -1.068  10.003  1.00  0.00    -0.264 N
ATOM      4  H1  UNL     1      -5.019  -0.356   9.669  1.00  0.00     0.181 HD
HETATM    5  C20 UNL     1      -6.437  -0.811  11.131  1.00  0.00     0.184 C
HETATM    6  N2  UNL     1      -7.073  -0.583  12.083  1.00  0.00    -0.172 NA
ENDROOT
BRANCH   1   7
HETATM    7  C18 UNL     1      -4.966  -2.594   8.117  1.00  0.00     0.135 C
BRANCH   7   8
HETATM    8  C17 UNL     1      -3.556  -3.000   8.345  1.00  0.00     0.133 C
HETATM    9  C16 UNL     1      -2.581  -2.663   7.277  1.00  0.00     0.033 C
HETATM   10  C15 UNL     1      -3.050  -3.328   6.002  1.00  0.00     0.007 C
HETATM   11  C14 UNL     1      -3.505  -4.735   6.285  1.00  0.00     0.061 C
HETATM   12  C13 UNL     1      -3.248  -5.203   7.689  1.00  0.00     0.263 C
HETATM   13  O10 UNL     1      -3.559  -4.344   8.689  1.00  0.00    -0.355 OA
BRANCH  12  14
HETATM   14  O8  UNL     1      -4.049  -6.360   7.849  1.00  0.00    -0.328 OA
BRANCH  14  15
HETATM   15  C12 UNL     1      -4.752  -6.320   9.049  1.00  0.00     0.292 C
HETATM   16  C2  UNL     1      -6.185  -6.545   8.761  1.00  0.00    -0.032 C
HETATM   17  C1  UNL     1      -6.855  -5.910   7.840  1.00  0.00     0.019 C
HETATM   18  C3  UNL     1      -6.859  -7.575   9.612  1.00  0.00     0.072 C
HETATM   19  C4  UNL     1      -6.358  -7.330  11.014  1.00  0.00     0.149 C
HETATM   20  C11 UNL     1      -4.822  -7.503  11.043  1.00  0.00     0.203 C
HETATM   21  O7  UNL     1      -4.318  -7.446   9.775  1.00  0.00    -0.355 OA
BRANCH  19  22
HETATM   22  O1  UNL     1      -6.559  -6.015  11.358  1.00  0.00    -0.381 OA
BRANCH  22  23
HETATM   23  C5  UNL     1      -6.666  -5.765  12.691  1.00  0.00     0.203 C
BRANCH  23  24
HETATM   24  C6  UNL     1      -6.855  -4.310  13.010  1.00  0.00     0.179 C
HETATM   25  O2  UNL     1      -8.217  -4.119  13.192  1.00  0.00    -0.349 OA
HETATM   26  C7  UNL     1      -8.729  -4.481  14.401  1.00  0.00     0.288 C
HETATM   27  C8  UNL     1      -8.180  -3.465  15.414  1.00  0.00     0.204 C
HETATM   28  C9  UNL     1      -6.698  -3.756  15.488  1.00  0.00     0.183 C
HETATM   29  C10 UNL     1      -6.033  -3.843  14.170  1.00  0.00     0.180 C
BRANCH  26  30
HETATM   30  O3  UNL     1     -10.123  -4.417  14.362  1.00  0.00    -0.369 OA
ATOM     31  H3  UNL     1     -10.406  -3.515  14.456  1.00  0.00     0.212 HD
ENDBRANCH  26  30
BRANCH  27  32
HETATM   32  O4  UNL     1      -8.330  -2.217  14.830  1.00  0.00    -0.388 OA
ATOM     33  H4  UNL     1      -7.588  -2.107  14.247  1.00  0.00     0.210 HD
ENDBRANCH  27  32
BRANCH  28  34
HETATM   34  O5  UNL     1      -6.563  -4.928  16.244  1.00  0.00    -0.390 OA
ATOM     35  H5  UNL     1      -5.835  -5.408  15.866  1.00  0.00     0.210 HD
ENDBRANCH  28  34
BRANCH  29  36
HETATM   36  O6  UNL     1      -5.514  -2.560  13.873  1.00  0.00    -0.390 OA
ATOM     37  H6  UNL     1      -4.648  -2.485  14.256  1.00  0.00     0.210 HD
ENDBRANCH  29  36
ENDBRANCH  23  24
ENDBRANCH  22  23
ENDBRANCH  19  22
ENDBRANCH  14  15
ENDBRANCH  12  14
ENDBRANCH   7   8
ENDBRANCH   1   7
TORSDOF 11
ENDMDL