MODEL 5
REMARK VINA RESULT: -8.672536052      2.775      8.605
REMARK  13 active torsions:
REMARK  status: ('A' for Active; 'I' for Inactive)
REMARK       I    between atoms: C1_2  and  N1_3
REMARK    1  A    between atoms: C1_2  and  O3_14
REMARK    2  A    between atoms: N1_3  and  C2_5
REMARK    3  A    between atoms: C2_5  and  C3_6
REMARK    4  A    between atoms: C8_11  and  O2_12
REMARK    5  A    between atoms: O3_14  and  C9_15
REMARK    6  A    between atoms: C9_15  and  C10_16
REMARK    7  A    between atoms: C14_20  and  O4_21
REMARK    8  A    between atoms: O4_21  and  C15_22
REMARK    9  A    between atoms: C16_24  and  C17_25
REMARK   10  A    between atoms: C17_25  and  O6_26
REMARK   11  A    between atoms: C18_28  and  O7_29
REMARK   12  A    between atoms: C19_31  and  O8_32
REMARK   13  A    between atoms: C20_34  and  O9_35
ROOT
HETATM    1  C10 UNL     1      -3.860  -5.425   7.240  1.00  0.00     0.149 C
HETATM    2  C11 UNL     1      -5.009  -4.840   6.473  1.00  0.00     0.034 C
HETATM    3  C12 UNL     1      -6.316  -5.463   6.913  1.00  0.00     0.007 C
HETATM    4  C13 UNL     1      -6.033  -6.252   8.189  1.00  0.00     0.061 C
HETATM    5  C14 UNL     1      -5.236  -5.320   9.092  1.00  0.00     0.263 C
HETATM    6  O10 UNL     1      -3.947  -5.234   8.602  1.00  0.00    -0.354 OA
ENDROOT
BRANCH   5   7
HETATM    7  O4  UNL     1      -5.193  -5.751  10.397  1.00  0.00    -0.329 OA
BRANCH   7   8
HETATM    8  C15 UNL     1      -5.952  -4.965  11.256  1.00  0.00     0.294 C
HETATM    9  O5  UNL     1      -5.452  -3.670  11.378  1.00  0.00    -0.348 OA
HETATM   10  C16 UNL     1      -6.398  -2.927  12.068  1.00  0.00     0.179 C
HETATM   11  C18 UNL     1      -6.625  -3.414  13.469  1.00  0.00     0.180 C
HETATM   12  C19 UNL     1      -6.894  -4.891  13.517  1.00  0.00     0.183 C
HETATM   13  C20 UNL     1      -5.880  -5.603  12.636  1.00  0.00     0.204 C
BRANCH  10  14
HETATM   14  C17 UNL     1      -6.005  -1.466  12.126  1.00  0.00     0.198 C
BRANCH  14  15
HETATM   15  O6  UNL     1      -7.075  -0.736  11.559  1.00  0.00    -0.398 OA
ATOM     16  H6  UNL     1      -7.583  -0.392  12.284  1.00  0.00     0.209 HD
ENDBRANCH  14  15
ENDBRANCH  10  14
BRANCH  11  17
HETATM   17  O7  UNL     1      -5.504  -3.150  14.263  1.00  0.00    -0.390 OA
ATOM     18  H7  UNL     1      -5.618  -2.335  14.735  1.00  0.00     0.210 HD
ENDBRANCH  11  17
BRANCH  12  19
HETATM   19  O8  UNL     1      -6.682  -5.308  14.843  1.00  0.00    -0.390 OA
ATOM     20  H8  UNL     1      -5.762  -5.531  14.923  1.00  0.00     0.210 HD
ENDBRANCH  12  19
BRANCH  13  21
HETATM   21  O9  UNL     1      -4.623  -5.333  13.157  1.00  0.00    -0.388 OA
ATOM     22  H9  UNL     1      -4.190  -6.164  13.305  1.00  0.00     0.210 HD
ENDBRANCH  13  21
ENDBRANCH   7   8
ENDBRANCH   5   7
BRANCH   1  23
HETATM   23  C9  UNL     1      -2.584  -4.751   6.736  1.00  0.00     0.212 C
BRANCH  23  24
HETATM   24  O3  UNL     1      -2.033  -3.939   7.749  1.00  0.00    -0.302 OA
BRANCH  24  25
HETATM   25  C1  UNL     1      -2.497  -2.647   7.892  1.00  0.00     0.360 C
HETATM   26  O1  UNL     1      -2.266  -1.828   6.968  1.00  0.00    -0.239 OA
HETATM   27  N1  UNL     1      -3.223  -2.204   9.030  1.00  0.00    -0.336 N
ATOM     28  H1  UNL     1      -3.416  -2.862   9.785  1.00  0.00     0.164 HD
BRANCH  27  29
HETATM   29  C2  UNL     1      -3.693  -0.843   9.140  1.00  0.00     0.132 C
BRANCH  29  30
HETATM   30  C3  UNL     1      -2.671   0.007   9.838  1.00  0.00     0.032 C
HETATM   31  C4  UNL     1      -3.291   0.787  10.992  1.00  0.00     0.009 C
HETATM   32  C5  UNL     1      -2.138   1.513  11.682  1.00  0.00     0.001 C
HETATM   33  C6  UNL     1      -1.517   2.532  10.749  1.00  0.00     0.002 C
HETATM   34  C7  UNL     1      -2.054   2.405   9.345  1.00  0.00     0.032 C
HETATM   35  C8  UNL     1      -2.078   0.972   8.869  1.00  0.00     0.123 C
BRANCH  35  36
HETATM   36  O2  UNL     1      -0.805   0.530   8.502  1.00  0.00    -0.395 OA
ATOM     37  H2  UNL     1      -0.194   0.720   9.205  1.00  0.00     0.210 HD
ENDBRANCH  35  36
ENDBRANCH  29  30
ENDBRANCH  27  29
ENDBRANCH  24  25
ENDBRANCH  23  24
ENDBRANCH   1  23
TORSDOF 13
ENDMDL