MODEL 3
REMARK VINA RESULT: -7.735860654      2.232      4.086
REMARK  15 active torsions:
REMARK  status: ('A' for Active; 'I' for Inactive)
REMARK    1  A    between atoms: C2_2  and  N2_6
REMARK    2  A    between atoms: N2_6  and  C3_8
REMARK    3  A    between atoms: C4_9  and  O1_10
REMARK    4  A    between atoms: O1_10  and  C5_11
REMARK    5  A    between atoms: C5_11  and  C6_13
REMARK    6  A    between atoms: C6_13  and  N3_14
REMARK    7  A    between atoms: C6_13  and  C7_18
REMARK    8  A    between atoms: C7_18  and  C8_20
REMARK       I    between atoms: C8_20  and  N4_22
REMARK    9  A    between atoms: N4_22  and  C9_24
REMARK   10  A    between atoms: C15_31  and  C16_32
REMARK   11  A    between atoms: C16_32  and  N5_33
REMARK   12  A    between atoms: N5_33  and  N6_35
REMARK   13  A    between atoms: N6_35  and  N7_36
REMARK   14  A    between atoms: C17_39  and  O6_40
REMARK   15  A    between atoms: C18_42  and  O7_43
ROOT
HETATM    1  C3  UNL     1      -4.041  -1.370  10.342  1.00  0.00     0.169 C
HETATM    2  C4  UNL     1      -3.400  -2.500   9.558  1.00  0.00     0.295 C
HETATM    3  O5  UNL     1      -3.846  -3.698  10.088  1.00  0.00    -0.349 OA
HETATM    4  C15 UNL     1      -5.198  -3.864   9.782  1.00  0.00     0.176 C
HETATM    5  C17 UNL     1      -5.975  -2.828  10.566  1.00  0.00     0.179 C
HETATM    6  C18 UNL     1      -5.546  -1.464  10.067  1.00  0.00     0.177 C
ENDROOT
BRANCH   2   7
HETATM    7  O1  UNL     1      -3.767  -2.335   8.201  1.00  0.00    -0.285 OA
BRANCH   7   8
HETATM    8  C5  UNL     1      -2.847  -2.304   7.163  1.00  0.00     0.300 C
HETATM    9  O2  UNL     1      -3.317  -2.171   6.006  1.00  0.00    -0.262 OA
BRANCH   8  10
HETATM   10  C6  UNL     1      -1.429  -2.427   7.483  1.00  0.00     0.361 C
BRANCH  10  11
HETATM   11  N3  UNL     1      -0.857  -1.125   7.752  1.00  0.00    -0.059 N
ATOM     12  H33 UNL     1      -0.684  -0.602   6.893  1.00  0.00     0.275 HD
ATOM     13  H32 UNL     1      -1.534  -0.494   8.181  1.00  0.00     0.275 HD
ATOM     14  H31 UNL     1      -0.013  -1.217   8.316  1.00  0.00     0.275 HD
ENDBRANCH  10  11
BRANCH  10  15
HETATM   15  C7  UNL     1      -0.642  -3.202   6.509  1.00  0.00     0.256 C
HETATM   16  O3  UNL     1      -1.245  -3.707   5.511  1.00  0.00    -0.284 OA
BRANCH  15  17
HETATM   17  C8  UNL     1       0.781  -3.441   6.594  1.00  0.00     0.290 C
HETATM   18  O4  UNL     1       1.528  -2.462   6.792  1.00  0.00    -0.264 OA
HETATM   19  N4  UNL     1       1.349  -4.723   6.461  1.00  0.00    -0.350 N
ATOM     20  H4  UNL     1       0.727  -5.515   6.300  1.00  0.00     0.163 HD
BRANCH  19  21
HETATM   21  C9  UNL     1       2.780  -4.974   6.544  1.00  0.00     0.084 C
HETATM   22  C10 UNL     1       3.160  -5.668   7.824  1.00  0.00     0.025 C
HETATM   23  C11 UNL     1       3.529  -7.109   7.640  1.00  0.00     0.002 C
HETATM   24  C12 UNL     1       2.659  -7.782   6.608  1.00  0.00     0.000 C
HETATM   25  C13 UNL     1       2.797  -7.140   5.266  1.00  0.00     0.002 C
HETATM   26  C14 UNL     1       3.226  -5.703   5.316  1.00  0.00     0.025 C
ENDBRANCH  19  21
ENDBRANCH  15  17
ENDBRANCH  10  15
ENDBRANCH   8  10
ENDBRANCH   7   8
ENDBRANCH   2   7
BRANCH   1  27
HETATM   27  N2  UNL     1      -3.590  -0.089   9.884  1.00  0.00    -0.368 N
ATOM     28  H2  UNL     1      -3.869   0.232   8.957  1.00  0.00     0.161 HD
BRANCH  27  29
HETATM   29  C2  UNL     1      -2.770   0.743  10.679  1.00  0.00     0.067 C
HETATM   30  C1  UNL     1      -2.913   0.908  12.128  1.00  0.00     0.088 C
HETATM   31  N1  UNL     1      -1.818   1.411  10.085  1.00  0.00    -0.389 N
ATOM     32  H12 UNL     1      -1.226   2.012  10.659  1.00  0.00     0.157 HD
ATOM     33  H11 UNL     1      -1.718   1.296   9.076  1.00  0.00     0.157 HD
ENDBRANCH  27  29
ENDBRANCH   1  27
BRANCH   6  34
HETATM   34  O7  UNL     1      -6.249  -0.437  10.657  1.00  0.00    -0.391 OA
ATOM     35  H7  UNL     1      -7.069  -0.260  10.211  1.00  0.00     0.210 HD
ENDBRANCH   6  34
BRANCH   4  36
HETATM   36  C16 UNL     1      -5.669  -5.268  10.111  1.00  0.00     0.190 C
BRANCH  36  37
HETATM   37  N5  UNL     1      -4.826  -5.845  11.111  1.00  0.00    -0.250 N
ATOM     38  H5  UNL     1      -4.022  -6.386  10.793  1.00  0.00     0.197 HD
BRANCH  37  39
HETATM   39  N6  UNL     1      -4.996  -5.741  12.324  1.00  0.00    -0.248 NA
BRANCH  39  40
HETATM   40  N7  UNL     1      -5.180  -5.395  13.490  1.00  0.00    -0.261 N
ATOM     41  H72 UNL     1      -5.950  -4.795  13.193  1.00  0.00     0.193 HD
ATOM     42  H71 UNL     1      -5.177  -5.233  14.497  1.00  0.00     0.193 HD
ENDBRANCH  39  40
ENDBRANCH  37  39
ENDBRANCH  36  37
ENDBRANCH   4  36
BRANCH   5  43
HETATM   43  O6  UNL     1      -5.578  -2.890  11.918  1.00  0.00    -0.390 OA
ATOM     44  H6  UNL     1      -6.197  -2.395  12.442  1.00  0.00     0.210 HD
ENDBRANCH   5  43
TORSDOF 15
ENDMDL