MODEL 1
REMARK VINA RESULT: -8.435358280      0.000      0.000
REMARK  12 active torsions:
REMARK  status: ('A' for Active; 'I' for Inactive)
REMARK    1  A    between atoms: C1_2  and  C2_4
REMARK    2  A    between atoms: C4_6  and  O2_7
REMARK    3  A    between atoms: C5_9  and  O3_10
REMARK    4  A    between atoms: C6_12  and  O4_13
REMARK    5  A    between atoms: O4_13  and  C7_14
REMARK    6  A    between atoms: C8_16  and  C9_17
REMARK    7  A    between atoms: C9_17  and  S1_18
REMARK    8  A    between atoms: S1_18  and  C10_19
REMARK    9  A    between atoms: C10_19  and  C11_20
REMARK   10  A    between atoms: C17_26  and  O6_27
REMARK   11  A    between atoms: C18_29  and  O7_30
REMARK   12  A    between atoms: C19_32  and  O8_33
ROOT
HETATM    1  C7  UNL     1      -7.941  -5.131  13.701  1.00  0.00     0.294 C
HETATM    2  O5  UNL     1      -7.376  -4.780  12.476  1.00  0.00    -0.350 OA
HETATM    3  C8  UNL     1      -6.918  -3.490  12.421  1.00  0.00     0.165 C
HETATM    4  C17 UNL     1      -6.613  -2.864  13.741  1.00  0.00     0.179 C
HETATM    5  C18 UNL     1      -6.221  -3.816  14.815  1.00  0.00     0.183 C
HETATM    6  C19 UNL     1      -6.785  -5.191  14.676  1.00  0.00     0.204 C
ENDROOT
BRANCH   1   7
HETATM    7  O4  UNL     1      -8.882  -4.195  14.018  1.00  0.00    -0.326 OA
BRANCH   7   8
HETATM    8  C6  UNL     1     -10.169  -4.708  14.172  1.00  0.00     0.295 C
HETATM    9  C5  UNL     1     -10.329  -5.025  15.645  1.00  0.00     0.202 C
HETATM   10  C4  UNL     1     -11.683  -5.611  15.847  1.00  0.00     0.154 C
HETATM   11  C3  UNL     1     -12.197  -6.484  14.771  1.00  0.00     0.076 C
HETATM   12  C2  UNL     1     -11.376  -6.590  13.537  1.00  0.00     0.216 C
HETATM   13  O9  UNL     1     -10.227  -5.895  13.490  1.00  0.00    -0.344 OA
BRANCH   9  14
HETATM   14  O3  UNL     1     -10.248  -3.795  16.330  1.00  0.00    -0.388 OA
ATOM     15  H3  UNL     1     -10.522  -3.094  15.750  1.00  0.00     0.210 HD
ENDBRANCH   9  14
BRANCH  10  16
HETATM   16  O2  UNL     1     -11.645  -6.290  17.089  1.00  0.00    -0.393 OA
ATOM     17  H2  UNL     1     -10.760  -6.338  17.432  1.00  0.00     0.210 HD
ENDBRANCH  10  16
BRANCH  12  18
HETATM   18  C1  UNL     1     -11.106  -8.008  13.196  1.00  0.00     0.260 C
HETATM   19  N1  UNL     1     -10.173  -8.285  12.167  1.00  0.00    -0.060 NA
HETATM   20  O1  UNL     1     -11.654  -8.983  13.767  1.00  0.00    -0.274 OA
ENDBRANCH  12  18
ENDBRANCH   7   8
ENDBRANCH   1   7
BRANCH   6  21
HETATM   21  O8  UNL     1      -5.807  -6.004  14.097  1.00  0.00    -0.388 OA
ATOM     22  H8  UNL     1      -5.370  -6.458  14.807  1.00  0.00     0.210 HD
ENDBRANCH   6  21
BRANCH   3  23
HETATM   23  C9  UNL     1      -5.660  -3.493  11.557  1.00  0.00     0.108 C
BRANCH  23  24
HETATM   24  S1  UNL     1      -5.884  -2.552  10.047  1.00  0.00    -0.166 SA
BRANCH  24  25
HETATM   25  C10 UNL     1      -5.240  -0.876  10.267  1.00  0.00     0.078 C
BRANCH  25  26
HETATM   26  C11 UNL     1      -3.721  -0.854  10.180  1.00  0.00    -0.005 C
HETATM   27  C12 UNL     1      -3.076  -0.048  11.257  1.00  0.00     0.005 C
HETATM   28  C13 UNL     1      -2.780   1.371  10.887  1.00  0.00     0.000 C
HETATM   29  C14 UNL     1      -2.071   1.543   9.581  1.00  0.00     0.000 C
HETATM   30  C15 UNL     1      -2.011   0.252   8.788  1.00  0.00     0.000 C
HETATM   31  C16 UNL     1      -3.338  -0.458   8.791  1.00  0.00     0.005 C
ENDBRANCH  25  26
ENDBRANCH  24  25
ENDBRANCH  23  24
ENDBRANCH   3  23
BRANCH   5  32
HETATM   32  O7  UNL     1      -4.824  -3.936  14.953  1.00  0.00    -0.390 OA
ATOM     33  H7  UNL     1      -4.522  -3.714  15.825  1.00  0.00     0.210 HD
ENDBRANCH   5  32
BRANCH   4  34
HETATM   34  O6  UNL     1      -5.513  -1.993  13.542  1.00  0.00    -0.390 OA
ATOM     35  H6  UNL     1      -5.683  -1.209  14.051  1.00  0.00     0.210 HD
ENDBRANCH   4  34
TORSDOF 12
ENDMDL