MODEL 2
REMARK VINA RESULT: -6.626799289      3.305      5.858
REMARK  11 active torsions:
REMARK  status: ('A' for Active; 'I' for Inactive)
REMARK    1  A    between atoms: C2_2  and  O1_3
REMARK    2  A    between atoms: O1_3  and  C3_4
REMARK    3  A    between atoms: C6_11  and  O3_12
REMARK    4  A    between atoms: O3_12  and  C7_13
REMARK    5  A    between atoms: C9_15  and  O4_16
REMARK    6  A    between atoms: O4_16  and  C10_17
REMARK    7  A    between atoms: C11_18  and  O5_19
REMARK    8  A    between atoms: C15_24  and  N2_25
REMARK    9  A    between atoms: C16_29  and  N3_30
REMARK   10  A    between atoms: C18_35  and  N4_36
REMARK   11  A    between atoms: C19_40  and  N5_41
REMARK       I    between atoms: N5_41  and  C20_43
ROOT
HETATM    1  C7  UNL     1      -4.555  -3.915   8.528  1.00  0.00     0.157 C
HETATM    2  C8  UNL     1      -3.578  -2.798   8.845  1.00  0.00     0.068 C
HETATM    3  C9  UNL     1      -4.009  -1.952  10.031  1.00  0.00     0.155 C
HETATM    4  C16 UNL     1      -5.076  -2.748  10.740  1.00  0.00     0.214 C
HETATM    5  C17 UNL     1      -6.317  -2.885   9.921  1.00  0.00     0.070 C
HETATM    6  C18 UNL     1      -5.946  -3.314   8.515  1.00  0.00     0.214 C
ENDROOT
BRANCH   1   7
HETATM    7  O3  UNL     1      -4.230  -4.317   7.209  1.00  0.00    -0.350 OA
BRANCH   7   8
HETATM    8  C6  UNL     1      -2.947  -4.823   7.144  1.00  0.00     0.352 C
HETATM    9  N1  UNL     1      -2.913  -6.267   7.283  1.00  0.00    -0.021 N
HETATM   10  C4  UNL     1      -3.417  -6.940   6.104  1.00  0.00     0.322 C
ATOM     11  H12 UNL     1      -3.409  -6.570   8.121  1.00  0.00     0.283 HD
ATOM     12  H11 UNL     1      -1.977  -6.593   7.523  1.00  0.00     0.283 HD
HETATM   13  O2  UNL     1      -3.705  -6.076   5.074  1.00  0.00    -0.327 OA
HETATM   14  C5  UNL     1      -4.743  -7.590   6.512  1.00  0.00     0.071 C
HETATM   15  C3  UNL     1      -2.619  -5.274   4.707  1.00  0.00     0.289 C
HETATM   16  C19 UNL     1      -2.227  -4.403   5.876  1.00  0.00     0.196 C
BRANCH  15  17
HETATM   17  O1  UNL     1      -1.534  -6.013   4.303  1.00  0.00    -0.359 OA
BRANCH  17  18
HETATM   18  C2  UNL     1      -1.651  -6.612   3.076  1.00  0.00     0.166 C
HETATM   19  C1  UNL     1      -2.140  -5.737   1.968  1.00  0.00     0.033 C
ENDBRANCH  17  18
ENDBRANCH  15  17
BRANCH  16  20
HETATM   20  N5  UNL     1      -0.812  -4.463   6.185  1.00  0.00    -0.348 N
HETATM   21  C20 UNL     1      -0.050  -3.320   6.532  1.00  0.00     0.214 C
HETATM   22  C21 UNL     1       1.385  -3.403   6.843  1.00  0.00     0.117 C
HETATM   23  O6  UNL     1      -0.633  -2.193   6.574  1.00  0.00    -0.274 OA
ATOM     24  H5  UNL     1      -0.343  -5.369   6.151  1.00  0.00     0.163 HD
ENDBRANCH  16  20
ENDBRANCH   7   8
ENDBRANCH   1   7
BRANCH   6  25
HETATM   25  N4  UNL     1      -5.948  -2.205   7.589  1.00  0.00    -0.072 N
ATOM     26  H43 UNL     1      -5.303  -1.463   7.862  1.00  0.00     0.274 HD
ATOM     27  H42 UNL     1      -5.517  -2.439   6.694  1.00  0.00     0.274 HD
ATOM     28  H41 UNL     1      -6.908  -1.876   7.490  1.00  0.00     0.274 HD
ENDBRANCH   6  25
BRANCH   3  29
HETATM   29  O4  UNL     1      -4.359  -0.682   9.653  1.00  0.00    -0.373 OA
BRANCH  29  30
HETATM   30  C10 UNL     1      -3.429   0.298   9.803  1.00  0.00     0.185 C
HETATM   31  C11 UNL     1      -2.176   0.154   8.966  1.00  0.00     0.171 C
HETATM   32  C12 UNL     1      -1.609   1.520   8.894  1.00  0.00     0.003 C
HETATM   33  C13 UNL     1      -1.627   2.268   9.979  1.00  0.00    -0.026 C
HETATM   34  C14 UNL     1      -2.185   1.807  11.277  1.00  0.00     0.062 C
HETATM   35  C15 UNL     1      -2.907   0.490  11.220  1.00  0.00     0.218 C
BRANCH  31  36
HETATM   36  O5  UNL     1      -2.341  -0.444   7.750  1.00  0.00    -0.389 OA
ATOM     37  H5  UNL     1      -1.680  -0.242   7.099  1.00  0.00     0.210 HD
ENDBRANCH  31  36
BRANCH  35  38
HETATM   38  N2  UNL     1      -3.884   0.338  12.242  1.00  0.00    -0.072 N
ATOM     39  H23 UNL     1      -4.650   0.996  12.099  1.00  0.00     0.274 HD
ATOM     40  H22 UNL     1      -4.384  -0.543  12.125  1.00  0.00     0.274 HD
ATOM     41  H21 UNL     1      -3.524   0.416  13.193  1.00  0.00     0.274 HD
ENDBRANCH  35  38
ENDBRANCH  29  30
ENDBRANCH   3  29
BRANCH   4  42
HETATM   42  N3  UNL     1      -5.333  -2.351  12.094  1.00  0.00    -0.072 N
ATOM     43  H33 UNL     1      -4.453  -2.185  12.584  1.00  0.00     0.274 HD
ATOM     44  H32 UNL     1      -5.729  -1.411  12.116  1.00  0.00     0.274 HD
ATOM     45  H31 UNL     1      -5.918  -2.991  12.629  1.00  0.00     0.274 HD
ENDBRANCH   4  42
TORSDOF 11
ENDMDL