MODEL 2
REMARK VINA RESULT: -8.558424074      1.578      2.093
REMARK  11 active torsions:
REMARK  status: ('A' for Active; 'I' for Inactive)
REMARK    1  A    between atoms: C2_2  and  C3_3
REMARK    2  A    between atoms: C3_3  and  N1_4
REMARK       I    between atoms: N1_4  and  C4_6
REMARK    3  A    between atoms: C4_6  and  O2_8
REMARK    4  A    between atoms: O2_8  and  C5_9
REMARK    5  A    between atoms: C7_11  and  N2_12
REMARK    6  A    between atoms: C8_16  and  O3_17
REMARK    7  A    between atoms: O3_17  and  C9_18
REMARK    8  A    between atoms: C10_19  and  O4_20
REMARK    9  A    between atoms: C12_23  and  O5_24
REMARK   10  A    between atoms: C14_26  and  O6_27
REMARK   11  A    between atoms: C15_29  and  N3_30
REMARK       I    between atoms: N3_30  and  C16_32
REMARK       I    between atoms: C16_32  and  N4_34
ROOT
HETATM    1  N3  UNL     1      -3.266  -0.926   8.758  1.00  0.00    -0.333 N
ATOM      2  H3  UNL     1      -3.970  -0.412   9.287  1.00  0.00     0.164 HD
HETATM    3  C16 UNL     1      -2.009  -0.346   8.553  1.00  0.00     0.329 C
HETATM    4  O7  UNL     1      -1.083  -0.936   7.900  1.00  0.00    -0.246 OA
HETATM    5  N4  UNL     1      -1.718   0.938   9.073  1.00  0.00    -0.245 N
ATOM      6  H4  UNL     1      -2.433   1.439   9.601  1.00  0.00     0.183 HD
HETATM    7  C17 UNL     1      -0.463   1.535   8.876  1.00  0.00     0.185 C
HETATM    8  N5  UNL     1       0.570   2.005   8.707  1.00  0.00    -0.172 NA
ENDROOT
BRANCH   1   9
HETATM    9  C15 UNL     1      -3.591  -2.232   8.241  1.00  0.00     0.149 C
HETATM   10  C9  UNL     1      -4.386  -3.078   9.224  1.00  0.00     0.178 C
HETATM   11  C10 UNL     1      -4.352  -4.478   8.623  1.00  0.00     0.151 C
HETATM   12  C11 UNL     1      -5.198  -4.479   7.402  1.00  0.00     0.069 C
HETATM   13  C12 UNL     1      -5.279  -3.210   6.641  1.00  0.00     0.154 C
HETATM   14  C14 UNL     1      -4.213  -2.205   6.875  1.00  0.00     0.172 C
BRANCH  10  15
HETATM   15  O3  UNL     1      -5.635  -2.611   9.490  1.00  0.00    -0.349 OA
BRANCH  15  16
HETATM   16  C8  UNL     1      -6.144  -2.933  10.745  1.00  0.00     0.291 C
HETATM   17  C7  UNL     1      -6.015  -1.810  11.710  1.00  0.00     0.240 C
HETATM   18  C6  UNL     1      -6.059  -2.298  13.134  1.00  0.00     0.073 C
HETATM   19  C5  UNL     1      -6.776  -3.618  13.275  1.00  0.00     0.164 C
HETATM   20  C18 UNL     1      -6.286  -4.652  12.307  1.00  0.00     0.150 C
HETATM   21  O8  UNL     1      -5.683  -4.146  11.187  1.00  0.00    -0.352 OA
HETATM   22  C19 UNL     1      -5.419  -5.670  13.030  1.00  0.00     0.042 C
BRANCH  17  23
HETATM   23  N2  UNL     1      -7.156  -0.915  11.553  1.00  0.00    -0.070 N
ATOM     24  H23 UNL     1      -7.855  -1.016  12.289  1.00  0.00     0.274 HD
ATOM     25  H22 UNL     1      -6.931   0.063  11.728  1.00  0.00     0.274 HD
ATOM     26  H21 UNL     1      -7.524  -1.087  10.617  1.00  0.00     0.274 HD
ENDBRANCH  17  23
BRANCH  19  27
HETATM   27  O2  UNL     1      -6.537  -4.098  14.581  1.00  0.00    -0.296 OA
BRANCH  27  28
HETATM   28  C4  UNL     1      -7.481  -4.346  15.534  1.00  0.00     0.360 C
HETATM   29  N1  UNL     1      -8.819  -3.929  15.386  1.00  0.00    -0.337 N
ATOM     30  H1  UNL     1      -9.109  -3.426  14.548  1.00  0.00     0.164 HD
HETATM   31  O1  UNL     1      -7.118  -4.967  16.567  1.00  0.00    -0.239 OA
BRANCH  29  32
HETATM   32  C3  UNL     1      -9.771  -4.215  16.421  1.00  0.00     0.124 C
BRANCH  32  33
HETATM   33  C2  UNL     1     -10.815  -5.227  15.977  1.00  0.00     0.015 C
HETATM   34  C1  UNL     1     -10.803  -5.236  14.463  1.00  0.00     0.006 C
ENDBRANCH  32  33
ENDBRANCH  29  32
ENDBRANCH  27  28
ENDBRANCH  19  27
ENDBRANCH  15  16
ENDBRANCH  10  15
BRANCH  11  35
HETATM   35  O4  UNL     1      -3.017  -4.789   8.362  1.00  0.00    -0.393 OA
ATOM     36  H4  UNL     1      -3.008  -5.567   7.817  1.00  0.00     0.210 HD
ENDBRANCH  11  35
BRANCH  13  37
HETATM   37  O5  UNL     1      -6.558  -2.629   6.758  1.00  0.00    -0.388 OA
HETATM   38  C13 UNL     1      -7.540  -3.569   6.929  1.00  0.00     0.202 C
ENDBRANCH  13  37
BRANCH  14  39
HETATM   39  O6  UNL     1      -3.231  -2.254   5.870  1.00  0.00    -0.391 OA
ATOM     40  H6  UNL     1      -3.032  -1.387   5.537  1.00  0.00     0.210 HD
ENDBRANCH  14  39
ENDBRANCH   1   9
TORSDOF 11
ENDMDL