MODEL 1
REMARK VINA RESULT: -7.596430012      0.000      0.000
REMARK  12 active torsions:
REMARK  status: ('A' for Active; 'I' for Inactive)
REMARK    1  A    between atoms: N1_1  and  C1_5
REMARK    2  A    between atoms: C3_7  and  O1_8
REMARK    3  A    between atoms: C4_10  and  C5_11
REMARK    4  A    between atoms: C5_11  and  O2_12
REMARK    5  A    between atoms: C6_15  and  O4_16
REMARK    6  A    between atoms: O4_16  and  C7_17
REMARK    7  A    between atoms: C8_18  and  N2_19
REMARK    8  A    between atoms: C11_25  and  N3_26
REMARK    9  A    between atoms: C12_30  and  C13_31
REMARK   10  A    between atoms: C14_35  and  C15_36
REMARK   11  A    between atoms: C15_36  and  S1_37
REMARK   12  A    between atoms: S1_37  and  C16_38
ROOT
HETATM    1  C7  UNL     1      -5.788  -4.772  11.652  1.00  0.00     0.162 C
HETATM    2  C8  UNL     1      -5.352  -6.274  11.520  1.00  0.00     0.213 C
HETATM    3  C9  UNL     1      -4.458  -6.324  10.315  1.00  0.00     0.043 C
HETATM    4  C10 UNL     1      -4.391  -4.966   9.763  1.00  0.00     0.030 C
HETATM    5  C11 UNL     1      -4.523  -4.897   8.257  1.00  0.00     0.227 C
HETATM    6  C12 UNL     1      -4.959  -3.575   7.754  1.00  0.00     0.253 C
HETATM    7  O7  UNL     1      -5.722  -2.813   8.558  1.00  0.00    -0.366 OA
HETATM    8  C14 UNL     1      -5.489  -2.886   9.938  1.00  0.00     0.139 C
HETATM    9  C20 UNL     1      -5.712  -4.345  10.261  1.00  0.00     0.053 C
ENDROOT
BRANCH   1  10
HETATM   10  O4  UNL     1      -7.101  -4.775  12.093  1.00  0.00    -0.351 OA
BRANCH  10  11
HETATM   11  C6  UNL     1      -7.387  -4.294  13.313  1.00  0.00     0.291 C
HETATM   12  C1  UNL     1      -6.244  -3.456  13.915  1.00  0.00     0.240 C
HETATM   13  C2  UNL     1      -6.917  -2.523  14.895  1.00  0.00     0.072 C
HETATM   14  C3  UNL     1      -8.019  -3.172  15.660  1.00  0.00     0.151 C
HETATM   15  C4  UNL     1      -8.168  -4.642  15.462  1.00  0.00     0.177 C
HETATM   16  O3  UNL     1      -7.750  -5.162  14.293  1.00  0.00    -0.349 OA
BRANCH  12  17
HETATM   17  N1  UNL     1      -5.356  -4.306  14.689  1.00  0.00    -0.070 N
ATOM     18  H13 UNL     1      -4.369  -4.088  14.551  1.00  0.00     0.274 HD
ATOM     19  H12 UNL     1      -5.391  -4.117  15.691  1.00  0.00     0.274 HD
ATOM     20  H11 UNL     1      -5.592  -5.269  14.452  1.00  0.00     0.274 HD
ENDBRANCH  12  17
BRANCH  14  21
HETATM   21  O1  UNL     1      -9.245  -2.488  15.484  1.00  0.00    -0.393 OA
ATOM     22  H1  UNL     1      -9.955  -3.089  15.291  1.00  0.00     0.210 HD
ENDBRANCH  14  21
BRANCH  15  23
HETATM   23  C5  UNL     1      -9.662  -4.974  15.599  1.00  0.00     0.198 C
BRANCH  23  24
HETATM   24  O2  UNL     1     -10.371  -4.735  14.447  1.00  0.00    -0.398 OA
ATOM     25  H2  UNL     1     -11.307  -4.674  14.595  1.00  0.00     0.209 HD
ENDBRANCH  23  24
ENDBRANCH  15  23
ENDBRANCH  10  11
ENDBRANCH   1  10
BRANCH   2  26
HETATM   26  N2  UNL     1      -6.568  -7.016  11.157  1.00  0.00    -0.073 N
ATOM     27  H23 UNL     1      -7.383  -6.759  11.713  1.00  0.00     0.274 HD
ATOM     28  H22 UNL     1      -6.950  -6.752  10.249  1.00  0.00     0.274 HD
ATOM     29  H21 UNL     1      -6.323  -8.004  11.224  1.00  0.00     0.274 HD
ENDBRANCH   2  26
BRANCH   8  30
HETATM   30  C15 UNL     1      -6.456  -1.941  10.565  1.00  0.00     0.106 C
BRANCH  30  31
HETATM   31  S1  UNL     1      -5.702  -0.657  11.526  1.00  0.00    -0.162 SA
BRANCH  31  32
HETATM   32  C16 UNL     1      -3.966  -0.418  11.454  1.00  0.00     0.047 C
HETATM   33  C17 UNL     1      -3.550   0.054  10.039  1.00  0.00     0.015 C
HETATM   34  C18 UNL     1      -2.401   0.767  10.740  1.00  0.00     0.002 C
HETATM   35  C19 UNL     1      -3.299   0.786  12.011  1.00  0.00     0.015 C
ENDBRANCH  31  32
ENDBRANCH  30  31
ENDBRANCH   8  30
BRANCH   5  36
HETATM   36  N3  UNL     1      -3.309  -5.380   7.662  1.00  0.00    -0.072 N
ATOM     37  H33 UNL     1      -2.713  -4.625   7.325  1.00  0.00     0.274 HD
ATOM     38  H32 UNL     1      -2.666  -5.771   8.351  1.00  0.00     0.274 HD
ATOM     39  H31 UNL     1      -3.545  -6.047   6.928  1.00  0.00     0.274 HD
ENDBRANCH   5  36
BRANCH   6  40
HETATM   40  C13 UNL     1      -3.840  -2.755   7.192  1.00  0.00     0.205 C
HETATM   41  O5  UNL     1      -2.783  -2.524   7.809  1.00  0.00    -0.646 OA
HETATM   42  O6  UNL     1      -3.967  -2.216   5.920  1.00  0.00    -0.646 OA
ENDBRANCH   6  40
TORSDOF 12
ENDMDL