MODEL 4
REMARK VINA RESULT: -6.257234577      0.212      2.347
REMARK  4 active torsions:
REMARK  status: ('A' for Active; 'I' for Inactive)
REMARK    1  A    between atoms: C1_4  and  S1_6
REMARK    2  A    between atoms: S1_6  and  C2_7
REMARK    3  A    between atoms: C2_7  and  C3_8
REMARK    4  A    between atoms: C3_8  and  C4_9
ROOT
HETATM    1  C4  UNL     1      21.436  42.399   7.098  1.00  0.00    -0.054 A
HETATM    2  C5  UNL     1      21.786  43.607   7.654  1.00  0.00     0.032 A
HETATM    3  C6  UNL     1      21.832  43.784   9.019  1.00  0.00     0.058 A
HETATM    4 CL1  UNL     1      22.291  45.360   9.688  1.00  0.00    -0.082 Cl
HETATM    5  C7  UNL     1      21.521  42.732   9.843  1.00  0.00     0.077 A
HETATM    6 CL2  UNL     1      21.561  42.895  11.577  1.00  0.00    -0.081 Cl
HETATM    7  C8  UNL     1      21.166  41.512   9.312  1.00  0.00     0.058 A
HETATM    8 CL3  UNL     1      20.759  40.138  10.318  1.00  0.00    -0.082 Cl
HETATM    9  C9  UNL     1      21.124  41.345   7.924  1.00  0.00     0.032 A
ENDROOT
BRANCH   1  10
HETATM   10  C3  UNL     1      21.411  42.287   5.607  1.00  0.00     0.049 C
BRANCH  10  11
HETATM   11  C2  UNL     1      22.077  43.514   5.051  1.00  0.00     0.086 C
BRANCH  11  12
HETATM   12  S1  UNL     1      22.667  43.332   3.370  1.00  0.00    -0.097 SA
BRANCH  12  13
HETATM   13  C1  UNL     1      24.228  44.116   3.121  1.00  0.00     0.147 C
HETATM   14  N1  UNL     1      24.819  44.758   4.058  1.00  0.00    -0.382 N
ATOM     15  H12 UNL     1      25.720  45.211   3.914  1.00  0.00     0.157 HD
ATOM     16  H11 UNL     1      24.353  44.786   4.965  1.00  0.00     0.157 HD
HETATM   17  N2  UNL     1      24.879  44.077   1.853  1.00  0.00    -0.075 NA
ENDBRANCH  12  13
ENDBRANCH  11  12
ENDBRANCH  10  11
ENDBRANCH   1  10
TORSDOF 4
ENDMDL