MODEL 4
REMARK VINA RESULT: -7.095482831      2.010      3.049
REMARK  3 active torsions:
REMARK  status: ('A' for Active; 'I' for Inactive)
REMARK    1  A    between atoms: C7_9  and  C8_10
REMARK    2  A    between atoms: C8_10  and  C9_11
REMARK    3  A    between atoms: C9_11  and  C10_12
ROOT
HETATM    1  C8  UNL     1      21.109  43.335   7.022  1.00  0.00     0.018 C
ENDROOT
BRANCH   1   2
HETATM    2  C7  UNL     1      21.286  42.318   8.110  1.00  0.00     0.058 C
HETATM    3  C1  UNL     1      21.875  42.868   9.365  1.00  0.00     0.247 C
HETATM    4  F1  UNL     1      23.269  42.934   9.227  1.00  0.00    -0.206 F
HETATM    5  F2  UNL     1      21.381  44.173   9.512  1.00  0.00    -0.206 F
HETATM    6  C2  UNL     1      21.588  42.089  10.592  1.00  0.00     0.079 C
HETATM    7  C3  UNL     1      20.578  40.995  10.424  1.00  0.00     0.006 C
HETATM    8  C4  UNL     1      20.979  39.912   9.493  1.00  0.00     0.000 C
HETATM    9  C5  UNL     1      22.243  40.145   8.745  1.00  0.00     0.001 C
HETATM   10  C6  UNL     1      22.089  41.147   7.620  1.00  0.00     0.010 C
ENDBRANCH   1   2
BRANCH   1  11
HETATM   11  C9  UNL     1      22.255  43.376   6.057  1.00  0.00     0.078 C
BRANCH  11  12
HETATM   12  C10 UNL     1      21.727  42.908   4.730  1.00  0.00     0.098 A
HETATM   13  N1  UNL     1      22.242  43.191   3.512  1.00  0.00    -0.287 N
HETATM   14  N2  UNL     1      21.506  42.601   2.572  1.00  0.00    -0.275 N
ATOM     15  H1  UNL     1      23.066  43.767   3.340  1.00  0.00     0.188 HD
HETATM   16  C11 UNL     1      20.505  41.931   3.169  1.00  0.00     0.192 A
ATOM     17  H2  UNL     1      21.674  42.650   1.568  1.00  0.00     0.189 HD
HETATM   18  S1  UNL     1      19.341  41.048   2.408  1.00  0.00    -0.039 SA
HETATM   19  N3  UNL     1      20.657  42.129   4.487  1.00  0.00    -0.321 N
ATOM     20  H3  UNL     1      20.046  41.743   5.206  1.00  0.00     0.169 HD
ENDBRANCH  11  12
ENDBRANCH   1  11
TORSDOF 3
ENDMDL