MODEL 1
REMARK VINA RESULT: -6.152695274      0.000      0.000
REMARK  4 active torsions:
REMARK  status: ('A' for Active; 'I' for Inactive)
REMARK    1  A    between atoms: C2_2  and  C3_3
REMARK    2  A    between atoms: C3_3  and  N2_7
REMARK    3  A    between atoms: N2_7  and  C4_9
REMARK    4  A    between atoms: C5_10  and  O1_11
ROOT
HETATM    1  C4  UNL     1      21.172  42.738   8.444  1.00  0.00     0.091 A
HETATM    2  C5  UNL     1      21.712  41.487   8.293  1.00  0.00     0.098 A
HETATM    3  C7  UNL     1      22.066  40.981   7.046  1.00  0.00     0.064 A
HETATM    4  C8  UNL     1      21.874  41.748   5.920  1.00  0.00     0.060 A
HETATM    5 CL1  UNL     1      22.336  41.076   4.349  1.00  0.00    -0.082 Cl
HETATM    6  C9  UNL     1      21.332  43.007   6.049  1.00  0.00     0.080 A
HETATM    7 CL2  UNL     1      21.083  43.987   4.627  1.00  0.00    -0.081 Cl
HETATM    8  C10 UNL     1      20.985  43.493   7.314  1.00  0.00     0.087 A
HETATM    9 CL3  UNL     1      20.311  45.095   7.432  1.00  0.00    -0.080 Cl
ENDROOT
BRANCH   1  10
HETATM   10  N2  UNL     1      20.834  43.212   9.713  1.00  0.00    -0.343 N
ATOM     11  H2  UNL     1      19.851  43.429   9.877  1.00  0.00     0.167 HD
BRANCH  10  12
HETATM   12  C3  UNL     1      21.716  43.418  10.785  1.00  0.00     0.074 C
HETATM   13  N1  UNL     1      21.630  42.707  11.832  1.00  0.00    -0.389 N
ATOM     14  H12 UNL     1      22.270  42.857  12.611  1.00  0.00     0.157 HD
ATOM     15  H11 UNL     1      20.915  41.982  11.889  1.00  0.00     0.157 HD
BRANCH  12  16
HETATM   16  C2  UNL     1      22.747  44.462  10.703  1.00  0.00     0.071 C
HETATM   17  C1  UNL     1      22.251  45.689   9.963  1.00  0.00     0.013 C
ENDBRANCH  12  16
ENDBRANCH  10  12
ENDBRANCH   1  10
BRANCH   2  18
HETATM   18  O1  UNL     1      21.905  40.720   9.425  1.00  0.00    -0.354 OA
HETATM   19  C6  UNL     1      20.975  39.701   9.740  1.00  0.00     0.210 C
ENDBRANCH   2  18
TORSDOF 4
ENDMDL