MODEL 1
REMARK VINA RESULT: -5.992781097      0.000      0.000
REMARK  3 active torsions:
REMARK  status: ('A' for Active; 'I' for Inactive)
REMARK    1  A    between atoms: C2_2  and  C3_3
REMARK    2  A    between atoms: C3_3  and  N1_4
REMARK       I    between atoms: N1_4  and  C4_6
REMARK       I    between atoms: C4_6  and  N2_8
REMARK    3  A    between atoms: N2_8  and  C5_10
ROOT
HETATM    1  N1  UNL     1      21.134  41.229   3.932  1.00  0.00    -0.343 N
ATOM      2  H1  UNL     1      21.380  40.243   4.023  1.00  0.00     0.164 HD
HETATM    3  C4  UNL     1      21.212  42.095   5.101  1.00  0.00     0.321 C
HETATM    4  O1  UNL     1      20.891  43.263   4.876  1.00  0.00    -0.247 OA
HETATM    5  N2  UNL     1      21.616  41.597   6.322  1.00  0.00    -0.301 N
ATOM      6  H2  UNL     1      21.836  40.601   6.290  1.00  0.00     0.171 HD
ENDROOT
BRANCH   5   7
HETATM    7  C5  UNL     1      21.792  42.158   7.608  1.00  0.00     0.103 A
HETATM    8  S1  UNL     1      22.410  43.783   7.883  1.00  0.00    -0.057 SA
HETATM    9  C6  UNL     1      22.374  43.822   9.571  1.00  0.00     0.100 A
HETATM   10 CL1  UNL     1      22.846  45.133  10.682  1.00  0.00    -0.074 Cl
HETATM   11  C7  UNL     1      21.891  42.591   9.896  1.00  0.00     0.087 A
HETATM   12 CL2  UNL     1      21.675  42.168  11.633  1.00  0.00    -0.080 Cl
HETATM   13  C8  UNL     1      21.594  41.743   8.885  1.00  0.00     0.091 A
HETATM   14 CL3  UNL     1      20.952  40.104   9.251  1.00  0.00    -0.079 Cl
ENDBRANCH   5   7
BRANCH   1  15
HETATM   15  C3  UNL     1      20.714  41.737   2.652  1.00  0.00     0.124 C
BRANCH  15  16
HETATM   16  C2  UNL     1      19.549  40.924   2.108  1.00  0.00     0.015 C
HETATM   17  C1  UNL     1      18.313  41.357   2.888  1.00  0.00     0.006 C
ENDBRANCH  15  16
ENDBRANCH   1  15
TORSDOF 3
ENDMDL