MODEL 3
REMARK VINA RESULT: -6.314355691      3.664      7.001
REMARK  3 active torsions:
REMARK  status: ('A' for Active; 'I' for Inactive)
REMARK    1  A    between atoms: C2_2  and  N1_3
REMARK    2  A    between atoms: C2_2  and  C10_19
REMARK       I    between atoms: N2_5  and  C3_7
REMARK       I    between atoms: C3_7  and  N4_11
REMARK    3  A    between atoms: N4_11  and  C4_13
ROOT
HETATM    1  N1  UNL     1      21.633  42.282   6.990  1.00  0.00    -0.312 N
ATOM      2  H1  UNL     1      21.258  43.215   7.157  1.00  0.00     0.181 HD
HETATM    3  N2  UNL     1      21.429  41.741   5.860  1.00  0.00    -0.137 N
ATOM      4  H2  UNL     1      21.808  40.807   5.704  1.00  0.00     0.205 HD
HETATM    5  C3  UNL     1      20.720  42.339   4.813  1.00  0.00     0.686 C
HETATM    6  N3  UNL     1      21.096  43.404   4.188  1.00  0.00    -0.234 N
ATOM      7  H31 UNL     1      20.579  43.840   3.424  1.00  0.00     0.174 HD
ATOM      8  H32 UNL     1      21.974  43.829   4.487  1.00  0.00     0.174 HD
HETATM    9  N4  UNL     1      19.499  41.748   4.396  1.00  0.00    -0.221 N
ATOM     10  H4  UNL     1      18.772  41.545   5.083  1.00  0.00     0.178 HD
ENDROOT
BRANCH   9  11
HETATM   11  C4  UNL     1      19.286  41.438   3.026  1.00  0.00     0.099 C
HETATM   12  C5  UNL     1      20.137  40.269   2.542  1.00  0.00     0.026 C
HETATM   13  C6  UNL     1      20.192  40.459   1.023  1.00  0.00     0.002 C
HETATM   14  C7  UNL     1      18.799  40.235   0.510  1.00  0.00     0.000 C
HETATM   15  C8  UNL     1      17.745  41.021   1.185  1.00  0.00     0.002 C
HETATM   16  C9  UNL     1      17.863  41.077   2.684  1.00  0.00     0.026 C
ENDBRANCH   9  11
BRANCH   1  17
HETATM   17  C2  UNL     1      22.369  41.640   8.049  1.00  0.00     0.167 C
HETATM   18  C1  UNL     1      22.825  40.252   7.706  1.00  0.00     0.040 C
BRANCH  17  19
HETATM   19  C10 UNL     1      21.459  41.569   9.256  1.00  0.00     0.276 C
HETATM   20  F1  UNL     1      22.086  42.139  10.354  1.00  0.00    -0.205 F
HETATM   21 CL1  UNL     1      21.093  39.884   9.667  1.00  0.00    -0.064 Cl
HETATM   22 CL2  UNL     1      19.902  42.383   8.927  1.00  0.00    -0.064 Cl
ENDBRANCH  17  19
ENDBRANCH   1  17
TORSDOF 3
ENDMDL