MODEL 1
REMARK VINA RESULT: -5.663672370      0.000      0.000
REMARK  3 active torsions:
REMARK  status: ('A' for Active; 'I' for Inactive)
REMARK    1  A    between atoms: C1_2  and  C2_3
REMARK    2  A    between atoms: C1_2  and  C5_8
REMARK    3  A    between atoms: C3_4  and  C4_6
ROOT
HETATM    1  C5  UNL     1      21.413  42.303   5.083  1.00  0.00     0.124 A
HETATM    2  N1  UNL     1      20.265  41.669   4.774  1.00  0.00    -0.327 N
ATOM      3  H1  UNL     1      19.647  41.225   5.452  1.00  0.00     0.168 HD
HETATM    4  C6  UNL     1      20.050  41.703   3.458  1.00  0.00     0.177 A
HETATM    5  S1  UNL     1      18.753  41.032   2.732  1.00  0.00    -0.040 SA
HETATM    6  N2  UNL     1      21.080  42.371   2.928  1.00  0.00    -0.322 N
ATOM      7  H2  UNL     1      21.201  42.563   1.933  1.00  0.00     0.169 HD
HETATM    8  C7  UNL     1      21.934  42.752   3.896  1.00  0.00     0.136 A
HETATM    9 CL3  UNL     1      23.430  43.650   3.717  1.00  0.00    -0.062 Cl
ENDROOT
BRANCH   1  10
HETATM   10  C1  UNL     1      21.950  42.453   6.430  1.00  0.00     0.203 C
HETATM   11  O1  UNL     1      22.325  43.610   6.780  1.00  0.00    -0.286 OA
BRANCH  10  12
HETATM   12  C2  UNL     1      22.050  41.339   7.324  1.00  0.00     0.077 C
HETATM   13  C3  UNL     1      21.238  41.169   8.342  1.00  0.00     0.029 C
HETATM   14 CL1  UNL     1      19.949  42.332   8.670  1.00  0.00    -0.088 Cl
BRANCH  13  15
HETATM   15  C4  UNL     1      21.341  40.019   9.268  1.00  0.00     0.166 C
HETATM   16 CL2  UNL     1      20.352  40.272  10.729  1.00  0.00    -0.125 Cl
ENDBRANCH  13  15
ENDBRANCH  10  12
ENDBRANCH   1  10
TORSDOF 3
ENDMDL