MODEL 2
REMARK VINA RESULT: -6.201486182      1.897      3.478
REMARK  5 active torsions:
REMARK  status: ('A' for Active; 'I' for Inactive)
REMARK    1  A    between atoms: C2_2  and  C3_3
REMARK    2  A    between atoms: C3_3  and  C4_4
REMARK    3  A    between atoms: C5_5  and  O1_6
REMARK    4  A    between atoms: C6_8  and  C7_9
REMARK    5  A    between atoms: C10_14  and  O2_15
ROOT
HETATM    1  C4  UNL     1      21.919  42.037   8.287  1.00  0.00     0.004 A
HETATM    2  C5  UNL     1      21.838  42.004   6.894  1.00  0.00     0.084 A
HETATM    3  C6  UNL     1      21.475  43.114   6.136  1.00  0.00     0.003 A
HETATM    4  C9  UNL     1      21.181  44.296   6.762  1.00  0.00     0.052 A
HETATM    5  C10 UNL     1      21.255  44.345   8.133  1.00  0.00     0.088 A
HETATM    6  C11 UNL     1      21.619  43.231   8.886  1.00  0.00     0.076 A
HETATM    7 CL3  UNL     1      21.669  43.429  10.636  1.00  0.00    -0.081 Cl
ENDROOT
BRANCH   3   8
HETATM    8  C7  UNL     1      21.392  43.048   4.682  1.00  0.00     0.050 C
HETATM    9  C8  UNL     1      22.304  43.468   3.845  1.00  0.00     0.104 C
HETATM   10 CL1  UNL     1      22.090  43.341   2.115  1.00  0.00    -0.071 Cl
HETATM   11 CL2  UNL     1      23.785  44.148   4.470  1.00  0.00    -0.071 Cl
ENDBRANCH   3   8
BRANCH   2  12
HETATM   12  O1  UNL     1      22.111  40.863   6.209  1.00  0.00    -0.359 OA
ATOM     13  H1  UNL     1      22.893  40.793   5.674  1.00  0.00     0.217 HD
ENDBRANCH   2  12
BRANCH   1  14
HETATM   14  C3  UNL     1      22.337  40.838   9.020  1.00  0.00     0.069 C
BRANCH  14  15
HETATM   15  C2  UNL     1      21.296  39.880   9.388  1.00  0.00    -0.032 C
HETATM   16  C1  UNL     1      20.513  40.155  10.449  1.00  0.00     0.007 C
ENDBRANCH  14  15
ENDBRANCH   1  14
BRANCH   5  17
HETATM   17  O2  UNL     1      20.960  45.538   8.789  1.00  0.00    -0.359 OA
ATOM     18  H2  UNL     1      20.397  45.520   9.554  1.00  0.00     0.217 HD
ENDBRANCH   5  17
TORSDOF 5
ENDMDL