MODEL 4
REMARK VINA RESULT: -5.689983380      2.091      3.036
REMARK  12 active torsions:
REMARK  status: ('A' for Active; 'I' for Inactive)
REMARK       I    between atoms: C1_4  and  N2_5
REMARK       I    between atoms: C1_4  and  N5_24
REMARK    1  A    between atoms: N2_5  and  C2_7
REMARK    2  A    between atoms: C2_7  and  C3_8
REMARK    3  A    between atoms: C3_8  and  C4_9
REMARK    4  A    between atoms: C4_9  and  C5_10
REMARK    5  A    between atoms: C5_10  and  N3_11
REMARK    6  A    between atoms: N3_11  and  C6_12
REMARK    7  A    between atoms: N5_24  and  C15_25
REMARK    8  A    between atoms: N5_24  and  C17_28
REMARK    9  A    between atoms: C15_25  and  C16_26
REMARK   10  A    between atoms: C17_28  and  C18_29
REMARK   11  A    between atoms: C18_29  and  C19_30
REMARK   12  A    between atoms: C19_30  and  N6_31
ROOT
HETATM    1  N1  UNL     1      35.943  22.053  34.386  1.00  0.00    -0.235 N
ATOM      2  H11 UNL     1      35.523  22.082  33.456  1.00  0.00     0.174 HD
ATOM      3  H12 UNL     1      35.752  22.819  35.033  1.00  0.00     0.174 HD
HETATM    4  C1  UNL     1      36.696  21.096  34.761  1.00  0.00     0.669 C
HETATM    5  N2  UNL     1      37.271  21.056  36.035  1.00  0.00    -0.227 N
ATOM      6  H2  UNL     1      36.872  20.451  36.753  1.00  0.00     0.177 HD
HETATM    7  N5  UNL     1      36.962  20.031  33.861  1.00  0.00    -0.217 N
ENDROOT
BRANCH   5   8
HETATM    8  C2  UNL     1      38.424  21.864  36.338  1.00  0.00     0.138 C
BRANCH   8   9
HETATM    9  C3  UNL     1      39.111  21.342  37.588  1.00  0.00     0.026 C
BRANCH   9  10
HETATM   10  C4  UNL     1      40.326  22.158  37.926  1.00  0.00     0.061 C
BRANCH  10  11
HETATM   11  C5  UNL     1      41.340  21.903  36.778  1.00  0.00     0.155 C
BRANCH  11  12
HETATM   12  N3  UNL     1      41.855  20.678  36.734  1.00  0.00    -0.421 NA
BRANCH  12  13
HETATM   13  C6  UNL     1      42.322  19.587  36.572  1.00  0.00     0.119 A
HETATM   14  C7  UNL     1      42.924  19.149  35.380  1.00  0.00     0.062 A
HETATM   15  C8  UNL     1      43.440  17.904  35.205  1.00  0.00     0.092 A
HETATM   16  N4  UNL     1      43.377  17.040  36.224  1.00  0.00    -0.364 N
HETATM   17  C9  UNL     1      42.820  17.394  37.379  1.00  0.00     0.067 A
ATOM     18  H4  UNL     1      43.759  16.100  36.114  1.00  0.00     0.165 HD
HETATM   19  C10 UNL     1      42.800  16.427  38.381  1.00  0.00     0.061 A
HETATM   20  C14 UNL     1      42.286  18.636  37.602  1.00  0.00     0.033 A
HETATM   21 CL1  UNL     1      43.463  14.825  38.139  1.00  0.00    -0.082 Cl
HETATM   22  C11 UNL     1      42.229  16.755  39.602  1.00  0.00     0.026 A
HETATM   23  C12 UNL     1      41.690  17.991  39.845  1.00  0.00     0.003 A
HETATM   24  C13 UNL     1      41.726  18.921  38.837  1.00  0.00     0.017 A
ENDBRANCH  12  13
ENDBRANCH  11  12
ENDBRANCH  10  11
ENDBRANCH   9  10
ENDBRANCH   8   9
ENDBRANCH   5   8
BRANCH   7  25
HETATM   25  C15 UNL     1      38.010  20.065  32.891  1.00  0.00     0.156 C
BRANCH  25  26
HETATM   26  C16 UNL     1      39.398  20.069  33.461  1.00  0.00     0.135 C
HETATM   27 CL2  UNL     1      40.110  18.455  33.236  1.00  0.00    -0.129 Cl
ENDBRANCH  25  26
ENDBRANCH   7  25
BRANCH   7  28
HETATM   28  C17 UNL     1      36.088  18.867  33.976  1.00  0.00     0.143 C
BRANCH  28  29
HETATM   29  C18 UNL     1      36.880  17.848  34.811  1.00  0.00     0.050 C
BRANCH  29  30
HETATM   30  C19 UNL     1      36.051  17.502  36.002  1.00  0.00     0.274 C
BRANCH  30  31
HETATM   31  N6  UNL     1      36.788  17.673  37.213  1.00  0.00     0.089 N
HETATM   32  C20 UNL     1      37.500  16.459  37.586  1.00  0.00     0.272 C
HETATM   33  C21 UNL     1      38.212  16.666  38.886  1.00  0.00     0.032 C
HETATM   34  C22 UNL     1      38.130  18.117  39.261  1.00  0.00     0.024 C
HETATM   35  C23 UNL     1      36.700  18.499  39.486  1.00  0.00     0.110 C
HETATM   36 CL3  UNL     1      36.062  17.677  40.929  1.00  0.00    -0.123 Cl
HETATM   37  C24 UNL     1      35.884  18.093  38.268  1.00  0.00     0.292 C
ENDBRANCH  30  31
ENDBRANCH  29  30
ENDBRANCH  28  29
ENDBRANCH   7  28
TORSDOF 12
ENDMDL