MODEL 2
REMARK VINA RESULT: -5.026204648      2.868      3.806
REMARK  15 active torsions:
REMARK  status: ('A' for Active; 'I' for Inactive)
REMARK       I    between atoms: C2_5  and  N4_7
REMARK    1  A    between atoms: N4_7  and  C3_9
REMARK    2  A    between atoms: C3_9  and  C4_10
REMARK    3  A    between atoms: C4_10  and  C5_11
REMARK    4  A    between atoms: C5_11  and  C6_12
REMARK    5  A    between atoms: C6_12  and  C7_13
REMARK    6  A    between atoms: C7_13  and  C8_14
REMARK    7  A    between atoms: C8_14  and  C9_15
REMARK    8  A    between atoms: C9_15  and  N5_16
REMARK    9  A    between atoms: N5_16  and  C10_17
REMARK   10  A    between atoms: N5_16  and  C18_31
REMARK   11  A    between atoms: C10_17  and  O1_18
REMARK   12  A    between atoms: C10_17  and  N6_20
REMARK   13  A    between atoms: N6_20  and  C11_22
REMARK   14  A    between atoms: C11_22  and  C12_23
REMARK   15  A    between atoms: C18_31  and  C19_33
ROOT
HETATM    1  N1  UNL     1      47.284  20.035  35.772  1.00  0.00    -0.172 NA
HETATM    2  C1  UNL     1      46.971  20.815  35.001  1.00  0.00     0.184 C
HETATM    3  N2  UNL     1      46.609  21.774  34.052  1.00  0.00    -0.268 N
ATOM      4  H2  UNL     1      47.216  21.891  33.241  1.00  0.00     0.180 HD
HETATM    5  C2  UNL     1      45.583  22.507  34.128  1.00  0.00     0.197 C
HETATM    6  N3  UNL     1      45.264  23.455  33.151  1.00  0.00    -0.063 NA
HETATM    7  N4  UNL     1      44.689  22.374  35.264  1.00  0.00    -0.364 N
ATOM      8  H4  UNL     1      44.940  22.694  36.200  1.00  0.00     0.162 HD
ENDROOT
BRANCH   7   9
HETATM    9  C3  UNL     1      43.444  21.768  34.978  1.00  0.00     0.122 C
BRANCH   9  10
HETATM   10  C4  UNL     1      42.844  20.774  35.878  1.00  0.00     0.020 C
BRANCH  10  11
HETATM   11  C5  UNL     1      41.948  21.277  36.938  1.00  0.00     0.002 C
BRANCH  11  12
HETATM   12  C6  UNL     1      40.732  22.018  36.499  1.00  0.00     0.000 C
BRANCH  12  13
HETATM   13  C7  UNL     1      39.562  21.714  37.435  1.00  0.00     0.002 C
BRANCH  13  14
HETATM   14  C8  UNL     1      38.356  21.199  36.726  1.00  0.00     0.020 C
BRANCH  14  15
HETATM   15  C9  UNL     1      38.636  19.848  36.123  1.00  0.00     0.133 C
BRANCH  15  16
HETATM   16  N5  UNL     1      37.421  18.994  36.301  1.00  0.00    -0.307 N
BRANCH  16  17
HETATM   17  C10 UNL     1      36.836  18.975  37.564  1.00  0.00     0.220 C
BRANCH  17  18
HETATM   18  O1  UNL     1      35.567  19.313  37.648  1.00  0.00    -0.332 OA
ATOM     19  H1  UNL     1      35.241  19.950  37.022  1.00  0.00     0.220 HD
ENDBRANCH  17  18
BRANCH  17  20
HETATM   20  N6  UNL     1      37.418  18.644  38.776  1.00  0.00    -0.352 N
ATOM     21  H6  UNL     1      37.422  19.305  39.554  1.00  0.00     0.163 HD
BRANCH  20  22
HETATM   22  C11 UNL     1      38.032  17.310  38.914  1.00  0.00     0.163 C
BRANCH  22  23
HETATM   23  C12 UNL     1      39.470  17.416  39.151  1.00  0.00    -0.017 A
HETATM   24  C13 UNL     1      40.105  18.600  39.370  1.00  0.00     0.011 A
HETATM   25  C14 UNL     1      41.486  18.587  39.535  1.00  0.00     0.002 A
HETATM   26  C15 UNL     1      42.248  17.440  39.489  1.00  0.00     0.026 A
HETATM   27  C16 UNL     1      41.565  16.240  39.262  1.00  0.00     0.056 A
HETATM   28 CL1  UNL     1      42.493  14.736  39.194  1.00  0.00    -0.083 Cl
HETATM   29  C17 UNL     1      40.217  16.241  39.099  1.00  0.00     0.063 A
HETATM   30 CL2  UNL     1      39.396  14.712  38.820  1.00  0.00    -0.082 Cl
ENDBRANCH  22  23
ENDBRANCH  20  22
ENDBRANCH  17  20
ENDBRANCH  16  17
BRANCH  16  31
HETATM   31  C18 UNL     1      36.982  18.353  35.152  1.00  0.00     0.092 C
HETATM   32  S1  UNL     1      36.222  19.147  33.925  1.00  0.00    -0.064 SA
BRANCH  31  33
HETATM   33  C19 UNL     1      37.104  16.860  34.952  1.00  0.00     0.154 C
HETATM   34 BR1  UNL     1      35.551  15.942  35.709  1.00  0.00    -0.089 Br
ENDBRANCH  31  33
ENDBRANCH  16  31
ENDBRANCH  15  16
ENDBRANCH  14  15
ENDBRANCH  13  14
ENDBRANCH  12  13
ENDBRANCH  11  12
ENDBRANCH  10  11
ENDBRANCH   9  10
ENDBRANCH   7   9
TORSDOF 15
ENDMDL