MODEL 5
REMARK VINA RESULT: -6.095514340      3.004      3.804
REMARK  11 active torsions:
REMARK  status: ('A' for Active; 'I' for Inactive)
REMARK       I    between atoms: N1_2  and  C2_4
REMARK    1  A    between atoms: C2_4  and  C3_6
REMARK    2  A    between atoms: C3_6  and  N2_7
REMARK    3  A    between atoms: C3_6  and  C17_25
REMARK    4  A    between atoms: N2_7  and  C4_9
REMARK    5  A    between atoms: C4_9  and  C5_10
REMARK    6  A    between atoms: C4_9  and  N3_22
REMARK    7  A    between atoms: C5_10  and  C6_11
REMARK    8  A    between atoms: C6_11  and  C7_12
REMARK    9  A    between atoms: C7_12  and  C8_13
REMARK   10  A    between atoms: C8_13  and  C9_14
REMARK   11  A    between atoms: C9_14  and  C10_15
ROOT
HETATM    1  C4  UNL     1      42.159  19.684  36.497  1.00  0.00     0.178 C
ENDROOT
BRANCH   1   2
HETATM    2  N2  UNL     1      41.719  20.857  37.239  1.00  0.00    -0.385 N
ATOM      3  H2  UNL     1      42.076  21.010  38.182  1.00  0.00     0.156 HD
BRANCH   2   4
HETATM    4  C3  UNL     1      40.830  21.768  36.701  1.00  0.00     0.207 C
BRANCH   4   5
HETATM    5  C2  UNL     1      40.714  23.121  37.287  1.00  0.00     0.244 C
HETATM    6  N1  UNL     1      41.225  23.400  38.605  1.00  0.00    -0.363 N
HETATM    7  C1  UNL     1      41.147  24.677  39.243  1.00  0.00     0.149 C
ATOM      8  H1  UNL     1      41.672  22.639  39.116  1.00  0.00     0.161 HD
HETATM    9  O1  UNL     1      40.181  24.110  36.715  1.00  0.00    -0.271 OA
ENDBRANCH   4   5
BRANCH   4  10
HETATM   10  C17 UNL     1      39.436  21.191  36.762  1.00  0.00     0.007 A
HETATM   11  C18 UNL     1      38.637  21.153  37.876  1.00  0.00     0.098 A
HETATM   12  N4  UNL     1      37.461  20.572  37.585  1.00  0.00    -0.373 N
HETATM   13  C19 UNL     1      37.490  20.231  36.287  1.00  0.00     0.107 A
ATOM     14  H4  UNL     1      36.687  20.417  38.232  1.00  0.00     0.164 HD
HETATM   15  C20 UNL     1      38.715  20.605  35.740  1.00  0.00     0.036 A
HETATM   16 BR2  UNL     1      39.344  20.396  33.973  1.00  0.00    -0.049 Br
ENDBRANCH   4  10
ENDBRANCH   2   4
ENDBRANCH   1   2
BRANCH   1  17
HETATM   17  C5  UNL     1      43.369  19.943  35.690  1.00  0.00     0.046 C
BRANCH  17  18
HETATM   18  C6  UNL     1      43.164  20.744  34.395  1.00  0.00     0.004 C
BRANCH  18  19
HETATM   19  C7  UNL     1      43.746  22.095  34.493  1.00  0.00     0.000 C
BRANCH  19  20
HETATM   20  C8  UNL     1      45.172  22.231  34.198  1.00  0.00     0.000 C
BRANCH  20  21
HETATM   21  C9  UNL     1      45.842  21.536  33.095  1.00  0.00     0.005 C
BRANCH  21  22
HETATM   22  C10 UNL     1      46.868  20.530  33.443  1.00  0.00    -0.010 C
HETATM   23  C11 UNL     1      47.078  20.464  34.966  1.00  0.00     0.009 C
HETATM   24  C12 UNL     1      47.837  19.153  35.064  1.00  0.00     0.056 C
HETATM   25  C13 UNL     1      47.148  18.259  34.023  1.00  0.00     0.160 C
HETATM   26  F1  UNL     1      48.057  17.680  33.169  1.00  0.00    -0.231 F
HETATM   27 BR1  UNL     1      46.185  16.822  34.924  1.00  0.00    -0.049 Br
HETATM   28  C14 UNL     1      46.179  19.127  33.288  1.00  0.00     0.060 C
ENDBRANCH  21  22
ENDBRANCH  20  21
ENDBRANCH  19  20
ENDBRANCH  18  19
ENDBRANCH  17  18
ENDBRANCH   1  17
BRANCH   1  29
HETATM   29  N3  UNL     1      42.373  18.695  37.488  1.00  0.00    -0.383 N
HETATM   30  C15 UNL     1      42.856  17.427  37.299  1.00  0.00     0.116 C
HETATM   31  C16 UNL     1      41.728  18.944  38.763  1.00  0.00     0.150 C
ENDBRANCH   1  29
TORSDOF 11
ENDMDL