MODEL 2
REMARK VINA RESULT: -6.857513680      1.155      1.439
REMARK  13 active torsions:
REMARK  status: ('A' for Active; 'I' for Inactive)
REMARK    1  A    between atoms: C1_2  and  C2_3
REMARK       I    between atoms: C1_2  and  N1_13
REMARK    2  A    between atoms: C2_3  and  C3_4
REMARK    3  A    between atoms: C3_4  and  C4_5
REMARK    4  A    between atoms: N1_13  and  C10_15
REMARK    5  A    between atoms: C10_15  and  C11_16
REMARK    6  A    between atoms: C11_16  and  C12_17
REMARK    7  A    between atoms: C12_17  and  N2_18
REMARK    8  A    between atoms: N2_18  and  C13_19
REMARK    9  A    between atoms: C16_25  and  N4_26
REMARK   10  A    between atoms: N4_26  and  C17_28
REMARK   11  A    between atoms: C17_28  and  C18_29
REMARK   12  A    between atoms: C18_29  and  C19_30
REMARK   13  A    between atoms: C19_30  and  N5_31
ROOT
HETATM    1  C13 UNL     1      39.420  21.833  36.538  1.00  0.00     0.195 A
HETATM    2  C14 UNL     1      39.864  23.130  36.858  1.00  0.00     0.107 A
HETATM    3  C15 UNL     1      40.837  23.335  37.779  1.00  0.00     0.124 A
HETATM    4 CL3  UNL     1      41.305  25.007  38.095  1.00  0.00    -0.064 Cl
HETATM    5  N3  UNL     1      41.396  22.309  38.402  1.00  0.00    -0.181 N
ATOM      6  H3  UNL     1      42.126  22.477  39.093  1.00  0.00     0.185 HD
HETATM    7  C16 UNL     1      41.005  21.025  38.132  1.00  0.00     0.685 A
HETATM    8  N6  UNL     1      40.060  20.824  37.236  1.00  0.00    -0.164 N
ATOM      9  H6  UNL     1      39.781  19.862  37.046  1.00  0.00     0.187 HD
ENDROOT
BRANCH   1  10
HETATM   10  N2  UNL     1      38.543  21.580  35.761  1.00  0.00    -0.403 NA
BRANCH  10  11
HETATM   11  C12 UNL     1      37.574  21.286  34.895  1.00  0.00     0.159 C
BRANCH  11  12
HETATM   12  C11 UNL     1      36.389  20.567  35.484  1.00  0.00     0.079 C
BRANCH  12  13
HETATM   13  C10 UNL     1      36.479  19.104  35.611  1.00  0.00     0.128 C
BRANCH  13  14
HETATM   14  N1  UNL     1      36.174  18.600  36.921  1.00  0.00    -0.361 N
HETATM   15  C1  UNL     1      37.238  18.278  37.809  1.00  0.00     0.217 C
HETATM   16  O1  UNL     1      38.417  18.442  37.393  1.00  0.00    -0.274 OA
ATOM     17  H1  UNL     1      35.205  18.475  37.212  1.00  0.00     0.162 HD
BRANCH  15  18
HETATM   18  C2  UNL     1      36.935  17.770  39.143  1.00  0.00     0.107 C
BRANCH  18  19
HETATM   19  C3  UNL     1      36.086  18.610  40.018  1.00  0.00     0.049 C
BRANCH  19  20
HETATM   20  C4  UNL     1      34.751  18.168  40.362  1.00  0.00    -0.036 A
HETATM   21  C5  UNL     1      33.697  18.465  39.481  1.00  0.00     0.010 A
HETATM   22  C6  UNL     1      32.401  18.103  39.745  1.00  0.00     0.024 A
HETATM   23  C7  UNL     1      32.092  17.433  40.886  1.00  0.00     0.035 A
HETATM   24 CL1  UNL     1      30.433  17.003  41.195  1.00  0.00    -0.084 Cl
HETATM   25  C8  UNL     1      33.118  17.125  41.776  1.00  0.00     0.048 A
HETATM   26  C9  UNL     1      34.425  17.490  41.513  1.00  0.00     0.042 A
HETATM   27 CL2  UNL     1      35.679  17.077  42.701  1.00  0.00    -0.084 Cl
ENDBRANCH  19  20
ENDBRANCH  18  19
ENDBRANCH  15  18
ENDBRANCH  13  14
ENDBRANCH  12  13
ENDBRANCH  11  12
ENDBRANCH  10  11
ENDBRANCH   1  10
BRANCH   7  28
HETATM   28  N4  UNL     1      41.590  20.112  38.785  1.00  0.00    -0.205 N
ATOM     29  H4  UNL     1      42.061  20.384  39.648  1.00  0.00     0.183 HD
BRANCH  28  30
HETATM   30  C17 UNL     1      41.646  18.751  38.421  1.00  0.00     0.080 C
BRANCH  30  31
HETATM   31  C18 UNL     1      41.436  17.754  39.532  1.00  0.00     0.075 C
BRANCH  31  32
HETATM   32  C19 UNL     1      40.826  16.520  38.936  1.00  0.00     0.277 C
BRANCH  32  33
HETATM   33  N5  UNL     1      41.365  15.284  39.370  1.00  0.00     0.088 N
HETATM   34  C20 UNL     1      42.651  15.220  39.907  1.00  0.00     0.272 C
HETATM   35  C21 UNL     1      43.506  14.898  38.708  1.00  0.00     0.032 C
HETATM   36  C22 UNL     1      42.576  14.101  37.771  1.00  0.00     0.032 C
HETATM   37  C23 UNL     1      41.240  14.205  38.460  1.00  0.00     0.272 C
ENDBRANCH  32  33
ENDBRANCH  31  32
ENDBRANCH  30  31
ENDBRANCH  28  30
ENDBRANCH   7  28
TORSDOF 13
ENDMDL