MODEL 1
REMARK VINA RESULT: -6.584704683      0.000      0.000
REMARK  13 active torsions:
REMARK  status: ('A' for Active; 'I' for Inactive)
REMARK    1  A    between atoms: N1_2  and  C2_3
REMARK    2  A    between atoms: N1_2  and  C18_30
REMARK    3  A    between atoms: C2_3  and  C3_4
REMARK    4  A    between atoms: C3_4  and  C4_5
REMARK    5  A    between atoms: C4_5  and  N2_6
REMARK    6  A    between atoms: N2_6  and  C5_8
REMARK    7  A    between atoms: C8_15  and  N5_16
REMARK    8  A    between atoms: N5_16  and  C9_18
REMARK    9  A    between atoms: C9_18  and  C10_19
REMARK   10  A    between atoms: C13_22  and  C14_23
REMARK   11  A    between atoms: C14_23  and  C15_24
REMARK   12  A    between atoms: C18_30  and  C19_31
REMARK   13  A    between atoms: C19_31  and  C20_32
ROOT
HETATM    1  C5  UNL     1      42.151  21.167  36.953  1.00  0.00     0.145 A
HETATM    2  N3  UNL     1      42.700  21.940  36.020  1.00  0.00    -0.348 N
ATOM      3  H3  UNL     1      42.611  22.954  36.093  1.00  0.00     0.167 HD
HETATM    4  C6  UNL     1      43.366  21.413  34.990  1.00  0.00     0.107 A
HETATM    5  C7  UNL     1      43.480  20.047  34.899  1.00  0.00     0.107 A
HETATM    6  N4  UNL     1      42.938  19.242  35.819  1.00  0.00    -0.348 N
ATOM      7  H4  UNL     1      43.030  18.230  35.738  1.00  0.00     0.167 HD
HETATM    8  C8  UNL     1      42.255  19.799  36.879  1.00  0.00     0.145 A
ENDROOT
BRANCH   1   9
HETATM    9  N2  UNL     1      41.505  21.638  37.967  1.00  0.00    -0.373 N
ATOM     10  H2  UNL     1      41.925  21.469  38.881  1.00  0.00     0.161 HD
BRANCH   9  11
HETATM   11  C4  UNL     1      40.286  22.359  37.968  1.00  0.00     0.123 C
BRANCH  11  12
HETATM   12  C3  UNL     1      39.189  21.790  37.099  1.00  0.00     0.039 C
BRANCH  12  13
HETATM   13  C2  UNL     1      38.539  20.656  37.837  1.00  0.00     0.123 C
BRANCH  13  14
HETATM   14  N1  UNL     1      38.072  19.607  36.987  1.00  0.00    -0.397 N
HETATM   15  C1  UNL     1      38.674  19.488  35.715  1.00  0.00     0.148 C
BRANCH  14  16
HETATM   16  C18 UNL     1      36.673  19.473  37.094  1.00  0.00     0.062 C
BRANCH  16  17
HETATM   17  C19 UNL     1      36.109  18.094  37.141  1.00  0.00     0.083 C
BRANCH  17  18
HETATM   18  C20 UNL     1      35.947  17.574  38.519  1.00  0.00    -0.052 A
HETATM   19  C21 UNL     1      36.214  18.345  39.633  1.00  0.00     0.009 A
HETATM   20  C22 UNL     1      36.048  17.829  40.882  1.00  0.00     0.026 A
HETATM   21  C23 UNL     1      35.614  16.539  41.091  1.00  0.00     0.055 A
HETATM   22 CL1  UNL     1      35.409  15.897  42.726  1.00  0.00    -0.083 Cl
HETATM   23  C24 UNL     1      35.347  15.773  39.978  1.00  0.00     0.056 A
HETATM   24 CL2  UNL     1      34.802  14.144  40.219  1.00  0.00    -0.083 Cl
HETATM   25  C25 UNL     1      35.510  16.283  38.685  1.00  0.00     0.033 A
ENDBRANCH  17  18
ENDBRANCH  16  17
ENDBRANCH  14  16
ENDBRANCH  13  14
ENDBRANCH  12  13
ENDBRANCH  11  12
ENDBRANCH   9  11
ENDBRANCH   1   9
BRANCH   8  26
HETATM   26  N5  UNL     1      41.782  18.955  37.705  1.00  0.00    -0.373 N
ATOM     27  H5  UNL     1      40.870  19.198  38.092  1.00  0.00     0.161 HD
BRANCH  26  28
HETATM   28  C9  UNL     1      42.323  17.731  38.170  1.00  0.00     0.128 C
BRANCH  28  29
HETATM   29  C10 UNL     1      41.600  17.270  39.456  1.00  0.00     0.037 C
HETATM   30  C11 UNL     1      40.150  17.603  39.428  1.00  0.00     0.009 C
HETATM   31  C12 UNL     1      39.299  16.676  38.653  1.00  0.00     0.006 C
HETATM   32  C13 UNL     1      39.647  15.237  38.666  1.00  0.00    -0.002 C
HETATM   33  C16 UNL     1      41.068  14.882  38.919  1.00  0.00     0.042 C
HETATM   34  C17 UNL     1      41.862  15.831  39.743  1.00  0.00     0.176 C
HETATM   35  F1  UNL     1      43.216  15.608  39.450  1.00  0.00    -0.249 F
BRANCH  32  36
HETATM   36  C14 UNL     1      38.700  14.386  39.522  1.00  0.00     0.117 C
BRANCH  36  37
HETATM   37  C15 UNL     1      39.259  13.113  39.939  1.00  0.00     0.172 C
HETATM   38  O1  UNL     1      39.614  12.926  41.121  1.00  0.00    -0.648 OA
HETATM   39  O2  UNL     1      39.409  12.084  39.032  1.00  0.00    -0.648 OA
ENDBRANCH  36  37
ENDBRANCH  32  36
ENDBRANCH  28  29
ENDBRANCH  26  28
ENDBRANCH   8  26
TORSDOF 13
ENDMDL