MODEL 2
REMARK VINA RESULT: -6.794994822      6.644      9.889
REMARK  11 active torsions:
REMARK  status: ('A' for Active; 'I' for Inactive)
REMARK    1  A    between atoms: C4_4  and  C5_5
REMARK    2  A    between atoms: C5_5  and  S1_8
REMARK    3  A    between atoms: S1_8  and  N1_11
REMARK    4  A    between atoms: N1_11  and  C6_13
REMARK    5  A    between atoms: C6_13  and  C7_14
REMARK    6  A    between atoms: C7_14  and  N2_15
REMARK    7  A    between atoms: C10_18  and  C11_19
REMARK    8  A    between atoms: C11_19  and  C12_20
REMARK    9  A    between atoms: C12_20  and  C13_21
REMARK   10  A    between atoms: C13_21  and  C14_22
REMARK   11  A    between atoms: C14_22  and  C15_23
ROOT
HETATM    1  N1  UNL     1      38.755  17.748  36.283  1.00  0.00    -0.309 N
ATOM      2  H1  UNL     1      39.192  16.894  35.938  1.00  0.00     0.172 HD
ENDROOT
BRANCH   1   3
HETATM    3  S1  UNL     1      37.230  17.823  37.134  1.00  0.00     0.300 S
HETATM    4  O1  UNL     1      36.307  18.656  36.253  1.00  0.00    -0.199 OA
HETATM    5  O2  UNL     1      36.616  16.444  37.155  1.00  0.00    -0.199 OA
BRANCH   3   6
HETATM    6  C5  UNL     1      37.345  18.513  38.744  1.00  0.00     0.388 C
HETATM    7  F1  UNL     1      37.420  19.873  38.693  1.00  0.00    -0.181 F
HETATM    8  F2  UNL     1      38.510  17.985  39.364  1.00  0.00    -0.181 F
BRANCH   6   9
HETATM    9  C4  UNL     1      36.177  18.170  39.620  1.00  0.00     0.032 A
HETATM   10  C3  UNL     1      36.413  17.589  40.852  1.00  0.00     0.021 A
HETATM   11  C2  UNL     1      35.407  17.232  41.713  1.00  0.00    -0.054 A
HETATM   12  C1  UNL     1      35.668  16.619  43.004  1.00  0.00     0.049 C
HETATM   13  C20 UNL     1      34.120  17.474  41.307  1.00  0.00    -0.039 A
HETATM   14  C19 UNL     1      33.844  18.051  40.080  1.00  0.00     0.018 A
HETATM   15  C21 UNL     1      33.007  17.114  42.188  1.00  0.00     0.050 C
HETATM   16  C18 UNL     1      34.904  18.404  39.221  1.00  0.00     0.034 A
HETATM   17 BR1  UNL     1      32.076  18.398  39.535  1.00  0.00    -0.051 Br
ENDBRANCH   6   9
ENDBRANCH   3   6
ENDBRANCH   1   3
BRANCH   1  18
HETATM   18  C6  UNL     1      39.290  19.049  36.145  1.00  0.00     0.176 C
BRANCH  18  19
HETATM   19  C7  UNL     1      40.481  19.463  36.895  1.00  0.00     0.078 C
BRANCH  19  20
HETATM   20  N2  UNL     1      41.255  18.621  37.646  1.00  0.00    -0.392 N
HETATM   21  C8  UNL     1      42.439  18.047  37.043  1.00  0.00     0.122 C
HETATM   22  C9  UNL     1      42.439  16.586  37.577  1.00  0.00     0.024 C
HETATM   23  C10 UNL     1      42.551  16.572  39.083  1.00  0.00    -0.012 C
HETATM   24  C16 UNL     1      41.871  17.701  39.773  1.00  0.00     0.024 C
HETATM   25  C17 UNL     1      41.606  18.948  38.990  1.00  0.00     0.122 C
BRANCH  23  26
HETATM   26  C11 UNL     1      41.874  15.265  39.544  1.00  0.00     0.005 C
BRANCH  26  27
HETATM   27  C12 UNL     1      40.758  14.925  38.588  1.00  0.00     0.001 C
BRANCH  27  28
HETATM   28  C13 UNL     1      39.440  14.842  39.310  1.00  0.00     0.007 C
BRANCH  28  29
HETATM   29  C14 UNL     1      38.645  13.683  38.807  1.00  0.00     0.072 C
BRANCH  29  30
HETATM   30  C15 UNL     1      38.793  12.579  39.826  1.00  0.00     0.086 C
HETATM   31  N3  UNL     1      38.509  11.368  39.518  1.00  0.00    -0.391 N
ATOM     32  H32 UNL     1      38.186  11.098  38.589  1.00  0.00     0.157 HD
ATOM     33  H31 UNL     1      38.610  10.622  40.206  1.00  0.00     0.157 HD
HETATM   34  N4  UNL     1      39.240  12.953  41.113  1.00  0.00    -0.088 NA
ENDBRANCH  29  30
ENDBRANCH  28  29
ENDBRANCH  27  28
ENDBRANCH  26  27
ENDBRANCH  23  26
ENDBRANCH  19  20
ENDBRANCH  18  19
ENDBRANCH   1  18
TORSDOF 11
ENDMDL