MODEL 3
REMARK VINA RESULT: -6.092238496      1.230      2.273
REMARK  13 active torsions:
REMARK  status: ('A' for Active; 'I' for Inactive)
REMARK       I    between atoms: N1_2  and  C3_4
REMARK       I    between atoms: C3_4  and  N3_8
REMARK    1  A    between atoms: N3_8  and  C4_10
REMARK    2  A    between atoms: C4_10  and  C5_11
REMARK    3  A    between atoms: C5_11  and  C6_12
REMARK    4  A    between atoms: C6_12  and  C7_13
REMARK    5  A    between atoms: C7_13  and  C8_14
REMARK    6  A    between atoms: C8_14  and  N4_15
REMARK    7  A    between atoms: N5_18  and  C11_19
REMARK    8  A    between atoms: C11_19  and  C12_20
REMARK    9  A    between atoms: C12_20  and  C13_21
REMARK   10  A    between atoms: C13_21  and  C14_22
REMARK   11  A    between atoms: C14_22  and  N6_23
REMARK   12  A    between atoms: N6_23  and  C15_25
REMARK   13  A    between atoms: C22_35  and  C23_36
ROOT
HETATM    1  C11 UNL     1      38.573  20.447  34.094  1.00  0.00     0.117 C
ENDROOT
BRANCH   1   2
HETATM    2  N5  UNL     1      39.550  19.521  34.532  1.00  0.00    -0.409 N
HETATM    3  C10 UNL     1      40.862  19.978  34.781  1.00  0.00     0.147 C
HETATM    4  C9  UNL     1      41.937  19.303  34.018  1.00  0.00     0.291 C
HETATM    5  N4  UNL     1      41.838  17.863  34.207  1.00  0.00     0.091 N
HETATM    6  C26 UNL     1      40.588  17.495  33.548  1.00  0.00     0.291 C
HETATM    7  C25 UNL     1      39.399  18.173  34.132  1.00  0.00     0.147 C
BRANCH   5   8
HETATM    8  C8  UNL     1      41.828  17.572  35.598  1.00  0.00     0.272 C
BRANCH   8   9
HETATM    9  C7  UNL     1      42.895  16.512  35.895  1.00  0.00     0.030 C
BRANCH   9  10
HETATM   10  C6  UNL     1      44.119  17.293  36.305  1.00  0.00     0.003 C
BRANCH  10  11
HETATM   11  C5  UNL     1      45.375  16.591  35.839  1.00  0.00     0.020 C
BRANCH  11  12
HETATM   12  C4  UNL     1      46.084  17.578  34.921  1.00  0.00     0.138 C
BRANCH  12  13
HETATM   13  N3  UNL     1      46.507  18.706  35.712  1.00  0.00    -0.227 N
HETATM   14  C3  UNL     1      47.056  19.843  35.064  1.00  0.00     0.668 C
HETATM   15  N1  UNL     1      46.108  20.764  34.506  1.00  0.00    -0.227 N
HETATM   16  N2  UNL     1      48.313  20.074  34.965  1.00  0.00    -0.235 N
HETATM   17  C1  UNL     1      46.241  21.237  33.149  1.00  0.00     0.168 C
HETATM   18  C2  UNL     1      45.021  21.198  35.357  1.00  0.00     0.168 C
ATOM     19  H22 UNL     1      48.708  20.891  34.500  1.00  0.00     0.174 HD
ATOM     20  H21 UNL     1      48.987  19.419  35.362  1.00  0.00     0.174 HD
ATOM     21  H3  UNL     1      46.413  18.686  36.727  1.00  0.00     0.177 HD
ENDBRANCH  12  13
ENDBRANCH  11  12
ENDBRANCH  10  11
ENDBRANCH   9  10
ENDBRANCH   8   9
ENDBRANCH   5   8
ENDBRANCH   1   2
BRANCH   1  22
HETATM   22  C12 UNL     1      37.161  19.946  34.190  1.00  0.00     0.021 C
BRANCH  22  23
HETATM   23  C13 UNL     1      36.676  19.794  35.588  1.00  0.00     0.021 C
BRANCH  23  24
HETATM   24  C14 UNL     1      36.944  20.970  36.466  1.00  0.00     0.120 C
BRANCH  24  25
HETATM   25  N6  UNL     1      37.652  20.497  37.636  1.00  0.00    -0.389 N
ATOM     26  H6  UNL     1      37.103  20.001  38.338  1.00  0.00     0.159 HD
BRANCH  25  27
HETATM   27  C15 UNL     1      38.885  20.641  37.875  1.00  0.00     0.042 A
HETATM   28  C16 UNL     1      39.513  21.871  37.640  1.00  0.00     0.047 A
HETATM   29  C17 UNL     1      40.854  22.067  37.866  1.00  0.00     0.090 A
HETATM   30  N7  UNL     1      41.561  21.031  38.325  1.00  0.00    -0.365 N
HETATM   31  C18 UNL     1      41.030  19.811  38.577  1.00  0.00     0.046 A
ATOM     32  H7  UNL     1      42.558  21.167  38.495  1.00  0.00     0.165 HD
HETATM   33  C19 UNL     1      41.842  18.809  39.038  1.00  0.00     0.054 A
HETATM   34  C24 UNL     1      39.650  19.607  38.346  1.00  0.00     0.029 A
HETATM   35  C20 UNL     1      41.316  17.581  39.284  1.00  0.00     0.036 A
HETATM   36 CL1  UNL     1      42.338  16.263  39.884  1.00  0.00    -0.084 Cl
HETATM   37  C21 UNL     1      40.000  17.387  39.064  1.00  0.00     0.037 A
HETATM   38  C22 UNL     1      39.098  18.375  38.589  1.00  0.00     0.022 A
BRANCH  38  39
HETATM   39  C23 UNL     1      37.713  17.975  38.442  1.00  0.00     0.387 C
HETATM   40  F1  UNL     1      37.260  18.090  39.802  1.00  0.00    -0.209 F
HETATM   41  F2  UNL     1      37.596  16.561  38.331  1.00  0.00    -0.209 F
ENDBRANCH  38  39
ENDBRANCH  25  27
ENDBRANCH  24  25
ENDBRANCH  23  24
ENDBRANCH  22  23
ENDBRANCH   1  22
TORSDOF 13
ENDMDL