MODEL 2
REMARK VINA RESULT: -6.318462801      1.509      2.124
REMARK  13 active torsions:
REMARK  status: ('A' for Active; 'I' for Inactive)
REMARK    1  A    between atoms: C1_2  and  C2_3
REMARK       I    between atoms: C1_2  and  N5_33
REMARK    2  A    between atoms: C2_3  and  C3_4
REMARK    3  A    between atoms: C3_4  and  C4_5
REMARK    4  A    between atoms: C4_5  and  N1_7
REMARK    5  A    between atoms: N1_7  and  C5_9
REMARK    6  A    between atoms: C5_9  and  C6_10
REMARK    7  A    between atoms: C6_10  and  C7_11
REMARK    8  A    between atoms: C7_11  and  N2_12
REMARK    9  A    between atoms: N2_12  and  C8_15
REMARK   10  A    between atoms: C8_15  and  C9_16
REMARK   11  A    between atoms: C9_16  and  C10_17
REMARK   12  A    between atoms: C10_17  and  N3_18
REMARK   13  A    between atoms: N3_18  and  C11_20
ROOT
HETATM    1  N2  UNL     1      37.159  21.221  32.846  1.00  0.00    -0.075 N
ATOM      2  H21 UNL     1      36.677  21.547  32.008  1.00  0.00     0.277 HD
ATOM      3  H22 UNL     1      37.830  21.979  32.966  1.00  0.00     0.277 HD
ENDROOT
BRANCH   1   4
HETATM    4  C7  UNL     1      37.836  19.989  32.587  1.00  0.00     0.234 C
BRANCH   4   5
HETATM    5  C6  UNL     1      39.339  20.069  32.683  1.00  0.00     0.047 C
BRANCH   5   6
HETATM    6  C5  UNL     1      39.785  19.492  34.004  1.00  0.00     0.122 C
BRANCH   6   7
HETATM    7  N1  UNL     1      40.667  20.417  34.671  1.00  0.00    -0.384 N
ATOM      8  H1  UNL     1      40.284  21.296  35.020  1.00  0.00     0.160 HD
BRANCH   7   9
HETATM    9  C4  UNL     1      42.040  20.153  34.860  1.00  0.00     0.073 C
HETATM   10  S1  UNL     1      42.531  18.634  35.156  1.00  0.00    -0.066 SA
BRANCH   9  11
HETATM   11  C3  UNL     1      43.016  21.255  34.787  1.00  0.00     0.078 C
BRANCH  11  12
HETATM   12  C2  UNL     1      43.539  21.353  33.372  1.00  0.00     0.110 C
BRANCH  12  13
HETATM   13  C1  UNL     1      44.437  22.532  33.209  1.00  0.00     0.220 C
HETATM   14  O1  UNL     1      44.877  23.127  34.224  1.00  0.00    -0.273 OA
HETATM   15  N5  UNL     1      44.798  22.982  31.915  1.00  0.00    -0.352 N
HETATM   16  C20 UNL     1      44.269  22.288  30.732  1.00  0.00     0.128 C
HETATM   17  C24 UNL     1      45.659  24.098  31.668  1.00  0.00     0.128 C
HETATM   18  C21 UNL     1      43.360  23.336  30.084  1.00  0.00     0.057 C
HETATM   19  C22 UNL     1      44.250  24.439  29.596  1.00  0.00     0.173 C
HETATM   20  F1  UNL     1      45.015  23.947  28.556  1.00  0.00    -0.249 F
HETATM   21  C23 UNL     1      45.084  25.077  30.676  1.00  0.00     0.057 C
ENDBRANCH  12  13
ENDBRANCH  11  12
ENDBRANCH   9  11
ENDBRANCH   7   9
ENDBRANCH   6   7
ENDBRANCH   5   6
ENDBRANCH   4   5
ENDBRANCH   1   4
BRANCH   1  22
HETATM   22  C8  UNL     1      36.246  21.171  33.967  1.00  0.00     0.234 C
BRANCH  22  23
HETATM   23  C9  UNL     1      36.933  21.666  35.228  1.00  0.00     0.047 C
BRANCH  23  24
HETATM   24  C10 UNL     1      37.078  20.557  36.238  1.00  0.00     0.121 C
BRANCH  24  25
HETATM   25  N3  UNL     1      37.700  20.944  37.456  1.00  0.00    -0.389 N
ATOM     26  H3  UNL     1      37.067  21.137  38.232  1.00  0.00     0.159 HD
BRANCH  25  27
HETATM   27  C11 UNL     1      38.931  21.081  37.708  1.00  0.00     0.042 A
HETATM   28  C12 UNL     1      39.572  22.279  37.550  1.00  0.00     0.047 A
HETATM   29  C13 UNL     1      40.912  22.356  37.835  1.00  0.00     0.090 A
HETATM   30  N4  UNL     1      41.605  21.276  38.266  1.00  0.00    -0.365 N
HETATM   31  C14 UNL     1      41.000  20.078  38.432  1.00  0.00     0.046 A
ATOM     32  H4  UNL     1      42.600  21.367  38.468  1.00  0.00     0.165 HD
HETATM   33  C15 UNL     1      41.740  19.015  38.870  1.00  0.00     0.056 A
HETATM   34  C19 UNL     1      39.639  19.960  38.154  1.00  0.00     0.019 A
HETATM   35  C16 UNL     1      41.105  17.804  39.032  1.00  0.00     0.058 A
HETATM   36 CL1  UNL     1      42.008  16.405  39.593  1.00  0.00    -0.082 Cl
HETATM   37  C17 UNL     1      39.751  17.649  38.765  1.00  0.00     0.056 A
HETATM   38 CL2  UNL     1      38.982  16.074  38.991  1.00  0.00    -0.083 Cl
HETATM   39  C18 UNL     1      39.028  18.738  38.325  1.00  0.00     0.041 A
ENDBRANCH  25  27
ENDBRANCH  24  25
ENDBRANCH  23  24
ENDBRANCH  22  23
ENDBRANCH   1  22
TORSDOF 13
ENDMDL