MODEL 4
REMARK VINA RESULT: -6.881695427      2.011      2.870
REMARK  11 active torsions:
REMARK  status: ('A' for Active; 'I' for Inactive)
REMARK       I    between atoms: C1_2  and  N1_3
REMARK    1  A    between atoms: C1_2  and  C11_16
REMARK    2  A    between atoms: N1_3  and  C2_5
REMARK    3  A    between atoms: C2_5  and  C3_6
REMARK    4  A    between atoms: C3_6  and  C4_7
REMARK    5  A    between atoms: C4_7  and  C5_8
REMARK    6  A    between atoms: C16_24  and  C17_25
REMARK    7  A    between atoms: C17_25  and  N3_26
REMARK    8  A    between atoms: N3_26  and  C18_29
REMARK    9  A    between atoms: C18_29  and  C19_30
REMARK   10  A    between atoms: C19_30  and  C20_31
REMARK   11  A    between atoms: C20_31  and  N4_32
ROOT
HETATM    1  C11 UNL     1      41.593  20.907  37.736  1.00  0.00     0.180 C
HETATM    2  N2  UNL     1      41.523  22.232  38.261  1.00  0.00    -0.371 N
ATOM      3  H2  UNL     1      42.108  22.369  39.086  1.00  0.00     0.161 HD
HETATM    4  C12 UNL     1      40.811  23.403  37.879  1.00  0.00     0.074 C
HETATM    5  S1  UNL     1      40.969  24.727  38.831  1.00  0.00    -0.066 SA
HETATM    6  C13 UNL     1      39.927  23.544  36.689  1.00  0.00     0.069 C
HETATM    7  C14 UNL     1      39.310  22.236  36.299  1.00  0.00     0.007 C
HETATM    8  C15 UNL     1      39.120  21.272  37.450  1.00  0.00     0.009 C
HETATM    9  C16 UNL     1      40.213  20.271  37.600  1.00  0.00     0.043 C
ENDROOT
BRANCH   1  10
HETATM   10  C1  UNL     1      42.271  20.797  36.419  1.00  0.00     0.240 C
HETATM   11  O1  UNL     1      42.006  19.852  35.669  1.00  0.00    -0.271 OA
HETATM   12  N1  UNL     1      43.205  21.777  36.054  1.00  0.00    -0.359 N
ATOM     13  H1  UNL     1      43.352  22.530  36.726  1.00  0.00     0.162 HD
BRANCH  12  14
HETATM   14  C2  UNL     1      43.979  21.846  34.847  1.00  0.00     0.123 C
BRANCH  14  15
HETATM   15  C3  UNL     1      45.418  21.556  35.093  1.00  0.00     0.024 C
BRANCH  15  16
HETATM   16  C4  UNL     1      46.180  21.468  33.757  1.00  0.00     0.042 C
BRANCH  16  17
HETATM   17  C5  UNL     1      46.432  20.067  33.402  1.00  0.00    -0.036 A
HETATM   18  C6  UNL     1      45.689  19.502  32.368  1.00  0.00     0.010 A
HETATM   19  C7  UNL     1      45.833  18.207  31.962  1.00  0.00     0.024 A
HETATM   20  C8  UNL     1      46.755  17.423  32.604  1.00  0.00     0.035 A
HETATM   21 CL1  UNL     1      46.960  15.747  32.098  1.00  0.00    -0.084 Cl
HETATM   22  C9  UNL     1      47.513  17.937  33.632  1.00  0.00     0.048 A
HETATM   23  C10 UNL     1      47.348  19.277  34.034  1.00  0.00     0.042 A
HETATM   24 CL2  UNL     1      48.310  19.907  35.344  1.00  0.00    -0.084 Cl
ENDBRANCH  16  17
ENDBRANCH  15  16
ENDBRANCH  14  15
ENDBRANCH  12  14
ENDBRANCH   1  10
BRANCH   9  25
HETATM   25  C17 UNL     1      39.968  19.416  38.812  1.00  0.00     0.239 C
BRANCH  25  26
HETATM   26  N3  UNL     1      41.214  18.945  39.329  1.00  0.00    -0.075 N
ATOM     27  H32 UNL     1      41.973  19.164  38.684  1.00  0.00     0.277 HD
ATOM     28  H31 UNL     1      41.501  19.504  40.132  1.00  0.00     0.277 HD
BRANCH  26  29
HETATM   29  C18 UNL     1      41.227  17.555  39.659  1.00  0.00     0.234 C
BRANCH  29  30
HETATM   30  C19 UNL     1      42.418  16.831  39.144  1.00  0.00     0.057 C
BRANCH  30  31
HETATM   31  C20 UNL     1      42.701  17.189  37.701  1.00  0.00     0.274 C
BRANCH  31  32
HETATM   32  N4  UNL     1      42.721  15.968  36.926  1.00  0.00     0.088 N
HETATM   33  C21 UNL     1      43.524  15.007  37.639  1.00  0.00     0.275 C
HETATM   34  C22 UNL     1      44.680  14.573  36.744  1.00  0.00     0.067 C
HETATM   35  C23 UNL     1      45.447  15.843  36.387  1.00  0.00     0.173 C
HETATM   36  F1  UNL     1      46.594  15.488  35.692  1.00  0.00    -0.249 F
HETATM   37  C24 UNL     1      44.607  16.697  35.502  1.00  0.00     0.067 C
HETATM   38  C25 UNL     1      43.157  16.261  35.602  1.00  0.00     0.275 C
ENDBRANCH  31  32
ENDBRANCH  30  31
ENDBRANCH  29  30
ENDBRANCH  26  29
ENDBRANCH  25  26
ENDBRANCH   9  25
TORSDOF 11
ENDMDL