MODEL 1
REMARK VINA RESULT: -6.956120551      0.000      0.000
REMARK  14 active torsions:
REMARK  status: ('A' for Active; 'I' for Inactive)
REMARK       I    between atoms: C1_2  and  N1_3
REMARK    1  A    between atoms: C1_2  and  C25_39
REMARK    2  A    between atoms: N1_3  and  C2_5
REMARK    3  A    between atoms: C2_5  and  C3_6
REMARK    4  A    between atoms: C3_6  and  C4_7
REMARK    5  A    between atoms: C4_7  and  C5_8
REMARK    6  A    between atoms: C5_8  and  C6_9
REMARK    7  A    between atoms: C6_9  and  C7_10
REMARK    8  A    between atoms: C7_10  and  N2_11
REMARK    9  A    between atoms: N2_11  and  C8_13
REMARK   10  A    between atoms: C9_16  and  N4_17
REMARK   11  A    between atoms: N4_17  and  C10_19
REMARK   12  A    between atoms: C10_19  and  C11_20
REMARK   13  A    between atoms: C11_20  and  C12_21
REMARK   14  A    between atoms: C16_26  and  C17_27
ROOT
HETATM    1  C8  UNL     1      39.954  14.664  39.021  1.00  0.00     0.125 A
HETATM    2  N3  UNL     1      39.718  13.675  39.886  1.00  0.00    -0.176 N
ATOM      3  H3  UNL     1      40.509  13.138  40.242  1.00  0.00     0.186 HD
HETATM    4  C9  UNL     1      38.482  13.356  40.308  1.00  0.00     0.679 A
HETATM    5  N5  UNL     1      37.450  14.093  39.814  1.00  0.00    -0.195 N
ATOM      6  H5  UNL     1      36.504  13.867  40.122  1.00  0.00     0.184 HD
HETATM    7  C19 UNL     1      37.611  15.097  38.947  1.00  0.00     0.036 A
HETATM    8  C20 UNL     1      38.882  15.406  38.528  1.00  0.00     0.009 A
HETATM    9  C21 UNL     1      39.071  16.512  37.565  1.00  0.00     0.044 C
HETATM   10  C22 UNL     1      38.091  17.594  37.917  1.00  0.00     0.005 C
HETATM   11  C23 UNL     1      36.662  17.136  37.867  1.00  0.00     0.006 C
HETATM   12  C24 UNL     1      36.407  15.819  38.486  1.00  0.00     0.058 C
ENDROOT
BRANCH   1  13
HETATM   13  N2  UNL     1      41.123  15.007  38.587  1.00  0.00    -0.375 N
ATOM     14  H2  UNL     1      41.323  14.851  37.599  1.00  0.00     0.161 HD
BRANCH  13  15
HETATM   15  C7  UNL     1      42.144  15.583  39.383  1.00  0.00     0.121 C
BRANCH  15  16
HETATM   16  C6  UNL     1      42.299  17.041  39.228  1.00  0.00     0.020 C
BRANCH  16  17
HETATM   17  C5  UNL     1      41.356  17.951  39.918  1.00  0.00     0.002 C
BRANCH  17  18
HETATM   18  C4  UNL     1      41.087  19.281  39.305  1.00  0.00     0.005 C
BRANCH  18  19
HETATM   19  C3  UNL     1      41.800  19.425  38.006  1.00  0.00     0.044 C
BRANCH  19  20
HETATM   20  C2  UNL     1      41.822  20.733  37.361  1.00  0.00     0.064 C
BRANCH  20  21
HETATM   21  N1  UNL     1      41.399  21.884  38.050  1.00  0.00    -0.340 N
HETATM   22  C1  UNL     1      40.791  23.077  37.690  1.00  0.00     0.225 C
HETATM   23  O1  UNL     1      40.461  23.446  36.559  1.00  0.00    -0.273 OA
ATOM     24  H1  UNL     1      41.583  21.828  39.051  1.00  0.00     0.167 HD
BRANCH  22  25
HETATM   25  C25 UNL     1      40.478  24.077  38.806  1.00  0.00     0.078 A
HETATM   26  C26 UNL     1      40.469  25.517  38.454  1.00  0.00     0.015 A
HETATM   27  C27 UNL     1      41.644  24.948  39.157  1.00  0.00     0.015 A
ENDBRANCH  22  25
ENDBRANCH  20  21
ENDBRANCH  19  20
ENDBRANCH  18  19
ENDBRANCH  17  18
ENDBRANCH  16  17
ENDBRANCH  15  16
ENDBRANCH  13  15
ENDBRANCH   1  13
BRANCH   4  28
HETATM   28  N4  UNL     1      38.260  12.401  41.143  1.00  0.00    -0.226 N
ATOM     29  H4  UNL     1      39.012  11.782  41.449  1.00  0.00     0.177 HD
BRANCH  28  30
HETATM   30  C10 UNL     1      36.909  12.235  41.633  1.00  0.00     0.142 C
BRANCH  30  31
HETATM   31  C11 UNL     1      36.672  13.026  42.904  1.00  0.00     0.058 C
BRANCH  31  32
HETATM   32  C12 UNL     1      35.560  13.970  42.760  1.00  0.00    -0.056 A
HETATM   33  C13 UNL     1      34.292  13.525  43.131  1.00  0.00     0.009 A
HETATM   34  C14 UNL     1      33.182  14.336  43.032  1.00  0.00     0.025 A
HETATM   35  C15 UNL     1      33.299  15.624  42.557  1.00  0.00     0.045 A
HETATM   36 CL1  UNL     1      31.898  16.685  42.418  1.00  0.00    -0.084 Cl
HETATM   37  C16 UNL     1      34.560  16.088  42.180  1.00  0.00     0.028 A
HETATM   38  C18 UNL     1      35.663  15.259  42.287  1.00  0.00     0.021 A
BRANCH  37  39
HETATM   39  C17 UNL     1      34.638  17.474  41.677  1.00  0.00     0.388 C
HETATM   40  F1  UNL     1      35.978  17.859  41.612  1.00  0.00    -0.209 F
HETATM   41  F2  UNL     1      34.113  17.461  40.385  1.00  0.00    -0.209 F
ENDBRANCH  37  39
ENDBRANCH  31  32
ENDBRANCH  30  31
ENDBRANCH  28  30
ENDBRANCH   4  28
TORSDOF 14
ENDMDL