MODEL 5
REMARK VINA RESULT: -6.746143533      3.592      5.590
REMARK  9 active torsions:
REMARK  status: ('A' for Active; 'I' for Inactive)
REMARK    1  A    between atoms: C2_2  and  C3_3
REMARK    2  A    between atoms: C3_3  and  C4_4
REMARK    3  A    between atoms: C4_4  and  C5_5
REMARK    4  A    between atoms: C5_5  and  O1_6
REMARK    5  A    between atoms: C5_5  and  C6_8
REMARK    6  A    between atoms: C9_13  and  C10_14
REMARK    7  A    between atoms: C10_14  and  O3_15
REMARK    8  A    between atoms: C10_14  and  C11_17
REMARK    9  A    between atoms: C15_21  and  O4_22
ROOT
HETATM    1  C6  UNL     1      -4.207   3.302  12.137  1.00  0.00     0.159 C
HETATM    2  O2  UNL     1      -5.219   4.212  12.533  1.00  0.00    -0.282 OA
HETATM    3  N1  UNL     1      -4.371   4.978  13.257  1.00  0.00    -0.184 NA
HETATM    4  C7  UNL     1      -3.961   6.148  12.478  1.00  0.00     0.127 C
HETATM    5  C8  UNL     1      -4.592   5.993  11.150  1.00  0.00     0.015 C
HETATM    6  C9  UNL     1      -4.598   7.147  10.209  1.00  0.00     0.023 C
HETATM    7  C14 UNL     1      -5.031   6.402   8.926  1.00  0.00     0.039 C
HETATM    8  C15 UNL     1      -4.468   4.977   9.074  1.00  0.00     0.123 C
HETATM    9  C16 UNL     1      -3.720   5.021  10.355  1.00  0.00     0.031 C
HETATM   10  C17 UNL     1      -3.391   3.750  11.024  1.00  0.00     0.060 C
HETATM   11  C18 UNL     1      -2.022   3.918  11.594  1.00  0.00    -0.020 C
HETATM   12  C19 UNL     1      -2.130   3.975  12.902  1.00  0.00    -0.005 C
HETATM   13  C20 UNL     1      -3.518   3.856  13.344  1.00  0.00     0.152 C
ENDROOT
BRANCH   1  14
HETATM   14  C5  UNL     1      -4.671   1.926  12.128  1.00  0.00     0.082 C
BRANCH  14  15
HETATM   15  C4  UNL     1      -4.228   0.704  12.676  1.00  0.00     0.031 C
BRANCH  15  16
HETATM   16  C3  UNL     1      -4.312  -0.500  12.209  1.00  0.00    -0.024 C
BRANCH  16  17
HETATM   17  C2  UNL     1      -3.359  -1.022  11.162  1.00  0.00     0.022 C
HETATM   18  C1  UNL     1      -2.953  -2.437  11.462  1.00  0.00     0.009 C
ENDBRANCH  16  17
ENDBRANCH  15  16
ENDBRANCH  14  15
BRANCH  14  19
HETATM   19  O1  UNL     1      -5.793   1.797  11.423  1.00  0.00    -0.362 OA
ATOM     20  H1  UNL     1      -5.762   1.070  10.812  1.00  0.00     0.217 HD
ENDBRANCH  14  19
ENDBRANCH   1  14
BRANCH   8  21
HETATM   21  O4  UNL     1      -5.449   4.014   9.016  1.00  0.00    -0.395 OA
ATOM     22  H4  UNL     1      -5.942   4.045   8.205  1.00  0.00     0.210 HD
ENDBRANCH   8  21
BRANCH   6  23
HETATM   23  C10 UNL     1      -5.619   8.190  10.526  1.00  0.00     0.126 C
BRANCH  23  24
HETATM   24  O3  UNL     1      -5.686   9.183   9.536  1.00  0.00    -0.395 OA
ATOM     25  H3  UNL     1      -6.506   9.661   9.563  1.00  0.00     0.210 HD
ENDBRANCH  23  24
BRANCH  23  26
HETATM   26  C11 UNL     1      -7.027   7.688  10.674  1.00  0.00     0.006 C
HETATM   27  C12 UNL     1      -7.544   7.905  12.103  1.00  0.00     0.012 C
HETATM   28  C13 UNL     1      -8.038   8.205   9.727  1.00  0.00     0.012 C
ENDBRANCH  23  26
ENDBRANCH   6  23
TORSDOF 9
ENDMDL