MODEL 3
REMARK VINA RESULT: -6.973025419      1.560      1.746
REMARK  5 active torsions:
REMARK  status: ('A' for Active; 'I' for Inactive)
REMARK    1  A    between atoms: S1_3  and  C2_4
REMARK    2  A    between atoms: C2_4  and  C3_5
REMARK    3  A    between atoms: C3_5  and  N2_6
REMARK    4  A    between atoms: C3_5  and  C10_17
REMARK       I    between atoms: N2_6  and  C4_8
REMARK       I    between atoms: C4_8  and  N3_10
REMARK       I    between atoms: C10_17  and  N4_19
REMARK    5  A    between atoms: N4_19  and  C11_21
ROOT
HETATM    1  N1  UNL     1      -5.158   4.452   7.666  1.00  0.00    -0.184 NA
HETATM    2  C1  UNL     1      -4.848   4.888   8.690  1.00  0.00     0.133 C
HETATM    3  S1  UNL     1      -4.399   5.569  10.277  1.00  0.00    -0.048 SA
ENDROOT
BRANCH   3   4
HETATM    4  C2  UNL     1      -4.380   4.247  11.472  1.00  0.00     0.125 C
BRANCH   4   5
HETATM    5  C3  UNL     1      -4.506   4.792  12.881  1.00  0.00     0.188 C
BRANCH   5   6
HETATM    6  N2  UNL     1      -4.576   3.604  13.777  1.00  0.00    -0.329 N
HETATM    7  C4  UNL     1      -5.508   3.645  14.833  1.00  0.00     0.319 C
HETATM    8  O1  UNL     1      -6.240   4.665  14.985  1.00  0.00    -0.247 OA
HETATM    9  N3  UNL     1      -5.627   2.535  15.734  1.00  0.00    -0.332 N
HETATM   10  C5  UNL     1      -6.621   2.723  16.766  1.00  0.00     0.129 C
HETATM   11  C9  UNL     1      -4.734   1.454  15.429  1.00  0.00     0.153 C
HETATM   12  C6  UNL     1      -7.463   1.489  17.013  1.00  0.00     0.046 C
HETATM   13  C7  UNL     1      -6.633   0.363  17.596  1.00  0.00     0.169 C
HETATM   14  O2  UNL     1      -5.271   0.702  17.600  1.00  0.00    -0.389 OA
HETATM   15  C8  UNL     1      -4.774   0.299  16.365  1.00  0.00     0.187 C
ATOM     16  H2  UNL     1      -3.973   2.794  13.633  1.00  0.00     0.165 HD
ENDBRANCH   5   6
BRANCH   5  17
HETATM   17  C10 UNL     1      -3.351   5.582  13.321  1.00  0.00     0.241 C
HETATM   18  O3  UNL     1      -2.187   5.075  13.191  1.00  0.00    -0.271 OA
HETATM   19  N4  UNL     1      -3.453   6.851  13.874  1.00  0.00    -0.355 N
ATOM     20  H4  UNL     1      -4.374   7.274  13.991  1.00  0.00     0.162 HD
BRANCH  19  21
HETATM   21  C11 UNL     1      -2.250   7.604  14.299  1.00  0.00     0.084 C
HETATM   22  C12 UNL     1      -1.908   8.596  13.260  1.00  0.00     0.025 C
HETATM   23  C13 UNL     1      -2.149  10.036  13.601  1.00  0.00     0.002 C
HETATM   24  C14 UNL     1      -1.499  10.447  14.901  1.00  0.00     0.000 C
HETATM   25  C15 UNL     1      -1.399   9.276  15.858  1.00  0.00     0.002 C
HETATM   26  C16 UNL     1      -2.505   8.276  15.616  1.00  0.00     0.025 C
ENDBRANCH  19  21
ENDBRANCH   5  17
ENDBRANCH   4   5
ENDBRANCH   3   4
TORSDOF 5
ENDMDL