MODEL 5
REMARK VINA RESULT: -6.942020737      3.171      5.758
REMARK  6 active torsions:
REMARK  status: ('A' for Active; 'I' for Inactive)
REMARK    1  A    between atoms: C2_2  and  N1_3
REMARK    2  A    between atoms: C5_6  and  C6_7
REMARK    3  A    between atoms: C6_7  and  N2_8
REMARK    4  A    between atoms: C8_13  and  N4_14
REMARK    5  A    between atoms: C11_19  and  N6_20
REMARK    6  A    between atoms: N6_20  and  C12_22
ROOT
HETATM    1  N2  UNL     1      -5.586   6.003  13.699  1.00  0.00    -0.225 N
ATOM      2  H2  UNL     1      -6.315   6.279  14.358  1.00  0.00     0.177 HD
HETATM    3  C7  UNL     1      -5.122   4.816  13.836  1.00  0.00     0.707 A
HETATM    4  N3  UNL     1      -5.644   4.052  14.842  1.00  0.00    -0.021 N
ATOM      5  H3  UNL     1      -6.371   4.457  15.431  1.00  0.00     0.203 HD
HETATM    6  C8  UNL     1      -5.248   2.799  15.092  1.00  0.00     0.708 A
HETATM    7  N5  UNL     1      -4.294   2.285  14.309  1.00  0.00    -0.021 N
ATOM      8  H5  UNL     1      -3.974   1.332  14.478  1.00  0.00     0.203 HD
HETATM    9  C11 UNL     1      -3.736   3.003  13.291  1.00  0.00     0.707 A
HETATM   10  N7  UNL     1      -4.169   4.258  13.081  1.00  0.00    -0.022 N
ATOM     11  H7  UNL     1      -3.759   4.802  12.322  1.00  0.00     0.203 HD
ENDROOT
BRANCH   1  12
HETATM   12  C6  UNL     1      -5.212   6.981  12.741  1.00  0.00     0.142 C
BRANCH  12  13
HETATM   13  C5  UNL     1      -6.269   6.951  11.632  1.00  0.00     0.007 C
HETATM   14  C4  UNL     1      -5.626   6.833  10.268  1.00  0.00     0.036 C
HETATM   15  C3  UNL     1      -6.404   7.636   9.231  1.00  0.00     0.272 C
HETATM   16  N1  UNL     1      -6.236   9.061   9.453  1.00  0.00     0.088 N
HETATM   17  C18 UNL     1      -5.985   9.254  10.875  1.00  0.00     0.272 C
HETATM   18  C17 UNL     1      -6.918   8.343  11.647  1.00  0.00     0.036 C
BRANCH  16  19
HETATM   19  C2  UNL     1      -7.393   9.831   9.057  1.00  0.00     0.268 C
HETATM   20  C1  UNL     1      -8.396   8.968   8.355  1.00  0.00     0.037 C
ENDBRANCH  16  19
ENDBRANCH  12  13
ENDBRANCH   1  12
BRANCH   6  21
HETATM   21  N4  UNL     1      -5.799   2.012  16.143  1.00  0.00    -0.225 N
HETATM   22  C9  UNL     1      -5.108   0.786  16.487  1.00  0.00     0.168 C
HETATM   23  C10 UNL     1      -6.997   2.427  16.828  1.00  0.00     0.168 C
ENDBRANCH   6  21
BRANCH   9  24
HETATM   24  N6  UNL     1      -2.826   2.516  12.539  1.00  0.00    -0.220 N
ATOM     25  H6  UNL     1      -1.838   2.686  12.724  1.00  0.00     0.178 HD
BRANCH  24  26
HETATM   26  C12 UNL     1      -3.254   1.710  11.411  1.00  0.00     0.099 C
HETATM   27  C13 UNL     1      -4.678   1.257  11.500  1.00  0.00     0.026 C
HETATM   28  C14 UNL     1      -4.638  -0.021  10.650  1.00  0.00     0.002 C
HETATM   29  C15 UNL     1      -3.407  -0.692  11.179  1.00  0.00     0.002 C
HETATM   30  C16 UNL     1      -2.413   0.462  11.266  1.00  0.00     0.026 C
ENDBRANCH  24  26
ENDBRANCH   9  24
TORSDOF 6
ENDMDL