MODEL 5
REMARK VINA RESULT: -6.954051123      2.444      7.786
REMARK  6 active torsions:
REMARK  status: ('A' for Active; 'I' for Inactive)
REMARK    1  A    between atoms: C2_2  and  O1_3
REMARK    2  A    between atoms: C2_2  and  C3_5
REMARK    3  A    between atoms: C2_2  and  C14_21
REMARK       I    between atoms: C3_5  and  N1_7
REMARK    4  A    between atoms: N1_7  and  C4_9
REMARK    5  A    between atoms: C4_9  and  C5_10
REMARK    6  A    between atoms: C5_10  and  N2_11
ROOT
HETATM    1  C3  UNL     1      -3.344   2.106  11.826  1.00  0.00     0.252 C
HETATM    2  O2  UNL     1      -2.157   1.725  11.977  1.00  0.00    -0.270 OA
HETATM    3  N1  UNL     1      -3.524   3.347  11.154  1.00  0.00    -0.357 N
ATOM      4  H1  UNL     1      -4.470   3.698  11.007  1.00  0.00     0.162 HD
ENDROOT
BRANCH   3   5
HETATM    5  C4  UNL     1      -2.383   4.141  10.664  1.00  0.00     0.153 C
BRANCH   5   6
HETATM    6  C5  UNL     1      -2.862   5.501  10.280  1.00  0.00     0.296 C
BRANCH   6   7
HETATM    7  N2  UNL     1      -4.266   5.693  10.389  1.00  0.00     0.127 N
HETATM    8  C6  UNL     1      -4.683   6.782  11.207  1.00  0.00     0.302 C
HETATM    9  C7  UNL     1      -6.067   7.071  10.726  1.00  0.00     0.201 C
HETATM   10  O3  UNL     1      -6.186   6.495   9.471  1.00  0.00    -0.350 OA
HETATM   11  C8  UNL     1      -4.983   5.862   9.188  1.00  0.00     0.261 C
HETATM   12  C9  UNL     1      -4.188   6.842   8.314  1.00  0.00     0.072 C
HETATM   13  C13 UNL     1      -5.258   4.649   8.377  1.00  0.00     0.072 C
HETATM   14  C10 UNL     1      -5.073   7.340   7.197  1.00  0.00     0.005 C
HETATM   15  C11 UNL     1      -5.529   6.171   6.384  1.00  0.00     0.000 C
HETATM   16  C12 UNL     1      -6.057   5.021   7.161  1.00  0.00     0.005 C
ENDBRANCH   6   7
ENDBRANCH   5   6
ENDBRANCH   3   5
BRANCH   1  17
HETATM   17  C2  UNL     1      -4.520   1.371  12.285  1.00  0.00     0.138 C
HETATM   18  C1  UNL     1      -4.394  -0.095  11.894  1.00  0.00     0.057 C
BRANCH  17  19
HETATM   19  O1  UNL     1      -5.695   1.818  11.658  1.00  0.00    -0.380 OA
ATOM     20  H1  UNL     1      -6.298   2.004  12.367  1.00  0.00     0.211 HD
ENDBRANCH  17  19
BRANCH  17  21
HETATM   21  C14 UNL     1      -4.793   1.450  13.768  1.00  0.00     0.033 C
HETATM   22  C15 UNL     1      -4.394   0.227  14.514  1.00  0.00     0.034 C
HETATM   23  C16 UNL     1      -4.635   0.515  15.989  1.00  0.00     0.168 C
HETATM   24  O4  UNL     1      -3.698   1.439  16.365  1.00  0.00    -0.391 OA
HETATM   25  C17 UNL     1      -3.703   2.636  15.719  1.00  0.00     0.168 C
HETATM   26  C18 UNL     1      -4.332   2.733  14.396  1.00  0.00     0.034 C
ENDBRANCH  17  21
ENDBRANCH   1  17
TORSDOF 6
ENDMDL