MODEL 2
REMARK VINA RESULT: -6.533327179      1.126      1.339
REMARK  7 active torsions:
REMARK  status: ('A' for Active; 'I' for Inactive)
REMARK    1  A    between atoms: C6_9  and  C7_10
REMARK    2  A    between atoms: C7_10  and  N2_11
REMARK    3  A    between atoms: C10_14  and  C11_15
REMARK    4  A    between atoms: C11_15  and  O2_17
REMARK    5  A    between atoms: O2_17  and  C12_18
REMARK    6  A    between atoms: C12_18  and  C13_19
REMARK       I    between atoms: C13_19  and  N3_21
REMARK    7  A    between atoms: N3_21  and  C14_23
ROOT
HETATM    1  N2  UNL     1      -5.024   5.009  14.826  1.00  0.00     0.088 N
HETATM    2  C8  UNL     1      -5.929   3.970  14.329  1.00  0.00     0.273 C
HETATM    3  C9  UNL     1      -5.935   2.956  15.461  1.00  0.00     0.045 C
HETATM    4  C10 UNL     1      -4.550   2.524  15.839  1.00  0.00     0.089 C
HETATM    5  C18 UNL     1      -3.425   3.329  15.366  1.00  0.00     0.045 C
HETATM    6  C19 UNL     1      -3.712   4.497  14.476  1.00  0.00     0.273 C
ENDROOT
BRANCH   4   7
HETATM    7  C11 UNL     1      -4.424   1.092  15.468  1.00  0.00     0.263 C
HETATM    8  O1  UNL     1      -3.785   0.334  16.227  1.00  0.00    -0.265 OA
BRANCH   7   9
HETATM    9  O2  UNL     1      -4.982   0.562  14.316  1.00  0.00    -0.312 OA
BRANCH   9  10
HETATM   10  C12 UNL     1      -4.189  -0.201  13.393  1.00  0.00     0.281 C
BRANCH  10  11
HETATM   11  C13 UNL     1      -3.866   0.725  12.282  1.00  0.00     0.242 C
HETATM   12  O3  UNL     1      -4.528   0.825  11.233  1.00  0.00    -0.271 OA
HETATM   13  N3  UNL     1      -2.721   1.560  12.421  1.00  0.00    -0.351 N
ATOM     14  H3  UNL     1      -2.166   1.495  13.274  1.00  0.00     0.163 HD
BRANCH  13  15
HETATM   15  C14 UNL     1      -2.316   2.496  11.395  1.00  0.00     0.022 C
HETATM   16  C15 UNL     1      -3.486   3.327  10.904  1.00  0.00     0.037 C
HETATM   17  C16 UNL     1      -1.657   1.729  10.284  1.00  0.00     0.037 C
HETATM   18  C17 UNL     1      -1.345   3.488  12.040  1.00  0.00     0.037 C
ENDBRANCH  13  15
ENDBRANCH  10  11
ENDBRANCH   9  10
ENDBRANCH   7   9
ENDBRANCH   4   7
BRANCH   1  19
HETATM   19  C7  UNL     1      -5.311   6.283  14.216  1.00  0.00     0.277 C
BRANCH  19  20
HETATM   20  C6  UNL     1      -4.359   6.424  13.014  1.00  0.00     0.021 C
HETATM   21  C2  UNL     1      -5.151   6.626  11.746  1.00  0.00     0.013 C
HETATM   22  C1  UNL     1      -6.148   7.737  11.807  1.00  0.00     0.012 C
HETATM   23  C3  UNL     1      -4.170   6.920  10.631  1.00  0.00     0.237 C
HETATM   24  N1  UNL     1      -2.789   6.791  11.040  1.00  0.00    -0.075 N
HETATM   25  C4  UNL     1      -2.455   7.677  12.125  1.00  0.00     0.232 C
ATOM     26  H12 UNL     1      -2.562   5.824  11.271  1.00  0.00     0.277 HD
ATOM     27  H11 UNL     1      -2.158   6.922  10.249  1.00  0.00     0.277 HD
HETATM   28  C5  UNL     1      -3.411   7.599  13.288  1.00  0.00     0.034 C
ENDBRANCH  19  20
ENDBRANCH   1  19
TORSDOF 7
ENDMDL