MODEL 4
REMARK VINA RESULT: -6.766605950      2.507      3.903
REMARK  5 active torsions:
REMARK  status: ('A' for Active; 'I' for Inactive)
REMARK    1  A    between atoms: O1_2  and  C2_3
REMARK    2  A    between atoms: C6_9  and  C7_10
REMARK    3  A    between atoms: C7_10  and  C8_11
REMARK    4  A    between atoms: C9_12  and  C10_13
REMARK    5  A    between atoms: C10_13  and  N1_14
REMARK       I    between atoms: N1_14  and  C12_16
ROOT
HETATM    1  C2  UNL     1      -4.957   1.958  14.962  1.00  0.00     0.162 C
HETATM    2  C3  UNL     1      -4.029   1.522  13.899  1.00  0.00     0.075 C
HETATM    3  C4  UNL     1      -4.428   0.281  13.150  1.00  0.00     0.188 C
HETATM    4  O2  UNL     1      -3.982   0.307  11.789  1.00  0.00    -0.321 OA
HETATM    5  C5  UNL     1      -3.115   1.253  11.285  1.00  0.00     0.265 C
HETATM    6  O3  UNL     1      -2.560   1.051  10.202  1.00  0.00    -0.265 OA
HETATM    7  C6  UNL     1      -2.869   2.479  12.050  1.00  0.00     0.123 C
HETATM    8  C13 UNL     1      -4.104   2.662  12.901  1.00  0.00     0.246 C
HETATM    9  N4  UNL     1      -4.161   3.820  13.705  1.00  0.00     0.101 N
HETATM   10  C14 UNL     1      -4.969   4.837  13.048  1.00  0.00     0.273 C
HETATM   11  C15 UNL     1      -5.307   5.996  13.946  1.00  0.00     0.030 C
HETATM   12  C16 UNL     1      -6.101   5.544  15.154  1.00  0.00     0.004 C
HETATM   13  C17 UNL     1      -6.188   4.047  15.091  1.00  0.00     0.038 C
HETATM   14  C18 UNL     1      -4.800   3.464  14.951  1.00  0.00     0.252 C
ENDROOT
BRANCH   7  15
HETATM   15  C7  UNL     1      -2.459   3.680  11.303  1.00  0.00     0.043 C
BRANCH  15  16
HETATM   16  C8  UNL     1      -3.489   4.028  10.293  1.00  0.00    -0.028 C
HETATM   17  C9  UNL     1      -3.591   5.178   9.679  1.00  0.00    -0.011 C
BRANCH  17  18
HETATM   18  C10 UNL     1      -4.675   5.387   8.688  1.00  0.00     0.152 C
BRANCH  18  19
HETATM   19  N1  UNL     1      -5.582   6.432   9.077  1.00  0.00    -0.357 N
HETATM   20  C11 UNL     1      -5.189   7.393  10.068  1.00  0.00     0.152 C
HETATM   21  C12 UNL     1      -6.857   6.497   8.471  1.00  0.00     0.183 C
HETATM   22  N2  UNL     1      -7.390   7.643   8.115  1.00  0.00    -0.374 N
HETATM   23  N3  UNL     1      -7.662   5.351   8.196  1.00  0.00    -0.064 NA
ATOM     24  H22 UNL     1      -6.814   8.462   8.311  1.00  0.00     0.158 HD
ATOM     25  H21 UNL     1      -8.310   7.690   7.678  1.00  0.00     0.158 HD
ENDBRANCH  18  19
ENDBRANCH  17  18
ENDBRANCH  15  16
ENDBRANCH   7  15
BRANCH   1  26
HETATM   26  O1  UNL     1      -4.569   1.457  16.218  1.00  0.00    -0.388 OA
HETATM   27  C1  UNL     1      -5.629   0.815  16.844  1.00  0.00     0.202 C
ENDBRANCH   1  26
TORSDOF 5
ENDMDL