MODEL 4
REMARK VINA RESULT: -6.667567547      2.514      4.785
REMARK  7 active torsions:
REMARK  status: ('A' for Active; 'I' for Inactive)
REMARK    1  A    between atoms: C6_6  and  C7_7
REMARK    2  A    between atoms: C7_7  and  C8_8
REMARK    3  A    between atoms: C8_8  and  C9_9
REMARK    4  A    between atoms: C11_13  and  O3_14
REMARK    5  A    between atoms: N1_19  and  C15_20
REMARK    6  A    between atoms: C15_20  and  C16_21
REMARK    7  A    between atoms: C16_21  and  O5_23
ROOT
HETATM    1  C1  UNL     1      -5.866   3.240  15.380  1.00  0.00     0.016 C
HETATM    2  C2  UNL     1      -4.888   3.205  14.489  1.00  0.00    -0.071 C
HETATM    3  C3  UNL     1      -3.557   3.447  15.111  1.00  0.00     0.035 C
HETATM    4  C4  UNL     1      -2.787   4.567  14.517  1.00  0.00     0.010 C
HETATM    5  C5  UNL     1      -2.570   4.595  13.062  1.00  0.00    -0.001 C
HETATM    6  C6  UNL     1      -2.332   3.299  12.371  1.00  0.00     0.022 C
HETATM    7  C10 UNL     1      -3.643   3.404  11.687  1.00  0.00     0.066 C
HETATM    8  C11 UNL     1      -3.721   3.613  10.217  1.00  0.00     0.147 C
HETATM    9  C12 UNL     1      -3.308   5.035   9.884  1.00  0.00     0.035 C
HETATM   10  C13 UNL     1      -3.502   5.792  11.138  1.00  0.00     0.010 C
HETATM   11  C14 UNL     1      -3.794   4.791  12.238  1.00  0.00     0.021 C
HETATM   12  N1  UNL     1      -4.544   2.439  12.191  1.00  0.00    -0.368 N
HETATM   13  C18 UNL     1      -5.482   2.931  13.171  1.00  0.00     0.157 C
ENDROOT
BRANCH   6  14
HETATM   14  C7  UNL     1      -1.088   3.104  11.584  1.00  0.00     0.018 C
BRANCH  14  15
HETATM   15  C8  UNL     1      -0.170   4.296  11.898  1.00  0.00     0.113 C
BRANCH  15  16
HETATM   16  C9  UNL     1       1.109   4.183  11.187  1.00  0.00     0.172 C
HETATM   17  O1  UNL     1       1.108   3.812   9.991  1.00  0.00    -0.648 OA
HETATM   18  O2  UNL     1       2.291   4.480  11.827  1.00  0.00    -0.648 OA
ENDBRANCH  15  16
ENDBRANCH  14  15
ENDBRANCH   6  14
BRANCH   8  19
HETATM   19  O3  UNL     1      -5.102   3.580   9.890  1.00  0.00    -0.393 OA
ATOM     20  H3  UNL     1      -5.205   2.871   9.266  1.00  0.00     0.210 HD
ENDBRANCH   8  19
BRANCH  12  21
HETATM   21  C15 UNL     1      -4.158   1.116  12.414  1.00  0.00     0.169 C
BRANCH  21  22
HETATM   22  C16 UNL     1      -4.373   0.068  11.431  1.00  0.00     0.297 C
HETATM   23  O4  UNL     1      -4.617   0.292  10.239  1.00  0.00    -0.259 OA
BRANCH  22  24
HETATM   24  O5  UNL     1      -4.317  -1.295  11.778  1.00  0.00    -0.322 OA
HETATM   25  C17 UNL     1      -3.179  -2.067  11.451  1.00  0.00     0.213 C
ENDBRANCH  22  24
ENDBRANCH  21  22
ENDBRANCH  12  21
TORSDOF 7
ENDMDL