MODEL 4
REMARK VINA RESULT: -6.916108349      2.614      6.635
REMARK  6 active torsions:
REMARK  status: ('A' for Active; 'I' for Inactive)
REMARK    1  A    between atoms: O1_2  and  C2_3
REMARK    2  A    between atoms: C2_3  and  C3_5
REMARK    3  A    between atoms: C3_5  and  C4_6
REMARK    4  A    between atoms: C4_6  and  C5_7
REMARK    5  A    between atoms: C5_7  and  N1_8
REMARK    6  A    between atoms: C15_19  and  C16_20
ROOT
HETATM    1  N1  UNL     1      -3.726   3.520  13.226  1.00  0.00    -0.365 N
HETATM    2  C6  UNL     1      -4.889   3.221  12.521  1.00  0.00     0.066 C
HETATM    3  C7  UNL     1      -4.562   2.218  11.436  1.00  0.00     0.079 C
HETATM    4  C8  UNL     1      -3.077   2.428  11.241  1.00  0.00     0.151 C
HETATM    5  O3  UNL     1      -2.807   3.018  10.042  1.00  0.00    -0.383 OA
HETATM    6  C9  UNL     1      -2.972   4.370   9.971  1.00  0.00     0.175 C
HETATM    7  C10 UNL     1      -2.410   5.170  11.089  1.00  0.00     0.035 C
HETATM    8  C11 UNL     1      -1.496   6.280  10.648  1.00  0.00     0.020 C
HETATM    9  C12 UNL     1      -0.104   5.861  10.314  1.00  0.00    -0.019 C
HETATM   10  C13 UNL     1       0.087   6.171   8.830  1.00  0.00     0.017 C
HETATM   11  C14 UNL     1       0.893   6.756  11.034  1.00  0.00     0.017 C
HETATM   12  C15 UNL     1       0.165   4.417  10.517  1.00  0.00     0.174 C
HETATM   13  N3  UNL     1      -0.448   3.817  11.647  1.00  0.00    -0.402 N
ATOM     14  H3  UNL     1      -0.003   3.037  12.132  1.00  0.00     0.154 HD
HETATM   15  C17 UNL     1      -1.698   4.329  12.085  1.00  0.00     0.109 C
HETATM   16  C18 UNL     1      -2.573   3.149  12.457  1.00  0.00     0.140 C
ENDROOT
BRANCH   1  17
HETATM   17  C5  UNL     1      -3.620   3.396  14.608  1.00  0.00     0.064 C
BRANCH  17  18
HETATM   18  C4  UNL     1      -4.670   2.774  15.418  1.00  0.00     0.054 C
BRANCH  18  19
HETATM   19  C3  UNL     1      -4.358   1.666  16.339  1.00  0.00     0.116 C
BRANCH  19  20
HETATM   20  C2  UNL     1      -5.024   0.375  16.052  1.00  0.00     0.258 C
HETATM   21  O2  UNL     1      -4.659  -0.365  15.129  1.00  0.00    -0.265 OA
BRANCH  20  22
HETATM   22  O1  UNL     1      -6.103  -0.036  16.841  1.00  0.00    -0.326 OA
HETATM   23  C1  UNL     1      -6.942   0.900  17.494  1.00  0.00     0.213 C
ENDBRANCH  20  22
ENDBRANCH  19  20
ENDBRANCH  18  19
ENDBRANCH  17  18
ENDBRANCH   1  17
BRANCH  12  24
HETATM   24  C16 UNL     1       1.642   4.153  10.675  1.00  0.00     0.254 C
HETATM   25  N2  UNL     1       2.304   3.669   9.525  1.00  0.00    -0.060 NA
HETATM   26  O4  UNL     1       2.270   4.339  11.733  1.00  0.00    -0.275 OA
ENDBRANCH  12  24
TORSDOF 6
ENDMDL