MODEL 2
REMARK VINA RESULT: -7.219301892      0.849      5.463
REMARK  7 active torsions:
REMARK  status: ('A' for Active; 'I' for Inactive)
REMARK    1  A    between atoms: C2_2  and  N1_3
REMARK    2  A    between atoms: C7_10  and  N3_11
REMARK    3  A    between atoms: N3_11  and  C8_13
REMARK    4  A    between atoms: C8_13  and  C9_14
REMARK    5  A    between atoms: C9_14  and  N4_15
REMARK    6  A    between atoms: C14_22  and  N6_23
REMARK    7  A    between atoms: N6_23  and  C15_25
ROOT
HETATM    1  C1  UNL     1      -5.685   4.464  14.649  1.00  0.00     0.097 A
HETATM    2  C2  UNL     1      -5.093   3.288  15.055  1.00  0.00     0.122 A
HETATM    3  N2  UNL     1      -3.946   2.892  14.420  1.00  0.00    -0.177 N
ATOM      4  H2  UNL     1      -3.494   2.023  14.705  1.00  0.00     0.185 HD
HETATM    5  C7  UNL     1      -3.403   3.618  13.432  1.00  0.00     0.681 A
HETATM    6  N5  UNL     1      -4.022   4.780  13.060  1.00  0.00    -0.177 N
ATOM      7  H5  UNL     1      -3.610   5.333  12.309  1.00  0.00     0.185 HD
HETATM    8  C14 UNL     1      -5.148   5.226  13.638  1.00  0.00     0.120 A
ENDROOT
BRANCH   5   9
HETATM    9  N3  UNL     1      -2.333   3.227  12.856  1.00  0.00    -0.224 N
ATOM     10  H3  UNL     1      -1.474   3.273  13.405  1.00  0.00     0.177 HD
BRANCH   9  11
HETATM   11  C8  UNL     1      -2.217   2.735  11.530  1.00  0.00     0.168 C
BRANCH  11  12
HETATM   12  C9  UNL     1      -2.368   1.244  11.441  1.00  0.00     0.292 C
BRANCH  12  13
HETATM   13  N4  UNL     1      -3.624   0.802  10.911  1.00  0.00     0.090 N
HETATM   14  C10 UNL     1      -3.382  -0.470  10.218  1.00  0.00     0.272 C
HETATM   15  C11 UNL     1      -3.302  -1.456  11.358  1.00  0.00     0.032 C
HETATM   16  C12 UNL     1      -4.361  -0.941  12.313  1.00  0.00     0.032 C
HETATM   17  C13 UNL     1      -4.574   0.520  11.932  1.00  0.00     0.272 C
ENDBRANCH  12  13
ENDBRANCH  11  12
ENDBRANCH   9  11
ENDBRANCH   5   9
BRANCH   2  18
HETATM   18  N1  UNL     1      -5.672   2.539  16.113  1.00  0.00    -0.367 N
HETATM   19  C3  UNL     1      -5.013   1.487  16.854  1.00  0.00     0.124 C
HETATM   20  C4  UNL     1      -6.109   0.455  16.973  1.00  0.00     0.021 C
HETATM   21  C5  UNL     1      -7.329   1.293  17.248  1.00  0.00     0.021 C
HETATM   22  C6  UNL     1      -6.990   2.648  16.684  1.00  0.00     0.124 C
ENDBRANCH   2  18
BRANCH   8  23
HETATM   23  N6  UNL     1      -5.741   6.298  13.301  1.00  0.00    -0.371 N
ATOM     24  H6  UNL     1      -6.192   6.811  14.059  1.00  0.00     0.161 HD
BRANCH  23  25
HETATM   25  C15 UNL     1      -5.859   6.879  12.003  1.00  0.00     0.083 C
HETATM   26  C16 UNL     1      -7.132   7.670  11.917  1.00  0.00     0.025 C
HETATM   27  C17 UNL     1      -6.771   9.080  11.484  1.00  0.00     0.002 C
HETATM   28  C18 UNL     1      -5.373   8.910  10.901  1.00  0.00     0.002 C
HETATM   29  C19 UNL     1      -4.777   7.952  11.905  1.00  0.00     0.025 C
ENDBRANCH  23  25
ENDBRANCH   8  23
TORSDOF 7
ENDMDL