MODEL 1
REMARK VINA RESULT: -7.178595745      0.000      0.000
REMARK  5 active torsions:
REMARK  status: ('A' for Active; 'I' for Inactive)
REMARK    1  A    between atoms: C2_3  and  N2_4
REMARK       I    between atoms: N2_4  and  C3_6
REMARK    2  A    between atoms: C3_6  and  C4_8
REMARK    3  A    between atoms: C4_8  and  N3_9
REMARK    4  A    between atoms: C7_12  and  N4_13
REMARK    5  A    between atoms: C13_19  and  O2_20
ROOT
HETATM    1  N1  UNL     1      -4.764   3.712  10.099  1.00  0.00    -0.195 NA
HETATM    2  C1  UNL     1      -4.271   2.967  10.856  1.00  0.00     0.091 C
HETATM    3  C2  UNL     1      -3.646   2.016  11.788  1.00  0.00     0.122 C
HETATM    4  C15 UNL     1      -2.378   1.488  11.223  1.00  0.00     0.046 C
HETATM    5  C16 UNL     1      -2.262   0.030  11.010  1.00  0.00     0.004 C
HETATM    6  C17 UNL     1      -3.126  -0.810  11.917  1.00  0.00     0.000 C
HETATM    7  C18 UNL     1      -4.558  -0.344  11.609  1.00  0.00     0.004 C
HETATM    8  C19 UNL     1      -4.683   1.021  12.180  1.00  0.00     0.046 C
ENDROOT
BRANCH   3   9
HETATM    9  N2  UNL     1      -3.304   2.782  12.978  1.00  0.00    -0.334 N
HETATM   10  C3  UNL     1      -2.372   3.841  12.941  1.00  0.00     0.258 C
HETATM   11  O1  UNL     1      -1.795   4.177  11.876  1.00  0.00    -0.267 OA
ATOM     12  H2  UNL     1      -3.751   2.546  13.864  1.00  0.00     0.164 HD
BRANCH  10  13
HETATM   13  C4  UNL     1      -2.052   4.588  14.183  1.00  0.00     0.164 C
BRANCH  13  14
HETATM   14  N3  UNL     1      -2.911   5.679  14.415  1.00  0.00    -0.363 N
HETATM   15  C5  UNL     1      -2.661   6.902  13.765  1.00  0.00     0.066 C
HETATM   16  C6  UNL     1      -3.612   7.218  12.634  1.00  0.00     0.083 C
HETATM   17  C7  UNL     1      -4.697   6.184  12.455  1.00  0.00     0.257 C
HETATM   18  C13 UNL     1      -5.279   5.698  13.768  1.00  0.00     0.170 C
HETATM   19  C14 UNL     1      -4.239   5.398  14.803  1.00  0.00     0.161 C
BRANCH  17  20
HETATM   20  N4  UNL     1      -5.805   6.670  11.668  1.00  0.00     0.096 N
HETATM   21  C8  UNL     1      -5.358   7.099  10.393  1.00  0.00     0.273 C
HETATM   22  C9  UNL     1      -6.471   7.434   9.428  1.00  0.00     0.030 C
HETATM   23  C10 UNL     1      -7.693   7.975  10.092  1.00  0.00     0.003 C
HETATM   24  C11 UNL     1      -7.447   8.493  11.491  1.00  0.00     0.030 C
HETATM   25  C12 UNL     1      -6.724   7.508  12.352  1.00  0.00     0.273 C
ENDBRANCH  17  20
BRANCH  18  26
HETATM   26  O2  UNL     1      -6.015   4.549  13.490  1.00  0.00    -0.392 OA
ATOM     27  H2  UNL     1      -5.394   3.836  13.391  1.00  0.00     0.210 HD
ENDBRANCH  18  26
ENDBRANCH  13  14
ENDBRANCH  10  13
ENDBRANCH   3   9
TORSDOF 5
ENDMDL