MODEL 1
REMARK VINA RESULT: -7.693124455      0.000      0.000
REMARK  4 active torsions:
REMARK  status: ('A' for Active; 'I' for Inactive)
REMARK    1  A    between atoms: N2_7  and  C6_8
REMARK    2  A    between atoms: C10_13  and  C11_14
REMARK    3  A    between atoms: C12_15  and  C13_16
REMARK    4  A    between atoms: C19_24  and  O3_25
ROOT
HETATM    1  N1  UNL     1      -1.821   1.950  10.097  1.00  0.00    -0.195 NA
HETATM    2  C1  UNL     1      -2.806   1.673  10.636  1.00  0.00     0.095 C
HETATM    3  C2  UNL     1      -4.076   1.346  11.326  1.00  0.00     0.329 C
HETATM    4  C3  UNL     1      -4.649   0.110  10.739  1.00  0.00     0.053 C
HETATM    5  C4  UNL     1      -4.475  -0.955  11.764  1.00  0.00     0.033 C
HETATM    6  C5  UNL     1      -3.698  -0.263  12.858  1.00  0.00     0.275 C
HETATM    7  N2  UNL     1      -3.722   1.110  12.709  1.00  0.00     0.118 N
ENDROOT
BRANCH   7   8
HETATM    8  C6  UNL     1      -4.505   1.935  13.528  1.00  0.00     0.301 C
HETATM    9  C7  UNL     1      -4.654   1.450  14.933  1.00  0.00     0.161 C
HETATM   10  O1  UNL     1      -5.297   0.517  15.379  1.00  0.00    -0.296 OA
HETATM   11  C8  UNL     1      -3.836   2.335  15.820  1.00  0.00     0.081 C
HETATM   12  C9  UNL     1      -3.375   3.491  14.999  1.00  0.00     0.018 C
HETATM   13  C10 UNL     1      -4.134   3.342  13.714  1.00  0.00     0.049 C
BRANCH  13  14
HETATM   14  C11 UNL     1      -3.488   4.003  12.567  1.00  0.00    -0.023 C
HETATM   15  C12 UNL     1      -4.026   4.989  11.873  1.00  0.00    -0.024 C
BRANCH  15  16
HETATM   16  C13 UNL     1      -3.411   5.666  10.729  1.00  0.00     0.024 C
HETATM   17  C14 UNL     1      -2.605   6.845  11.212  1.00  0.00     0.083 C
HETATM   18  S1  UNL     1      -3.638   8.240  11.703  1.00  0.00    -0.168 SA
HETATM   19  C15 UNL     1      -5.314   8.147  11.094  1.00  0.00     0.079 C
HETATM   20  C16 UNL     1      -5.639   6.823  10.442  1.00  0.00     0.009 C
HETATM   21  C17 UNL     1      -6.576   7.017   9.249  1.00  0.00     0.087 C
HETATM   22  C20 UNL     1      -4.446   6.208   9.773  1.00  0.00     0.035 C
HETATM   23  C18 UNL     1      -6.369   5.735   8.517  1.00  0.00     0.156 C
HETATM   24  O2  UNL     1      -7.128   5.241   7.696  1.00  0.00    -0.295 OA
HETATM   25  C19 UNL     1      -5.078   5.123   8.936  1.00  0.00     0.192 C
BRANCH  25  26
HETATM   26  O3  UNL     1      -4.300   4.960   7.796  1.00  0.00    -0.388 OA
ATOM     27  H3  UNL     1      -3.830   5.772   7.649  1.00  0.00     0.210 HD
ENDBRANCH  25  26
ENDBRANCH  15  16
ENDBRANCH  13  14
ENDBRANCH   7   8
TORSDOF 4
ENDMDL