MODEL 4
REMARK VINA RESULT: -7.265377123      2.482      4.664
REMARK  4 active torsions:
REMARK  status: ('A' for Active; 'I' for Inactive)
REMARK    1  A    between atoms: O1_2  and  O2_3
REMARK    2  A    between atoms: O2_3  and  C2_4
REMARK    3  A    between atoms: C13_17  and  C14_18
REMARK    4  A    between atoms: C14_18  and  N1_19
REMARK       I    between atoms: N1_19  and  C15_21
ROOT
HETATM    1  C2  UNL     1      -4.193   0.576  12.827  1.00  0.00     0.197 C
HETATM    2  C3  UNL     1      -3.301  -0.637  12.653  1.00  0.00     0.072 C
HETATM    3  C4  UNL     1      -2.974  -0.906  11.218  1.00  0.00     0.015 C
HETATM    4  C5  UNL     1      -3.452   0.224  10.363  1.00  0.00     0.039 C
HETATM    5  C6  UNL     1      -4.899   0.471  10.622  1.00  0.00     0.178 C
HETATM    6  O3  UNL     1      -5.245   0.597  11.942  1.00  0.00    -0.352 OA
HETATM    7  C7  UNL     1      -2.583   1.434  10.482  1.00  0.00     0.133 C
HETATM    8  O4  UNL     1      -3.176   2.604  10.063  1.00  0.00    -0.372 OA
HETATM    9  C8  UNL     1      -2.190   3.541  10.371  1.00  0.00     0.094 C
HETATM   10  C9  UNL     1      -1.660   3.191  11.719  1.00  0.00     0.047 C
HETATM   11  C10 UNL     1      -2.187   1.759  11.899  1.00  0.00     0.023 C
HETATM   12  C11 UNL     1      -3.394   1.849  12.778  1.00  0.00     0.078 C
HETATM   13  C12 UNL     1      -1.107   3.422   9.310  1.00  0.00     0.077 C
HETATM   14  C13 UNL     1      -0.900   4.788   8.738  1.00  0.00     0.243 C
HETATM   15  N2  UNL     1      -1.474   5.698   9.715  1.00  0.00     0.097 N
HETATM   16  C17 UNL     1      -1.897   6.903   9.067  1.00  0.00     0.311 C
HETATM   17  C18 UNL     1      -2.638   4.952  10.217  1.00  0.00     0.253 C
HETATM   18  C19 UNL     1      -3.076   5.611  11.477  1.00  0.00     0.046 C
ENDROOT
BRANCH  14  19
HETATM   19  C14 UNL     1       0.554   5.145   8.581  1.00  0.00     0.158 C
BRANCH  19  20
HETATM   20  N1  UNL     1       1.220   5.453   9.807  1.00  0.00    -0.359 N
HETATM   21  C15 UNL     1       2.096   4.563  10.446  1.00  0.00     0.213 C
HETATM   22  C16 UNL     1       2.777   4.930  11.739  1.00  0.00     0.117 C
HETATM   23  O5  UNL     1       2.333   3.442   9.957  1.00  0.00    -0.274 OA
ATOM     24  H1  UNL     1       1.050   6.362  10.237  1.00  0.00     0.162 HD
ENDBRANCH  19  20
ENDBRANCH  14  19
BRANCH   1  25
HETATM   25  O2  UNL     1      -4.742   0.479  14.114  1.00  0.00    -0.201 OA
BRANCH  25  26
HETATM   26  O1  UNL     1      -3.950   1.080  14.952  1.00  0.00    -0.243 OA
HETATM   27  C1  UNL     1      -4.540   1.167  16.216  1.00  0.00     0.247 C
ENDBRANCH  25  26
ENDBRANCH   1  25
TORSDOF 4
ENDMDL