MODEL 3
REMARK VINA RESULT: -6.673064290      1.951      2.449
REMARK  3 active torsions:
REMARK  status: ('A' for Active; 'I' for Inactive)
REMARK    1  A    between atoms: C4_5  and  O1_6
REMARK    2  A    between atoms: C9_13  and  C10_14
REMARK    3  A    between atoms: N3_18  and  C13_19
ROOT
HETATM    1  C1  UNL     1      -2.856   7.378   8.106  1.00  0.00     0.279 C
HETATM    2  N1  UNL     1      -3.478   6.106   7.823  1.00  0.00    -0.044 N
HETATM    3  C2  UNL     1      -2.548   5.312   7.045  1.00  0.00     0.279 C
HETATM    4  C3  UNL     1      -4.558   6.430   6.869  1.00  0.00     0.274 C
HETATM    5  C4  UNL     1      -5.666   5.437   6.855  1.00  0.00     0.150 C
HETATM    6  C5  UNL     1      -6.343   5.280   8.191  1.00  0.00     0.036 C
HETATM    7  C6  UNL     1      -7.625   6.004   8.324  1.00  0.00     0.019 C
HETATM    8  C7  UNL     1      -7.413   7.446   8.607  1.00  0.00     0.075 C
HETATM    9  S1  UNL     1      -5.813   7.416   9.510  1.00  0.00    -0.157 SA
HETATM   10  C8  UNL     1      -5.421   5.685   9.286  1.00  0.00     0.113 C
HETATM   11  C9  UNL     1      -3.956   5.416   8.949  1.00  0.00     0.142 C
ENDROOT
BRANCH  11  12
HETATM   12  C10 UNL     1      -3.190   5.335  10.211  1.00  0.00     0.120 C
HETATM   13  N2  UNL     1      -3.460   4.505  11.254  1.00  0.00    -0.385 N
HETATM   14  C11 UNL     1      -3.335   3.145  11.418  1.00  0.00     0.142 C
HETATM   15  C17 UNL     1      -3.174   5.143  12.556  1.00  0.00     0.142 C
HETATM   16  C12 UNL     1      -4.573   2.664  12.213  1.00  0.00     0.145 C
HETATM   17  N3  UNL     1      -4.447   3.301  13.508  1.00  0.00    -0.358 N
HETATM   18  C16 UNL     1      -4.103   4.687  13.624  1.00  0.00     0.145 C
BRANCH  17  19
HETATM   19  C13 UNL     1      -4.684   2.474  14.664  1.00  0.00     0.146 A
HETATM   20  N4  UNL     1      -4.010   1.410  15.076  1.00  0.00    -0.346 N
HETATM   21  C14 UNL     1      -4.370   0.790  16.149  1.00  0.00     0.097 A
ATOM     22  H4  UNL     1      -3.204   1.081  14.544  1.00  0.00     0.167 HD
HETATM   23  C15 UNL     1      -5.459   1.266  16.832  1.00  0.00     0.070 A
HETATM   24  S2  UNL     1      -5.902   2.606  15.865  1.00  0.00    -0.065 SA
ENDBRANCH  17  19
ENDBRANCH  11  12
BRANCH   5  25
HETATM   25  O1  UNL     1      -5.160   4.208   6.442  1.00  0.00    -0.393 OA
ATOM     26  H1  UNL     1      -4.597   4.348   5.689  1.00  0.00     0.210 HD
ENDBRANCH   5  25
TORSDOF 3
ENDMDL