MODEL 5
REMARK VINA RESULT: -6.990321526      2.083      3.182
REMARK  3 active torsions:
REMARK  status: ('A' for Active; 'I' for Inactive)
REMARK    1  A    between atoms: C9_10  and  C10_11
REMARK    2  A    between atoms: C10_11  and  C11_12
REMARK    3  A    between atoms: C13_17  and  C14_18
ROOT
HETATM    1  C1  UNL     1      -0.137   4.925   6.605  1.00  0.00     0.010 C
HETATM    2  C2  UNL     1       0.033   5.094   8.096  1.00  0.00    -0.010 C
HETATM    3  C3  UNL     1       1.118   4.192   8.629  1.00  0.00     0.035 C
HETATM    4  C4  UNL     1       0.893   4.006  10.107  1.00  0.00     0.273 C
HETATM    5  N1  UNL     1      -0.304   3.233  10.353  1.00  0.00     0.098 N
HETATM    6  C5  UNL     1      -0.623   2.973  11.698  1.00  0.00     0.344 C
HETATM    7  C6  UNL     1      -1.992   3.480  11.975  1.00  0.00     0.289 C
HETATM    8  C7  UNL     1      -2.496   3.972  10.660  1.00  0.00     0.110 C
HETATM    9  C8  UNL     1      -1.428   3.703   9.614  1.00  0.00     0.232 C
HETATM   10  C9  UNL     1      -1.188   5.011   8.903  1.00  0.00     0.033 C
HETATM   11  O3  UNL     1      -1.942   4.530  12.883  1.00  0.00    -0.349 OA
HETATM   12  C12 UNL     1      -3.068   4.489  13.663  1.00  0.00     0.210 C
HETATM   13  C13 UNL     1      -3.924   3.363  13.079  1.00  0.00     0.284 C
HETATM   14  N2  UNL     1      -2.880   2.487  12.595  1.00  0.00     0.131 N
HETATM   15  C19 UNL     1      -3.315   1.489  11.687  1.00  0.00     0.314 C
ENDROOT
BRANCH  13  16
HETATM   16  C14 UNL     1      -4.734   2.803  14.195  1.00  0.00     0.100 C
HETATM   17  C15 UNL     1      -6.059   3.484  14.390  1.00  0.00     0.049 C
HETATM   18  C16 UNL     1      -3.936   3.004  15.477  1.00  0.00     0.050 C
HETATM   19  C17 UNL     1      -3.589   1.612  15.958  1.00  0.00     0.114 C
HETATM   20  C18 UNL     1      -4.693   0.810  15.332  1.00  0.00     0.259 C
HETATM   21  O4  UNL     1      -5.206  -0.184  15.873  1.00  0.00    -0.265 OA
HETATM   22  O5  UNL     1      -4.940   1.426  14.125  1.00  0.00    -0.308 OA
ENDBRANCH  13  16
BRANCH  10  23
HETATM   23  C10 UNL     1      -2.483   5.255   8.110  1.00  0.00     0.120 C
BRANCH  23  24
HETATM   24  C11 UNL     1      -2.918   6.664   8.177  1.00  0.00     0.172 C
HETATM   25  O1  UNL     1      -3.636   6.988   9.151  1.00  0.00    -0.648 OA
HETATM   26  O2  UNL     1      -2.588   7.638   7.247  1.00  0.00    -0.648 OA
ENDBRANCH  23  24
ENDBRANCH  10  23
TORSDOF 3
ENDMDL