MODEL 2
REMARK VINA RESULT: -6.133166669      2.063      3.075
REMARK  5 active torsions:
REMARK  status: ('A' for Active; 'I' for Inactive)
REMARK    1  A    between atoms: O1_2  and  C2_3
REMARK    2  A    between atoms: C2_3  and  C3_4
REMARK    3  A    between atoms: C2_3  and  C18_24
REMARK    4  A    between atoms: C4_5  and  C5_6
REMARK    5  A    between atoms: C15_17  and  O2_18
ROOT
HETATM    1  C3  UNL     1      -3.991   5.107  11.757  1.00  0.00     0.054 C
HETATM    2  C4  UNL     1      -2.501   5.150  11.694  1.00  0.00     0.006 C
HETATM    3  C8  UNL     1      -1.986   4.137  12.711  1.00  0.00     0.048 C
HETATM    4  C9  UNL     1      -2.130   2.794  12.031  1.00  0.00     0.280 C
HETATM    5  N1  UNL     1      -3.344   2.714  11.327  1.00  0.00     0.095 N
HETATM    6  C10 UNL     1      -4.191   1.700  11.936  1.00  0.00     0.285 C
HETATM    7  C11 UNL     1      -4.964   2.870  12.549  1.00  0.00     0.110 C
HETATM    8  C12 UNL     1      -4.354   3.662  11.534  1.00  0.00     0.240 C
HETATM    9  C13 UNL     1      -4.767   2.988  13.985  1.00  0.00     0.173 C
HETATM   10  C14 UNL     1      -3.390   3.054  14.515  1.00  0.00     0.101 C
HETATM   11  C15 UNL     1      -2.530   4.192  14.065  1.00  0.00     0.129 C
HETATM   12  O3  UNL     1      -5.253   1.740  14.484  1.00  0.00    -0.352 OA
HETATM   13  C16 UNL     1      -5.572   1.945  15.793  1.00  0.00     0.197 C
HETATM   14  C17 UNL     1      -5.959   3.400  15.834  1.00  0.00     0.197 C
HETATM   15  O4  UNL     1      -5.672   3.835  14.570  1.00  0.00    -0.352 OA
ENDROOT
BRANCH   1  16
HETATM   16  C2  UNL     1      -4.678   6.010  10.769  1.00  0.00     0.134 C
BRANCH  16  17
HETATM   17  O1  UNL     1      -5.377   5.310   9.833  1.00  0.00    -0.390 OA
HETATM   18  C1  UNL     1      -4.970   5.233   8.556  1.00  0.00     0.202 C
ENDBRANCH  16  17
BRANCH  16  19
HETATM   19  C18 UNL     1      -5.508   7.122  11.281  1.00  0.00    -0.025 C
HETATM   20  C19 UNL     1      -6.840   7.308  10.654  1.00  0.00     0.017 C
HETATM   21  C20 UNL     1      -4.862   8.477  11.369  1.00  0.00     0.017 C
HETATM   22  C21 UNL     1      -5.846   6.839  12.791  1.00  0.00     0.017 C
ENDBRANCH  16  19
ENDBRANCH   1  16
BRANCH   2  23
HETATM   23  C5  UNL     1      -1.830   6.471  11.847  1.00  0.00    -0.018 C
HETATM   24  C6  UNL     1      -2.038   7.207  13.126  1.00  0.00     0.010 C
HETATM   25  C7  UNL     1      -0.307   6.267  11.728  1.00  0.00     0.010 C
ENDBRANCH   2  23
BRANCH  11  26
HETATM   26  O2  UNL     1      -1.441   4.132  14.965  1.00  0.00    -0.395 OA
ATOM     27  H2  UNL     1      -0.705   4.567  14.551  1.00  0.00     0.210 HD
ENDBRANCH  11  26
TORSDOF 5
ENDMDL