MODEL 5
REMARK VINA RESULT: -7.087416187      4.975      8.854
REMARK  3 active torsions:
REMARK  status: ('A' for Active; 'I' for Inactive)
REMARK    1  A    between atoms: C1_2  and  C2_3
REMARK       I    between atoms: C1_2  and  N6_25
REMARK    2  A    between atoms: C2_3  and  N1_4
REMARK    3  A    between atoms: C5_7  and  N2_8
REMARK       I    between atoms: N2_8  and  C6_10
REMARK       I    between atoms: C6_10  and  N3_12
ROOT
HETATM    1  N1  UNL     1      -4.334   3.863  14.669  1.00  0.00     0.097 N
HETATM    2  C3  UNL     1      -5.323   4.900  14.871  1.00  0.00     0.275 C
HETATM    3  C4  UNL     1      -4.715   6.236  15.238  1.00  0.00     0.055 C
HETATM    4  C5  UNL     1      -3.977   6.782  14.011  1.00  0.00     0.089 C
HETATM    5  C13 UNL     1      -3.455   5.624  13.202  1.00  0.00     0.055 C
HETATM    6  C14 UNL     1      -3.116   4.454  14.120  1.00  0.00     0.275 C
ENDROOT
BRANCH   4   7
HETATM    7  N2  UNL     1      -2.880   7.621  14.482  1.00  0.00    -0.336 N
HETATM    8  C6  UNL     1      -2.459   8.721  13.719  1.00  0.00     0.357 C
HETATM    9  O2  UNL     1      -3.031   8.988  12.620  1.00  0.00    -0.243 OA
HETATM   10  N3  UNL     1      -1.395   9.554  14.154  1.00  0.00    -0.142 N
HETATM   11  N4  UNL     1      -0.911  10.628  13.518  1.00  0.00    -0.278 N
HETATM   12  N5  UNL     1      -0.697   9.402  15.270  1.00  0.00    -0.278 N
HETATM   13  C7  UNL     1       0.094  11.146  14.246  1.00  0.00     0.052 A
ATOM     14  H4  UNL     1      -1.250  10.993  12.628  1.00  0.00     0.189 HD
HETATM   15  C8  UNL     1       0.231  10.359  15.370  1.00  0.00     0.052 A
HETATM   16  C12 UNL     1       1.030  12.299  14.126  1.00  0.00     0.061 C
HETATM   17  C9  UNL     1       1.293  10.734  16.338  1.00  0.00     0.061 C
HETATM   18  C10 UNL     1       1.277  12.205  16.605  1.00  0.00     0.006 C
HETATM   19  C11 UNL     1       0.887  13.062  15.449  1.00  0.00     0.006 C
ATOM     20  H5  UNL     1      -0.847   8.662  15.956  1.00  0.00     0.189 HD
ATOM     21  H2  UNL     1      -2.419   7.408  15.366  1.00  0.00     0.164 HD
ENDBRANCH   4   7
BRANCH   1  22
HETATM   22  C2  UNL     1      -4.836   2.971  13.641  1.00  0.00     0.374 C
BRANCH  22  23
HETATM   23  C1  UNL     1      -4.396   1.569  13.817  1.00  0.00     0.248 C
HETATM   24  O1  UNL     1      -3.930   1.125  14.887  1.00  0.00    -0.271 OA
HETATM   25  N6  UNL     1      -4.510   0.680  12.722  1.00  0.00    -0.351 N
HETATM   26  C15 UNL     1      -5.041   1.124  11.449  1.00  0.00     0.126 C
HETATM   27  C19 UNL     1      -4.108  -0.715  12.804  1.00  0.00     0.126 C
HETATM   28  C16 UNL     1      -4.095   0.803  10.314  1.00  0.00     0.020 C
HETATM   29  C17 UNL     1      -2.805   0.299  10.927  1.00  0.00     0.003 C
HETATM   30  C18 UNL     1      -3.151  -0.996  11.664  1.00  0.00     0.020 C
ENDBRANCH  22  23
ENDBRANCH   1  22
TORSDOF 3
ENDMDL