MODEL 5
REMARK VINA RESULT: -7.415039953      2.583      6.062
REMARK  5 active torsions:
REMARK  status: ('A' for Active; 'I' for Inactive)
REMARK    1  A    between atoms: C2_2  and  C4_4
REMARK    2  A    between atoms: C15_17  and  O2_18
REMARK    3  A    between atoms: C16_20  and  C17_21
REMARK    4  A    between atoms: C17_21  and  O3_22
REMARK    5  A    between atoms: O3_22  and  C18_23
ROOT
HETATM    1  C4  UNL     1      -4.435   4.768   9.606  1.00  0.00     0.152 C
HETATM    2  C5  UNL     1      -3.930   5.821  10.605  1.00  0.00     0.071 C
HETATM    3  C6  UNL     1      -3.774   4.885  11.817  1.00  0.00     0.154 C
HETATM    4  O1  UNL     1      -5.034   4.661  12.291  1.00  0.00    -0.375 OA
HETATM    5  C7  UNL     1      -5.237   3.508  12.974  1.00  0.00     0.160 C
HETATM    6  C8  UNL     1      -5.895   3.763  14.293  1.00  0.00     0.071 C
HETATM    7  C9  UNL     1      -5.493   2.819  15.375  1.00  0.00     0.225 C
HETATM    8  C10 UNL     1      -6.622   2.744  16.413  1.00  0.00     0.036 C
HETATM    9  C11 UNL     1      -6.026   2.092  17.621  1.00  0.00     0.004 C
HETATM   10  C12 UNL     1      -5.281   0.837  17.344  1.00  0.00     0.030 C
HETATM   11  C13 UNL     1      -4.638   0.737  16.012  1.00  0.00     0.273 C
HETATM   12  N1  UNL     1      -5.251   1.483  14.961  1.00  0.00     0.096 N
HETATM   13  C14 UNL     1      -4.474   1.341  13.767  1.00  0.00     0.313 C
HETATM   14  C15 UNL     1      -4.014   2.664  13.192  1.00  0.00     0.118 C
HETATM   15  C16 UNL     1      -3.397   2.400  11.836  1.00  0.00     0.080 C
HETATM   16  C20 UNL     1      -3.162   3.694  11.108  1.00  0.00     0.160 C
HETATM   17  O5  UNL     1      -3.626   3.689   9.817  1.00  0.00    -0.373 OA
ENDROOT
BRANCH  15  18
HETATM   18  C17 UNL     1      -2.068   1.681  11.963  1.00  0.00     0.189 C
BRANCH  18  19
HETATM   19  O3  UNL     1      -1.954   0.650  10.998  1.00  0.00    -0.321 OA
BRANCH  19  20
HETATM   20  C18 UNL     1      -3.005  -0.213  10.753  1.00  0.00     0.254 C
HETATM   21  C19 UNL     1      -3.311  -1.398  11.557  1.00  0.00     0.126 C
HETATM   22  O4  UNL     1      -3.746   0.053   9.760  1.00  0.00    -0.266 OA
ENDBRANCH  19  20
ENDBRANCH  18  19
ENDBRANCH  15  18
BRANCH  14  23
HETATM   23  O2  UNL     1      -3.085   3.289  14.012  1.00  0.00    -0.385 OA
ATOM     24  H2  UNL     1      -3.227   4.227  14.064  1.00  0.00     0.210 HD
ENDBRANCH  14  23
BRANCH   1  25
HETATM   25  C2  UNL     1      -4.431   5.303   8.250  1.00  0.00    -0.064 C
HETATM   26  C1  UNL     1      -3.463   6.112   7.854  1.00  0.00     0.016 C
HETATM   27  C3  UNL     1      -5.504   4.954   7.287  1.00  0.00     0.045 C
ENDBRANCH   1  25
TORSDOF 5
ENDMDL