MODEL 2
REMARK VINA RESULT: -8.336786994      0.950      1.130
REMARK  3 active torsions:
REMARK  status: ('A' for Active; 'I' for Inactive)
REMARK    1  A    between atoms: C1_2  and  C2_4
REMARK       I    between atoms: N1_7  and  C5_8
REMARK    2  A    between atoms: C5_8  and  C6_10
REMARK    3  A    between atoms: C6_10  and  N2_11
ROOT
HETATM    1  N2  UNL     1      -3.391   2.270  11.100  1.00  0.00    -0.287 N
HETATM    2  N3  UNL     1      -2.362   1.384  11.026  1.00  0.00    -0.309 N
ATOM      3  H3  UNL     1      -2.423   0.399  11.281  1.00  0.00     0.186 HD
HETATM    4  C7  UNL     1      -1.270   1.980  10.576  1.00  0.00     0.116 A
HETATM    5  C8  UNL     1      -1.631   3.297  10.356  1.00  0.00    -0.016 A
HETATM    6  C9  UNL     1      -2.988   3.482  10.688  1.00  0.00     0.045 A
HETATM    7  C10 UNL     1      -3.730   4.720  10.509  1.00  0.00     0.008 C
HETATM    8  C11 UNL     1      -2.854   5.753   9.787  1.00  0.00     0.016 C
HETATM    9  C12 UNL     1      -1.694   6.313  10.441  1.00  0.00     0.001 C
HETATM   10  C13 UNL     1      -0.506   5.479  10.692  1.00  0.00     0.005 C
HETATM   11  C14 UNL     1      -0.597   4.229   9.847  1.00  0.00     0.042 C
HETATM   12  C15 UNL     1      -4.815   4.567   9.406  1.00  0.00     0.042 C
HETATM   13  C16 UNL     1      -5.581   5.809   9.176  1.00  0.00     0.168 C
HETATM   14  O4  UNL     1      -5.864   6.599  10.227  1.00  0.00    -0.391 OA
HETATM   15  C17 UNL     1      -4.954   6.706  11.238  1.00  0.00     0.168 C
HETATM   16  C18 UNL     1      -4.484   5.311  11.618  1.00  0.00     0.042 C
ENDROOT
BRANCH   1  17
HETATM   17  C6  UNL     1      -4.643   1.879  11.638  1.00  0.00     0.251 C
BRANCH  17  18
HETATM   18  C5  UNL     1      -4.457   0.744  12.597  1.00  0.00     0.241 C
HETATM   19  N1  UNL     1      -4.208   0.948  13.984  1.00  0.00    -0.329 N
HETATM   20  C4  UNL     1      -4.082   2.211  14.647  1.00  0.00     0.131 C
HETATM   21  C19 UNL     1      -4.065  -0.229  14.820  1.00  0.00     0.297 C
HETATM   22  C3  UNL     1      -4.558   1.998  16.076  1.00  0.00     0.063 C
HETATM   23  C2  UNL     1      -5.630   0.937  16.052  1.00  0.00     0.225 C
HETATM   24  O5  UNL     1      -5.134  -0.306  15.692  1.00  0.00    -0.356 OA
HETATM   25  O3  UNL     1      -4.523  -0.422  12.146  1.00  0.00    -0.271 OA
BRANCH  23  26
HETATM   26  C1  UNL     1      -6.267   0.789  17.397  1.00  0.00     0.203 C
HETATM   27  O1  UNL     1      -5.612   0.447  18.427  1.00  0.00    -0.646 OA
HETATM   28  O2  UNL     1      -7.618   1.018  17.598  1.00  0.00    -0.646 OA
ENDBRANCH  23  26
ENDBRANCH  17  18
ENDBRANCH   1  17
TORSDOF 3
ENDMDL