MODEL 5
REMARK VINA RESULT: -6.636045155      2.275      4.762
REMARK  8 active torsions:
REMARK  status: ('A' for Active; 'I' for Inactive)
REMARK    1  A    between atoms: C2_2  and  O2_4
REMARK    2  A    between atoms: O2_4  and  C3_5
REMARK    3  A    between atoms: C10_12  and  O3_13
REMARK    4  A    between atoms: C10_12  and  C11_15
REMARK    5  A    between atoms: C12_16  and  C13_17
REMARK    6  A    between atoms: C16_21  and  C17_22
REMARK    7  A    between atoms: C17_22  and  C19_25
REMARK    8  A    between atoms: C19_25  and  C20_26
ROOT
HETATM    1  C3  UNL     1      -4.915   4.427  12.421  1.00  0.00     0.172 C
HETATM    2  C4  UNL     1      -5.532   4.357  13.846  1.00  0.00     0.041 C
HETATM    3  C5  UNL     1      -4.940   5.444  14.633  1.00  0.00    -0.011 C
HETATM    4  C6  UNL     1      -5.918   6.215  15.534  1.00  0.00     0.010 C
HETATM    5  C7  UNL     1      -3.665   5.152  15.367  1.00  0.00     0.005 C
HETATM    6  C8  UNL     1      -2.892   3.997  14.816  1.00  0.00     0.009 C
HETATM    7  C9  UNL     1      -3.660   3.058  13.980  1.00  0.00     0.042 C
HETATM    8  C10 UNL     1      -3.706   3.558  12.522  1.00  0.00     0.094 C
HETATM    9  C19 UNL     1      -5.120   2.933  14.257  1.00  0.00     0.067 C
ENDROOT
BRANCH   1  10
HETATM   10  O2  UNL     1      -4.529   5.712  12.053  1.00  0.00    -0.313 OA
BRANCH  10  11
HETATM   11  C2  UNL     1      -5.275   6.580  11.299  1.00  0.00     0.255 C
HETATM   12  C1  UNL     1      -5.582   7.977  11.702  1.00  0.00     0.126 C
HETATM   13  O1  UNL     1      -5.708   6.141  10.212  1.00  0.00    -0.266 OA
ENDBRANCH  10  11
ENDBRANCH   1  10
BRANCH   8  14
HETATM   14  O3  UNL     1      -2.510   4.191  12.283  1.00  0.00    -0.386 OA
ATOM     15  H3  UNL     1      -1.842   4.057  12.945  1.00  0.00     0.210 HD
ENDBRANCH   8  14
BRANCH   8  16
HETATM   16  C11 UNL     1      -3.794   2.284  11.723  1.00  0.00     0.041 A
HETATM   17  C12 UNL     1      -2.922   1.143  12.029  1.00  0.00     0.063 A
HETATM   18  C15 UNL     1      -2.259   1.188  10.649  1.00  0.00     0.020 A
HETATM   19  C16 UNL     1      -3.109   2.421  10.386  1.00  0.00     0.032 A
BRANCH  17  20
HETATM   20  C13 UNL     1      -3.583  -0.179  12.186  1.00  0.00     0.127 C
HETATM   21  C14 UNL     1      -3.176  -1.283  11.290  1.00  0.00     0.091 C
HETATM   22  O4  UNL     1      -4.439  -0.383  13.016  1.00  0.00    -0.298 OA
ENDBRANCH  17  20
BRANCH  19  23
HETATM   23  C17 UNL     1      -2.270   3.623  10.234  1.00  0.00     0.102 A
HETATM   24  C18 UNL     1      -2.724   4.556   9.144  1.00  0.00     0.208 A
HETATM   25  O5  UNL     1      -1.535   3.862   9.075  1.00  0.00    -0.373 OA
ENDBRANCH  19  23
ENDBRANCH   8  16
BRANCH   9  26
HETATM   26  C20 UNL     1      -5.528   2.574  15.593  1.00  0.00     0.135 C
HETATM   27  C21 UNL     1      -4.758   1.632  16.483  1.00  0.00     0.091 C
HETATM   28  O6  UNL     1      -6.538   3.017  16.090  1.00  0.00    -0.297 OA
ENDBRANCH   9  26
TORSDOF 8
ENDMDL