MODEL 3
REMARK VINA RESULT: -7.405534826      2.946      7.155
REMARK  4 active torsions:
REMARK  status: ('A' for Active; 'I' for Inactive)
REMARK       I    between atoms: C1_2  and  N1_3
REMARK    1  A    between atoms: C1_2  and  C15_23
REMARK    2  A    between atoms: C2_5  and  C3_6
REMARK    3  A    between atoms: C7_13  and  C8_14
REMARK    4  A    between atoms: C8_14  and  O4_15
ROOT
HETATM    1  C3  UNL     1      -1.206   4.591  11.772  1.00  0.00     0.172 C
HETATM    2  C4  UNL     1      -1.687   5.811  12.493  1.00  0.00     0.112 C
HETATM    3  S1  UNL     1      -3.032   5.408  13.605  1.00  0.00    -0.155 SA
HETATM    4  C5  UNL     1      -3.130   3.641  13.980  1.00  0.00     0.117 C
HETATM    5  C6  UNL     1      -2.283   2.913  12.952  1.00  0.00     0.276 C
HETATM    6  O2  UNL     1      -1.095   3.556  12.697  1.00  0.00    -0.349 OA
HETATM    7  O3  UNL     1      -3.056   2.860  11.804  1.00  0.00    -0.352 OA
HETATM    8  C7  UNL     1      -4.372   2.871  12.163  1.00  0.00     0.161 C
HETATM    9  C9  UNL     1      -4.503   3.079  13.647  1.00  0.00     0.022 C
HETATM   10  C10 UNL     1      -5.570   4.063  13.969  1.00  0.00    -0.017 C
HETATM   11  C11 UNL     1      -6.329   3.898  15.024  1.00  0.00    -0.030 C
HETATM   12  C12 UNL     1      -6.274   2.794  16.007  1.00  0.00     0.027 C
HETATM   13  C13 UNL     1      -4.925   2.123  15.889  1.00  0.00     0.005 C
HETATM   14  C14 UNL     1      -4.681   1.808  14.428  1.00  0.00     0.018 C
ENDROOT
BRANCH   1  15
HETATM   15  C2  UNL     1       0.069   4.823  11.045  1.00  0.00     0.096 C
HETATM   16  N1  UNL     1       1.056   4.026  11.066  1.00  0.00    -0.336 N
HETATM   17  C1  UNL     1       2.234   4.296  10.360  1.00  0.00     0.251 C
ATOM     18  H1  UNL     1       0.988   3.166  11.610  1.00  0.00     0.168 HD
HETATM   19  O1  UNL     1       2.685   3.409   9.591  1.00  0.00    -0.270 OA
BRANCH  17  20
HETATM   20  C15 UNL     1       2.998   5.559  10.451  1.00  0.00     0.224 C
HETATM   21  O5  UNL     1       2.220   6.695  10.680  1.00  0.00    -0.375 OA
HETATM   22  C16 UNL     1       3.126   7.184  11.623  1.00  0.00     0.181 C
HETATM   23  C17 UNL     1       3.711   5.828  11.704  1.00  0.00     0.016 A
HETATM   24  C18 UNL     1       5.049   5.474  12.066  1.00  0.00     0.016 A
HETATM   25  C19 UNL     1       3.811   4.990  12.864  1.00  0.00     0.016 A
ENDBRANCH  17  20
ENDBRANCH   1  15
BRANCH   8  26
HETATM   26  C8  UNL     1      -5.064   1.638  11.637  1.00  0.00     0.197 C
BRANCH  26  27
HETATM   27  O4  UNL     1      -4.793   1.442  10.294  1.00  0.00    -0.398 OA
ATOM     28  H4  UNL     1      -5.463   0.911   9.880  1.00  0.00     0.209 HD
ENDBRANCH  26  27
ENDBRANCH   8  26
TORSDOF 4
ENDMDL