MODEL 5
REMARK VINA RESULT: -7.191723197      1.249      2.212
REMARK  8 active torsions:
REMARK  status: ('A' for Active; 'I' for Inactive)
REMARK    1  A    between atoms: C2_2  and  C3_3
REMARK    2  A    between atoms: N1_6  and  C6_7
REMARK       I    between atoms: N2_14  and  C12_15
REMARK    3  A    between atoms: C12_15  and  C13_17
REMARK    4  A    between atoms: C13_17  and  C14_19
REMARK    5  A    between atoms: C14_19  and  C15_20
REMARK    6  A    between atoms: C14_19  and  C17_23
REMARK    7  A    between atoms: C17_23  and  O5_24
REMARK    8  A    between atoms: N3_26  and  O6_28
ROOT
HETATM    1  C3  UNL     1      -3.297   5.956  13.297  1.00  0.00     0.121 C
HETATM    2  C4  UNL     1      -3.356   7.466  13.308  1.00  0.00     0.050 C
HETATM    3  C5  UNL     1      -4.083   7.915  12.044  1.00  0.00     0.130 C
HETATM    4  N1  UNL     1      -5.454   7.455  12.148  1.00  0.00    -0.329 N
HETATM    5  C11 UNL     1      -5.712   6.316  12.942  1.00  0.00     0.328 C
HETATM    6  O1  UNL     1      -6.876   6.040  13.301  1.00  0.00    -0.246 OA
HETATM    7  N2  UNL     1      -4.643   5.435  13.365  1.00  0.00    -0.255 N
HETATM    8  C12 UNL     1      -4.990   4.132  13.794  1.00  0.00     0.299 C
HETATM    9  O2  UNL     1      -6.230   3.816  13.816  1.00  0.00    -0.264 OA
ENDROOT
BRANCH   8  10
HETATM   10  C13 UNL     1      -4.072   3.119  14.210  1.00  0.00     0.236 C
HETATM   11  O3  UNL     1      -3.455   3.216  15.289  1.00  0.00    -0.286 OA
BRANCH  10  12
HETATM   12  C14 UNL     1      -3.795   1.887  13.387  1.00  0.00     0.210 C
BRANCH  12  13
HETATM   13  C15 UNL     1      -4.344   2.046  12.009  1.00  0.00     0.142 C
HETATM   14  C16 UNL     1      -3.501   2.520  10.883  1.00  0.00     0.092 C
HETATM   15  O4  UNL     1      -5.510   1.789  11.771  1.00  0.00    -0.297 OA
ENDBRANCH  12  13
BRANCH  12  16
HETATM   16  C17 UNL     1      -4.328   0.683  14.052  1.00  0.00     0.154 C
HETATM   17  N3  UNL     1      -4.519   0.684  15.313  1.00  0.00    -0.250 N
ATOM     18  H3  UNL     1      -4.297   1.525  15.845  1.00  0.00     0.196 HD
BRANCH  16  19
HETATM   19  O5  UNL     1      -4.618  -0.437  13.316  1.00  0.00    -0.347 OA
ATOM     20  H5  UNL     1      -4.024  -1.179  13.323  1.00  0.00     0.219 HD
ENDBRANCH  16  19
BRANCH  17  21
HETATM   21  O6  UNL     1      -5.012  -0.410  15.975  1.00  0.00    -0.288 OA
ATOM     22  H6  UNL     1      -5.768  -0.354  16.547  1.00  0.00     0.244 HD
ENDBRANCH  17  21
ENDBRANCH  12  16
ENDBRANCH  10  12
ENDBRANCH   8  10
BRANCH   1  23
HETATM   23  C2  UNL     1      -2.669   5.506  12.018  1.00  0.00    -0.011 C
HETATM   24  C1  UNL     1      -1.362   5.303  11.925  1.00  0.00     0.009 C
ENDBRANCH   1  23
BRANCH   4  25
HETATM   25  C6  UNL     1      -6.497   8.128  11.466  1.00  0.00     0.089 C
HETATM   26  C7  UNL     1      -6.882   7.518  10.131  1.00  0.00     0.025 C
HETATM   27  C8  UNL     1      -7.873   8.546   9.623  1.00  0.00     0.002 C
HETATM   28  C9  UNL     1      -7.194   9.847   9.946  1.00  0.00     0.002 C
HETATM   29  C10 UNL     1      -6.119   9.538  10.997  1.00  0.00     0.025 C
ENDBRANCH   4  25
TORSDOF 8
ENDMDL