MODEL 4
REMARK VINA RESULT: -6.782908366      1.431      1.929
REMARK  8 active torsions:
REMARK  status: ('A' for Active; 'I' for Inactive)
REMARK    1  A    between atoms: C2_2  and  C4_4
REMARK    2  A    between atoms: C4_4  and  C5_5
REMARK    3  A    between atoms: C5_5  and  N1_6
REMARK    4  A    between atoms: N1_6  and  C6_8
REMARK    5  A    between atoms: C7_11  and  N3_12
REMARK    6  A    between atoms: C10_15  and  N4_16
REMARK    7  A    between atoms: C15_23  and  N6_24
REMARK    8  A    between atoms: N6_24  and  C16_26
ROOT
HETATM    1  C6  UNL     1      -4.146   1.279  13.402  1.00  0.00     0.707 A
HETATM    2  N2  UNL     1      -3.754   2.563  13.423  1.00  0.00    -0.021 N
ATOM      3  H2  UNL     1      -3.506   3.000  12.535  1.00  0.00     0.203 HD
HETATM    4  C7  UNL     1      -3.668   3.315  14.537  1.00  0.00     0.709 A
HETATM    5  N5  UNL     1      -4.010   2.694  15.702  1.00  0.00    -0.021 N
ATOM      6  H5  UNL     1      -3.961   3.220  16.576  1.00  0.00     0.203 HD
HETATM    7  C15 UNL     1      -4.405   1.424  15.736  1.00  0.00     0.707 A
HETATM    8  N7  UNL     1      -4.474   0.709  14.575  1.00  0.00    -0.022 N
ATOM      9  H7  UNL     1      -4.776  -0.265  14.598  1.00  0.00     0.203 HD
ENDROOT
BRANCH   4  10
HETATM   10  N3  UNL     1      -3.251   4.659  14.507  1.00  0.00    -0.216 N
HETATM   11  C8  UNL     1      -1.859   5.026  14.467  1.00  0.00     0.143 C
HETATM   12  C9  UNL     1      -1.685   6.165  13.456  1.00  0.00     0.045 C
HETATM   13  C10 UNL     1      -2.446   7.355  13.986  1.00  0.00     0.081 C
HETATM   14  C13 UNL     1      -3.517   6.986  14.949  1.00  0.00     0.045 C
HETATM   15  C14 UNL     1      -4.232   5.712  14.515  1.00  0.00     0.143 C
BRANCH  13  16
HETATM   16  N4  UNL     1      -2.888   8.235  12.931  1.00  0.00    -0.416 N
HETATM   17  C11 UNL     1      -3.023   7.598  11.664  1.00  0.00     0.143 C
HETATM   18  C12 UNL     1      -2.266   9.510  12.928  1.00  0.00     0.143 C
ENDBRANCH  13  16
ENDBRANCH   4  10
BRANCH   1  19
HETATM   19  N1  UNL     1      -4.194   0.648  12.276  1.00  0.00    -0.225 N
ATOM     20  H1  UNL     1      -4.675  -0.249  12.211  1.00  0.00     0.177 HD
BRANCH  19  21
HETATM   21  C5  UNL     1      -3.569   1.213  11.120  1.00  0.00     0.138 C
BRANCH  21  22
HETATM   22  C4  UNL     1      -2.076   0.991  11.087  1.00  0.00     0.024 C
BRANCH  22  23
HETATM   23  C2  UNL     1      -1.450   2.321  10.668  1.00  0.00    -0.021 C
HETATM   24  C1  UNL     1      -0.638   2.872  11.824  1.00  0.00     0.009 C
HETATM   25  C3  UNL     1      -2.528   3.335  10.342  1.00  0.00     0.009 C
ENDBRANCH  22  23
ENDBRANCH  21  22
ENDBRANCH  19  21
ENDBRANCH   1  19
BRANCH   7  26
HETATM   26  N6  UNL     1      -4.742   0.782  16.795  1.00  0.00    -0.220 N
ATOM     27  H6  UNL     1      -4.042   0.339  17.391  1.00  0.00     0.178 HD
BRANCH  26  28
HETATM   28  C16 UNL     1      -6.162   0.709  17.113  1.00  0.00     0.099 A
HETATM   29  C17 UNL     1      -6.919   1.981  17.032  1.00  0.00     0.028 A
HETATM   30  C18 UNL     1      -6.639   1.371  18.362  1.00  0.00     0.028 A
ENDBRANCH  26  28
ENDBRANCH   7  26
TORSDOF 8
ENDMDL