MODEL 5
REMARK VINA RESULT: -6.629266742      2.247      3.432
REMARK  8 active torsions:
REMARK  status: ('A' for Active; 'I' for Inactive)
REMARK    1  A    between atoms: C2_2  and  C3_3
REMARK    2  A    between atoms: C3_3  and  C4_4
REMARK    3  A    between atoms: C4_4  and  N1_5
REMARK    4  A    between atoms: C6_7  and  C7_8
REMARK       I    between atoms: C7_8  and  N2_10
REMARK    5  A    between atoms: C9_12  and  O2_13
REMARK    6  A    between atoms: C16_21  and  C17_22
REMARK    7  A    between atoms: C17_22  and  O4_23
REMARK    8  A    between atoms: N3_25  and  O5_27
ROOT
HETATM    1  N1  UNL     1      -4.623   3.100  12.111  1.00  0.00    -0.411 N
HETATM    2  C5  UNL     1      -3.937   4.321  12.319  1.00  0.00     0.131 C
HETATM    3  C6  UNL     1      -2.839   4.083  13.361  1.00  0.00     0.096 C
HETATM    4  C15 UNL     1      -3.635   3.853  14.657  1.00  0.00     0.030 C
HETATM    5  C16 UNL     1      -4.251   2.458  14.474  1.00  0.00     0.080 C
HETATM    6  C18 UNL     1      -5.106   2.431  13.254  1.00  0.00     0.129 C
ENDROOT
BRANCH   3   7
HETATM    7  C7  UNL     1      -1.914   5.202  13.433  1.00  0.00     0.226 C
HETATM    8  O1  UNL     1      -2.004   6.017  14.383  1.00  0.00    -0.273 OA
HETATM    9  N2  UNL     1      -0.919   5.398  12.460  1.00  0.00    -0.342 N
HETATM   10  C8  UNL     1       0.050   6.474  12.441  1.00  0.00     0.161 C
HETATM   11  C14 UNL     1      -0.664   4.587  11.267  1.00  0.00     0.120 C
HETATM   12  C9  UNL     1       0.368   6.688  11.003  1.00  0.00     0.169 C
HETATM   13  C11 UNL     1      -0.397   5.669  10.226  1.00  0.00     0.174 C
HETATM   14  O3  UNL     1       0.375   5.049   9.247  1.00  0.00    -0.381 OA
HETATM   15  C12 UNL     1       1.178   4.105   9.870  1.00  0.00     0.170 C
HETATM   16  C13 UNL     1       0.678   3.908  11.280  1.00  0.00     0.054 C
BRANCH  12  17
HETATM   17  O2  UNL     1       0.093   7.992  10.579  1.00  0.00    -0.386 OA
HETATM   18  C10 UNL     1      -1.214   8.017  10.110  1.00  0.00     0.202 C
ENDBRANCH  12  17
ENDBRANCH   3   7
BRANCH   1  19
HETATM   19  C4  UNL     1      -4.230   2.311  10.996  1.00  0.00     0.117 C
BRANCH  19  20
HETATM   20  C3  UNL     1      -4.557   0.851  11.256  1.00  0.00     0.019 C
BRANCH  20  21
HETATM   21  C2  UNL     1      -3.349  -0.033  11.041  1.00  0.00    -0.003 C
HETATM   22  C1  UNL     1      -2.122   0.844  11.250  1.00  0.00     0.005 C
ENDBRANCH  20  21
ENDBRANCH  19  20
ENDBRANCH   1  19
BRANCH   5  23
HETATM   23  C17 UNL     1      -5.118   2.239  15.659  1.00  0.00     0.141 C
HETATM   24  N3  UNL     1      -4.819   1.386  16.564  1.00  0.00    -0.251 N
ATOM     25  H3  UNL     1      -5.429   1.250  17.370  1.00  0.00     0.196 HD
BRANCH  23  26
HETATM   26  O4  UNL     1      -6.289   2.979  15.789  1.00  0.00    -0.348 OA
ATOM     27  H4  UNL     1      -6.548   3.290  16.649  1.00  0.00     0.219 HD
ENDBRANCH  23  26
BRANCH  24  28
HETATM   28  O5  UNL     1      -3.663   0.658  16.432  1.00  0.00    -0.288 OA
ATOM     29  H5  UNL     1      -3.688  -0.157  15.944  1.00  0.00     0.244 HD
ENDBRANCH  24  28
ENDBRANCH   5  23
TORSDOF 8
ENDMDL