MODEL 5
REMARK VINA RESULT: -6.625563571      3.688      7.736
REMARK  6 active torsions:
REMARK  status: ('A' for Active; 'I' for Inactive)
REMARK    1  A    between atoms: N1_2  and  C2_3
REMARK    2  A    between atoms: N1_2  and  C12_21
REMARK    3  A    between atoms: C2_3  and  C3_4
REMARK    4  A    between atoms: C3_4  and  C4_5
REMARK    5  A    between atoms: C4_5  and  N2_6
REMARK       I    between atoms: N2_6  and  C5_8
REMARK    6  A    between atoms: C5_8  and  C6_10
ROOT
HETATM    1  N2  UNL     1      -2.631   1.766  12.130  1.00  0.00    -0.358 N
ATOM      2  H2  UNL     1      -2.262   1.859  13.076  1.00  0.00     0.162 HD
HETATM    3  C5  UNL     1      -4.000   2.057  11.876  1.00  0.00     0.257 C
HETATM    4  O1  UNL     1      -4.426   1.937  10.699  1.00  0.00    -0.270 OA
ENDROOT
BRANCH   1   5
HETATM    5  C4  UNL     1      -1.756   1.339  11.063  1.00  0.00     0.124 C
BRANCH   5   6
HETATM    6  C3  UNL     1      -1.063   2.526  10.432  1.00  0.00     0.050 C
BRANCH   6   7
HETATM    7  C2  UNL     1      -0.870   3.621  11.463  1.00  0.00     0.274 C
BRANCH   7   8
HETATM    8  N1  UNL     1      -1.388   4.874  11.019  1.00  0.00     0.089 N
HETATM    9  C1  UNL     1      -2.120   4.858   9.800  1.00  0.00     0.310 C
BRANCH   8  10
HETATM   10  C12 UNL     1      -2.018   5.625  12.076  1.00  0.00     0.226 C
HETATM   11  C13 UNL     1      -1.860   7.104  11.928  1.00  0.00     0.062 C
HETATM   12  C14 UNL     1      -2.832   7.772  12.877  1.00  0.00     0.169 C
HETATM   13  O2  UNL     1      -3.213   6.934  13.909  1.00  0.00    -0.391 OA
HETATM   14  C15 UNL     1      -2.141   6.215  14.438  1.00  0.00     0.169 C
HETATM   15  C16 UNL     1      -1.583   5.220  13.439  1.00  0.00     0.062 C
ENDBRANCH   8  10
ENDBRANCH   7   8
ENDBRANCH   6   7
ENDBRANCH   5   6
ENDBRANCH   1   5
BRANCH   3  16
HETATM   16  C6  UNL     1      -4.869   2.489  13.002  1.00  0.00     0.278 C
HETATM   17  N3  UNL     1      -4.379   1.895  14.216  1.00  0.00    -0.368 N
HETATM   18  C7  UNL     1      -5.023   2.008  15.331  1.00  0.00     0.008 C
ATOM     19  H3  UNL     1      -3.502   1.374  14.198  1.00  0.00     0.161 HD
HETATM   20  C8  UNL     1      -4.529   1.399  16.597  1.00  0.00     0.127 C
HETATM   21  C11 UNL     1      -6.300   2.790  15.261  1.00  0.00     0.111 C
HETATM   22  S1  UNL     1      -5.906   0.684  17.535  1.00  0.00    -0.163 SA
HETATM   23  C9  UNL     1      -7.375   1.683  17.149  1.00  0.00     0.076 C
HETATM   24  C10 UNL     1      -6.869   3.020  16.642  1.00  0.00     0.032 C
HETATM   25  S2  UNL     1      -5.899   4.364  14.448  1.00  0.00    -0.052 SA
HETATM   26  N4  UNL     1      -4.864   3.943  13.054  1.00  0.00    -0.143 NA
ENDBRANCH   3  16
TORSDOF 6
ENDMDL