MODEL 3
REMARK VINA RESULT: -6.563375646      3.252      9.308
REMARK  8 active torsions:
REMARK  status: ('A' for Active; 'I' for Inactive)
REMARK    1  A    between atoms: C3_3  and  N1_4
REMARK       I    between atoms: N1_4  and  C4_6
REMARK    2  A    between atoms: C4_6  and  O2_8
REMARK    3  A    between atoms: O2_8  and  C5_9
REMARK    4  A    between atoms: N2_12  and  C8_13
REMARK    5  A    between atoms: C8_13  and  C9_14
REMARK    6  A    between atoms: C9_14  and  C10_15
REMARK    7  A    between atoms: C10_15  and  O3_16
REMARK    8  A    between atoms: C14_21  and  N3_22
ROOT
HETATM    1  N1  UNL     1      -5.041   7.230  12.189  1.00  0.00    -0.332 N
ATOM      2  H1  UNL     1      -5.640   6.405  12.136  1.00  0.00     0.165 HD
HETATM    3  C4  UNL     1      -3.852   7.241  12.980  1.00  0.00     0.361 C
HETATM    4  O1  UNL     1      -3.107   8.252  13.048  1.00  0.00    -0.238 OA
ENDROOT
BRANCH   1   5
HETATM    5  C3  UNL     1      -5.360   8.446  11.462  1.00  0.00     0.094 C
HETATM    6  C2  UNL     1      -6.831   8.638  11.160  1.00  0.00     0.027 C
HETATM    7  C1  UNL     1      -7.756   8.035  12.195  1.00  0.00     0.014 C
HETATM    8  C14 UNL     1      -6.630   7.862   9.907  1.00  0.00     0.086 C
HETATM    9  C13 UNL     1      -5.160   8.205   9.979  1.00  0.00     0.051 C
BRANCH   8  10
HETATM   10  N3  UNL     1      -7.236   8.345   8.712  1.00  0.00    -0.404 N
HETATM   11  C15 UNL     1      -8.534   7.863   8.434  1.00  0.00     0.147 C
HETATM   12  C16 UNL     1      -9.602   8.906   8.286  1.00  0.00     0.291 C
HETATM   13  N4  UNL     1      -9.156  10.110   7.671  1.00  0.00     0.087 N
HETATM   14  C17 UNL     1     -10.034  10.640   6.653  1.00  0.00     0.310 C
HETATM   15  C18 UNL     1      -7.829  10.022   7.130  1.00  0.00     0.291 C
HETATM   16  C19 UNL     1      -6.923   9.663   8.320  1.00  0.00     0.147 C
ENDBRANCH   8  10
ENDBRANCH   1   5
BRANCH   3  17
HETATM   17  O2  UNL     1      -3.440   6.123  13.730  1.00  0.00    -0.299 OA
BRANCH  17  18
HETATM   18  C5  UNL     1      -4.211   4.959  13.723  1.00  0.00     0.137 C
HETATM   19  C6  UNL     1      -5.270   4.945  14.803  1.00  0.00     0.063 C
HETATM   20  C7  UNL     1      -5.931   3.588  14.890  1.00  0.00     0.275 C
HETATM   21  N2  UNL     1      -4.932   2.542  15.152  1.00  0.00     0.088 N
HETATM   22  C11 UNL     1      -3.623   3.116  15.229  1.00  0.00     0.275 C
HETATM   23  C12 UNL     1      -3.314   3.766  13.882  1.00  0.00     0.063 C
BRANCH  21  24
HETATM   24  C8  UNL     1      -5.326   1.771  16.308  1.00  0.00     0.274 C
BRANCH  24  25
HETATM   25  C9  UNL     1      -6.714   2.144  16.724  1.00  0.00     0.056 C
BRANCH  25  26
HETATM   26  C10 UNL     1      -7.316   0.973  17.473  1.00  0.00     0.165 C
BRANCH  26  27
HETATM   27  O3  UNL     1      -6.418  -0.114  17.441  1.00  0.00    -0.401 OA
ATOM     28  H3  UNL     1      -6.876  -0.909  17.691  1.00  0.00     0.209 HD
ENDBRANCH  26  27
ENDBRANCH  25  26
ENDBRANCH  24  25
ENDBRANCH  21  24
ENDBRANCH  17  18
ENDBRANCH   3  17
TORSDOF 8
ENDMDL