MODEL 2
REMARK VINA RESULT: -6.179378088      1.430      2.089
REMARK  9 active torsions:
REMARK  status: ('A' for Active; 'I' for Inactive)
REMARK    1  A    between atoms: C2_2  and  N1_3
REMARK    2  A    between atoms: N1_3  and  C3_5
REMARK    3  A    between atoms: C3_5  and  N2_7
REMARK    4  A    between atoms: N3_9  and  C5_10
REMARK    5  A    between atoms: C5_10  and  C6_11
REMARK    6  A    between atoms: N4_12  and  N5_14
REMARK    7  A    between atoms: C12_20  and  C13_21
REMARK    8  A    between atoms: C13_21  and  O2_23
REMARK    9  A    between atoms: O2_23  and  C14_24
ROOT
HETATM    1  N2  UNL     1      -3.900   3.734  13.309  1.00  0.00    -0.284 N
HETATM    2  C4  UNL     1      -4.694   4.116  12.129  1.00  0.00     0.407 C
HETATM    3  N3  UNL     1      -3.880   3.909  10.975  1.00  0.00     0.132 N
HETATM    4  C12 UNL     1      -2.549   3.590  11.421  1.00  0.00     0.390 C
HETATM    5  C16 UNL     1      -2.557   3.830  12.880  1.00  0.00     0.125 C
HETATM    6  N6  UNL     1      -1.528   4.078  13.585  1.00  0.00    -0.386 N
ATOM      7  H61 UNL     1      -0.559   4.147  13.276  1.00  0.00     0.157 HD
ATOM      8  H62 UNL     1      -1.534   4.243  14.592  1.00  0.00     0.157 HD
ENDROOT
BRANCH   3   9
HETATM    9  C5  UNL     1      -3.811   5.049  10.099  1.00  0.00     0.322 C
BRANCH   9  10
HETATM   10  C6  UNL     1      -4.858   5.050   9.070  1.00  0.00     0.110 C
HETATM   11  N4  UNL     1      -5.677   6.050   9.013  1.00  0.00    -0.316 N
ATOM     12  H4  UNL     1      -6.404   6.046   8.297  1.00  0.00     0.185 HD
BRANCH  11  13
HETATM   13  N5  UNL     1      -5.609   7.123   9.879  1.00  0.00    -0.328 N
HETATM   14  C7  UNL     1      -4.805   8.272   9.540  1.00  0.00     0.142 C
HETATM   15  C8  UNL     1      -4.825   9.276  10.677  1.00  0.00     0.021 C
HETATM   16  C9  UNL     1      -6.216   9.609  11.122  1.00  0.00     0.003 C
HETATM   17  C10 UNL     1      -7.113   8.418  11.189  1.00  0.00     0.021 C
HETATM   18  C11 UNL     1      -6.326   7.138  11.129  1.00  0.00     0.142 C
ENDBRANCH  11  13
ENDBRANCH   9  10
ENDBRANCH   3   9
BRANCH   4  19
HETATM   19  C13 UNL     1      -2.245   2.136  11.224  1.00  0.00     0.300 C
HETATM   20  O1  UNL     1      -1.323   1.636  11.920  1.00  0.00    -0.262 OA
BRANCH  19  21
HETATM   21  O2  UNL     1      -2.895   1.314  10.341  1.00  0.00    -0.320 OA
BRANCH  21  22
HETATM   22  C14 UNL     1      -3.519   0.099  10.719  1.00  0.00     0.174 C
HETATM   23  C15 UNL     1      -4.658   0.394  11.678  1.00  0.00     0.034 C
ENDBRANCH  21  22
ENDBRANCH  19  21
ENDBRANCH   4  19
BRANCH   1  24
HETATM   24  C3  UNL     1      -4.420   3.364  14.576  1.00  0.00     0.176 C
HETATM   25  S1  UNL     1      -5.946   3.909  14.927  1.00  0.00    -0.041 SA
BRANCH  24  26
HETATM   26  N1  UNL     1      -3.705   2.584  15.493  1.00  0.00    -0.367 N
ATOM     27  H1  UNL     1      -2.702   2.721  15.615  1.00  0.00     0.161 HD
BRANCH  26  28
HETATM   28  C2  UNL     1      -4.412   1.581  16.265  1.00  0.00     0.117 C
HETATM   29  C1  UNL     1      -4.467   0.258  15.549  1.00  0.00     0.026 C
ENDBRANCH  26  28
ENDBRANCH  24  26
ENDBRANCH   1  24
TORSDOF 9
ENDMDL