MODEL 2
REMARK VINA RESULT: -7.596226886      1.332      1.705
REMARK  6 active torsions:
REMARK  status: ('A' for Active; 'I' for Inactive)
REMARK    1  A    between atoms: C2_2  and  C3_3
REMARK    2  A    between atoms: C3_3  and  N1_4
REMARK       I    between atoms: N1_4  and  C4_6
REMARK    3  A    between atoms: C4_6  and  C5_8
REMARK    4  A    between atoms: C6_9  and  C7_10
REMARK    5  A    between atoms: C7_10  and  N2_11
REMARK       I    between atoms: N2_11  and  C8_13
REMARK    6  A    between atoms: C8_13  and  C9_15
ROOT
HETATM    1  C9  UNL     1      -5.350   7.239  10.532  1.00  0.00     0.129 C
HETATM    2  C10 UNL     1      -6.053   6.361   9.565  1.00  0.00     0.079 C
HETATM    3  N3  UNL     1      -6.587   5.664   8.813  1.00  0.00    -0.196 NA
HETATM    4  C11 UNL     1      -4.775   8.440   9.886  1.00  0.00     0.034 C
HETATM    5  C12 UNL     1      -5.722   9.580   9.702  1.00  0.00     0.002 C
HETATM    6  C13 UNL     1      -6.302   9.907  11.084  1.00  0.00     0.000 C
HETATM    7  C14 UNL     1      -7.171   8.712  11.443  1.00  0.00     0.002 C
HETATM    8  C15 UNL     1      -6.297   7.530  11.667  1.00  0.00     0.034 C
ENDROOT
BRANCH   1   9
HETATM    9  C8  UNL     1      -4.245   6.429  11.095  1.00  0.00     0.240 C
HETATM   10  N2  UNL     1      -4.268   5.031  10.892  1.00  0.00    -0.357 N
ATOM     11  H2  UNL     1      -5.047   4.641  10.361  1.00  0.00     0.162 HD
HETATM   12  O2  UNL     1      -3.350   7.032  11.722  1.00  0.00    -0.272 OA
BRANCH  10  13
HETATM   13  C7  UNL     1      -3.257   4.108  11.389  1.00  0.00     0.157 C
BRANCH  13  14
HETATM   14  C6  UNL     1      -3.748   2.695  11.267  1.00  0.00     0.182 C
HETATM   15  C5  UNL     1      -3.703   1.914  12.567  1.00  0.00     0.350 C
HETATM   16  N4  UNL     1      -4.586   0.759  12.316  1.00  0.00     0.158 N
HETATM   17  C17 UNL     1      -3.992   0.019  11.245  1.00  0.00     0.388 C
HETATM   18  C18 UNL     1      -4.296  -0.372  13.170  1.00  0.00     0.447 C
HETATM   19  C16 UNL     1      -2.795   0.706  10.646  1.00  0.00     0.232 C
HETATM   20  O4  UNL     1      -3.594  -0.972  12.125  1.00  0.00    -0.325 OA
HETATM   21  O3  UNL     1      -2.971   2.024  10.348  1.00  0.00    -0.377 OA
BRANCH  15  22
HETATM   22  C4  UNL     1      -4.281   2.656  13.718  1.00  0.00     0.254 C
HETATM   23  N1  UNL     1      -5.563   3.231  13.741  1.00  0.00    -0.359 N
ATOM     24  H1  UNL     1      -6.149   3.133  12.911  1.00  0.00     0.162 HD
HETATM   25  O1  UNL     1      -3.566   2.785  14.755  1.00  0.00    -0.271 OA
BRANCH  23  26
HETATM   26  C3  UNL     1      -6.098   3.947  14.863  1.00  0.00     0.122 C
BRANCH  26  27
HETATM   27  C2  UNL     1      -6.153   5.432  14.700  1.00  0.00     0.015 C
HETATM   28  C1  UNL     1      -4.777   6.063  14.903  1.00  0.00     0.006 C
ENDBRANCH  26  27
ENDBRANCH  23  26
ENDBRANCH  15  22
ENDBRANCH  13  14
ENDBRANCH  10  13
ENDBRANCH   1   9
TORSDOF 6
ENDMDL