MODEL 5
REMARK VINA RESULT: -7.388840941      1.798      2.344
REMARK  9 active torsions:
REMARK  status: ('A' for Active; 'I' for Inactive)
REMARK    1  A    between atoms: C2_2  and  O1_3
REMARK    2  A    between atoms: O1_3  and  C3_4
REMARK       I    between atoms: C3_4  and  N1_6
REMARK    3  A    between atoms: N2_9  and  C6_10
REMARK    4  A    between atoms: C6_10  and  C7_11
REMARK    5  A    between atoms: C7_11  and  O3_12
REMARK    6  A    between atoms: C7_11  and  C8_14
REMARK    7  A    between atoms: C8_14  and  O4_15
REMARK    8  A    between atoms: C8_14  and  C9_17
REMARK    9  A    between atoms: C9_17  and  C10_19
ROOT
HETATM    1  C7  UNL     1      -3.934   3.818  10.333  1.00  0.00     0.192 C
ENDROOT
BRANCH   1   2
HETATM    2  C6  UNL     1      -2.966   3.773  11.466  1.00  0.00     0.092 C
BRANCH   2   3
HETATM    3  N2  UNL     1      -3.368   3.045  12.602  1.00  0.00    -0.388 N
HETATM    4  C5  UNL     1      -3.190   1.641  12.516  1.00  0.00     0.142 C
HETATM    5  C4  UNL     1      -4.341   0.938  13.201  1.00  0.00     0.148 C
HETATM    6  N1  UNL     1      -4.583   1.552  14.509  1.00  0.00    -0.325 N
HETATM    7  C3  UNL     1      -4.727   0.727  15.656  1.00  0.00     0.362 C
HETATM    8  C19 UNL     1      -4.669   2.988  14.615  1.00  0.00     0.148 C
HETATM    9  O2  UNL     1      -4.653  -0.545  15.563  1.00  0.00    -0.238 OA
HETATM   10  C18 UNL     1      -3.506   3.637  13.851  1.00  0.00     0.142 C
BRANCH   7  11
HETATM   11  O1  UNL     1      -4.952   1.221  16.922  1.00  0.00    -0.304 OA
BRANCH  11  12
HETATM   12  C2  UNL     1      -6.042   0.761  17.715  1.00  0.00     0.176 C
HETATM   13  C1  UNL     1      -7.354   1.330  17.286  1.00  0.00     0.034 C
ENDBRANCH  11  12
ENDBRANCH   7  11
ENDBRANCH   2   3
ENDBRANCH   1   2
BRANCH   1  14
HETATM   14  O3  UNL     1      -5.149   3.211  10.540  1.00  0.00    -0.387 OA
ATOM     15  H3  UNL     1      -5.754   3.660  11.118  1.00  0.00     0.210 HD
ENDBRANCH   1  14
BRANCH   1  16
HETATM   16  C8  UNL     1      -4.074   5.191   9.697  1.00  0.00     0.225 C
BRANCH  16  17
HETATM   17  O4  UNL     1      -2.797   5.710   9.429  1.00  0.00    -0.385 OA
ATOM     18  H4  UNL     1      -2.283   5.710  10.228  1.00  0.00     0.210 HD
ENDBRANCH  16  17
BRANCH  16  19
HETATM   19  C9  UNL     1      -4.864   5.168   8.439  1.00  0.00     0.180 C
HETATM   20  O5  UNL     1      -4.356   4.735   7.390  1.00  0.00    -0.290 OA
BRANCH  19  21
HETATM   21  C10 UNL     1      -6.221   5.653   8.450  1.00  0.00     0.056 C
HETATM   22  C11 UNL     1      -6.633   6.894   8.522  1.00  0.00    -0.076 C
HETATM   23  C12 UNL     1      -8.123   7.118   8.514  1.00  0.00     0.034 C
HETATM   24  C17 UNL     1      -5.674   7.988   8.610  1.00  0.00     0.034 C
HETATM   25  C13 UNL     1      -8.379   8.282   9.460  1.00  0.00     0.008 C
HETATM   26  C14 UNL     1      -7.715   9.473   8.849  1.00  0.00    -0.018 C
HETATM   27  C15 UNL     1      -8.449   9.800   7.555  1.00  0.00     0.010 C
HETATM   28  C16 UNL     1      -6.252   9.367   8.641  1.00  0.00     0.008 C
ENDBRANCH  19  21
ENDBRANCH  16  19
ENDBRANCH   1  16
TORSDOF 9
ENDMDL