MODEL 3
REMARK VINA RESULT: -6.963963461      3.074      4.422
REMARK  7 active torsions:
REMARK  status: ('A' for Active; 'I' for Inactive)
REMARK    1  A    between atoms: C2_2  and  C3_3
REMARK    2  A    between atoms: C3_3  and  N1_4
REMARK    3  A    between atoms: N2_13  and  C11_14
REMARK    4  A    between atoms: C11_14  and  C12_15
REMARK    5  A    between atoms: C12_15  and  N3_16
REMARK    6  A    between atoms: C12_15  and  C17_25
REMARK       I    between atoms: N3_16  and  C13_18
REMARK       I    between atoms: C13_18  and  N4_20
REMARK    7  A    between atoms: N4_20  and  C14_22
ROOT
HETATM    1  C3  UNL     1      -5.252   5.572   8.958  1.00  0.00     0.388 C
HETATM    2  O1  UNL     1      -3.982   6.078   8.913  1.00  0.00    -0.329 OA
HETATM    3  C9  UNL     1      -3.195   5.928  10.011  1.00  0.00     0.190 C
HETATM    4  C10 UNL     1      -3.947   5.483  11.225  1.00  0.00     0.147 C
HETATM    5  N2  UNL     1      -4.756   4.368  10.866  1.00  0.00    -0.187 NA
HETATM    6  O4  UNL     1      -5.494   4.535   9.797  1.00  0.00    -0.235 OA
ENDROOT
BRANCH   5   7
HETATM    7  C11 UNL     1      -4.137   3.100  10.889  1.00  0.00     0.154 C
BRANCH   7   8
HETATM    8  C12 UNL     1      -3.242   2.801  12.038  1.00  0.00     0.170 C
BRANCH   8   9
HETATM    9  N3  UNL     1      -3.816   1.833  12.956  1.00  0.00    -0.330 N
HETATM   10  C13 UNL     1      -4.246   2.263  14.244  1.00  0.00     0.317 C
HETATM   11  O2  UNL     1      -4.147   3.452  14.622  1.00  0.00    -0.247 OA
HETATM   12  N4  UNL     1      -4.805   1.312  15.133  1.00  0.00    -0.339 N
ATOM     13  H4  UNL     1      -4.896   0.338  14.845  1.00  0.00     0.164 HD
ATOM     14  H3  UNL     1      -3.910   0.855  12.681  1.00  0.00     0.165 HD
BRANCH  12  15
HETATM   15  C14 UNL     1      -5.245   1.716  16.439  1.00  0.00     0.086 A
HETATM   16  C15 UNL     1      -6.109   0.730  17.235  1.00  0.00     0.027 A
HETATM   17  C16 UNL     1      -6.672   2.013  16.732  1.00  0.00     0.027 A
ENDBRANCH  12  15
ENDBRANCH   8   9
BRANCH   8  18
HETATM   18  C17 UNL     1      -1.999   2.152  11.480  1.00  0.00     0.146 C
HETATM   19  C18 UNL     1      -1.142   2.846  10.477  1.00  0.00     0.093 C
HETATM   20  O3  UNL     1      -1.638   1.038  11.821  1.00  0.00    -0.296 OA
ENDBRANCH   8  18
ENDBRANCH   7   8
ENDBRANCH   5   7
BRANCH   1  21
HETATM   21  C2  UNL     1      -5.493   5.001   7.543  1.00  0.00     0.101 C
HETATM   22  C1  UNL     1      -4.232   5.331   6.728  1.00  0.00     0.013 C
ENDBRANCH   1  21
BRANCH   1  23
HETATM   23  N1  UNL     1      -6.171   6.684   9.115  1.00  0.00     0.153 N
HETATM   24  C4  UNL     1      -7.425   6.516   8.451  1.00  0.00     0.279 C
HETATM   25  C5  UNL     1      -8.239   7.781   8.717  1.00  0.00     0.030 C
HETATM   26  C6  UNL     1      -7.630   8.971   8.011  1.00  0.00     0.003 C
HETATM   27  C7  UNL     1      -6.188   8.668   7.664  1.00  0.00     0.030 C
HETATM   28  C8  UNL     1      -5.534   7.948   8.818  1.00  0.00     0.279 C
ENDBRANCH   1  23
TORSDOF 7
ENDMDL