MODEL 5
REMARK VINA RESULT: -6.331640147      2.391      3.303
REMARK  10 active torsions:
REMARK  status: ('A' for Active; 'I' for Inactive)
REMARK    1  A    between atoms: N1_4  and  C4_5
REMARK    2  A    between atoms: C4_5  and  C5_6
REMARK    3  A    between atoms: C5_6  and  C6_7
REMARK    4  A    between atoms: C5_6  and  C8_13
REMARK    5  A    between atoms: C6_7  and  N2_8
REMARK    6  A    between atoms: N2_8  and  O1_9
REMARK    7  A    between atoms: N2_8  and  C7_11
REMARK    8  A    between atoms: C8_13  and  O3_15
REMARK       I    between atoms: N3_19  and  C12_20
REMARK    9  A    between atoms: C12_20  and  O5_22
REMARK   10  A    between atoms: O5_22  and  C13_23
ROOT
HETATM    1  C1  UNL     1      -4.084   6.855  15.438  1.00  0.00     0.013 C
HETATM    2  C2  UNL     1      -3.074   6.322  14.484  1.00  0.00     0.028 C
HETATM    3  C3  UNL     1      -2.874   4.867  14.454  1.00  0.00     0.278 C
HETATM    4  N1  UNL     1      -4.040   4.041  14.724  1.00  0.00     0.090 N
HETATM    5  C10 UNL     1      -5.156   4.363  13.921  1.00  0.00     0.292 C
HETATM    6  C11 UNL     1      -4.789   4.844  12.531  1.00  0.00     0.158 C
HETATM    7  N3  UNL     1      -4.453   6.238  12.529  1.00  0.00    -0.326 N
HETATM    8  C12 UNL     1      -5.397   7.156  11.945  1.00  0.00     0.363 C
HETATM    9  O4  UNL     1      -6.479   6.756  11.451  1.00  0.00    -0.238 OA
HETATM   10  C17 UNL     1      -3.253   6.838  13.057  1.00  0.00     0.134 C
ENDROOT
BRANCH   4  11
HETATM   11  C4  UNL     1      -3.585   2.695  14.509  1.00  0.00     0.281 C
BRANCH  11  12
HETATM   12  C5  UNL     1      -4.628   1.627  14.513  1.00  0.00     0.063 C
BRANCH  12  13
HETATM   13  C6  UNL     1      -4.280   0.663  13.391  1.00  0.00     0.167 C
BRANCH  13  14
HETATM   14  N2  UNL     1      -4.377   1.252  12.092  1.00  0.00    -0.236 N
BRANCH  14  15
HETATM   15  O1  UNL     1      -5.547   1.671  11.562  1.00  0.00    -0.285 OA
ATOM     16  H1  UNL     1      -5.793   1.506  10.660  1.00  0.00     0.245 HD
ENDBRANCH  14  15
BRANCH  14  17
HETATM   17  C7  UNL     1      -3.200   1.385  11.306  1.00  0.00     0.376 C
HETATM   18  O2  UNL     1      -2.064   1.082  11.770  1.00  0.00    -0.281 OA
ENDBRANCH  14  17
ENDBRANCH  13  14
ENDBRANCH  12  13
BRANCH  12  19
HETATM   19  C8  UNL     1      -4.845   0.998  15.838  1.00  0.00     0.121 C
HETATM   20  C9  UNL     1      -5.869   1.657  16.702  1.00  0.00     0.040 C
BRANCH  19  21
HETATM   21  O3  UNL     1      -3.637   0.778  16.485  1.00  0.00    -0.395 OA
ATOM     22  H3  UNL     1      -3.566   1.319  17.263  1.00  0.00     0.210 HD
ENDBRANCH  19  21
ENDBRANCH  12  19
ENDBRANCH  11  12
ENDBRANCH   4  11
BRANCH   8  23
HETATM   23  O5  UNL     1      -5.143   8.518  11.904  1.00  0.00    -0.294 OA
BRANCH  23  24
HETATM   24  C13 UNL     1      -4.943   9.255  10.740  1.00  0.00     0.061 C
HETATM   25  C14 UNL     1      -3.939  10.363  11.088  1.00  0.00     0.046 C
HETATM   26  C15 UNL     1      -6.184   9.974  10.252  1.00  0.00     0.046 C
HETATM   27  C16 UNL     1      -4.325   8.471   9.612  1.00  0.00     0.046 C
ENDBRANCH  23  24
ENDBRANCH   8  23
TORSDOF 10
ENDMDL