MODEL 4
REMARK VINA RESULT: -7.194212987      1.908      3.534
REMARK  3 active torsions:
REMARK  status: ('A' for Active; 'I' for Inactive)
REMARK    1  A    between atoms: C2_2  and  C3_3
REMARK    2  A    between atoms: N3_17  and  C11_18
REMARK    3  A    between atoms: C11_18  and  C12_19
ROOT
HETATM    1  C3  UNL     1      -2.140   3.840  12.374  1.00  0.00     0.068 C
HETATM    2  C4  UNL     1      -1.193   4.547  13.408  1.00  0.00     0.047 C
HETATM    3  O1  UNL     1      -2.639   2.765  13.040  1.00  0.00    -0.341 OA
HETATM    4  C5  UNL     1      -3.893   2.753  13.516  1.00  0.00     0.220 C
HETATM    5  C6  UNL     1      -4.531   1.426  13.049  1.00  0.00     0.082 C
HETATM    6  C7  UNL     1      -4.050   2.783  14.963  1.00  0.00     0.281 C
HETATM    7  O2  UNL     1      -3.197   2.458  15.814  1.00  0.00    -0.267 OA
HETATM    8  N1  UNL     1      -5.352   3.249  15.244  1.00  0.00    -0.275 N
ATOM      9  H1  UNL     1      -5.858   3.160  16.125  1.00  0.00     0.173 HD
HETATM   10  C8  UNL     1      -5.817   3.867  14.051  1.00  0.00     0.328 C
HETATM   11  O3  UNL     1      -6.924   4.424  13.829  1.00  0.00    -0.247 OA
HETATM   12  N2  UNL     1      -4.805   3.780  13.049  1.00  0.00    -0.287 N
HETATM   13  C9  UNL     1      -4.491   4.387  11.812  1.00  0.00     0.129 C
HETATM   14  C10 UNL     1      -5.068   5.759  11.565  1.00  0.00     0.298 C
HETATM   15  N3  UNL     1      -4.262   6.155  10.386  1.00  0.00     0.093 N
HETATM   16  C18 UNL     1      -2.928   5.584  10.657  1.00  0.00     0.282 C
HETATM   17  C19 UNL     1      -3.054   4.875  11.937  1.00  0.00     0.073 C
ENDROOT
BRANCH  15  18
HETATM   18  C11 UNL     1      -4.273   7.561  10.226  1.00  0.00     0.304 C
BRANCH  18  19
HETATM   19  C12 UNL     1      -5.220   8.054   9.214  1.00  0.00     0.155 C
HETATM   20  C13 UNL     1      -5.091   9.454   8.714  1.00  0.00     0.060 C
HETATM   21  C14 UNL     1      -6.286   9.699   7.775  1.00  0.00     0.174 C
HETATM   22  O4  UNL     1      -6.747   8.432   7.410  1.00  0.00    -0.356 OA
HETATM   23  C15 UNL     1      -7.339   7.788   8.499  1.00  0.00     0.157 C
HETATM   24  C16 UNL     1      -8.749   8.305   8.746  1.00  0.00     0.078 C
HETATM   25  C17 UNL     1      -7.436   6.322   8.156  1.00  0.00     0.078 C
HETATM   26  O5  UNL     1      -6.559   7.912   9.644  1.00  0.00    -0.349 OA
ENDBRANCH  18  19
ENDBRANCH  15  18
BRANCH   1  27
HETATM   27  C2  UNL     1      -1.136   3.301  11.373  1.00  0.00     0.034 C
HETATM   28  C1  UNL     1      -1.580   2.013  10.771  1.00  0.00     0.008 C
ENDBRANCH   1  27
TORSDOF 3
ENDMDL