MODEL 1
REMARK VINA RESULT: -6.776213953      0.000      0.000
REMARK  7 active torsions:
REMARK  status: ('A' for Active; 'I' for Inactive)
REMARK    1  A    between atoms: C2_2  and  N1_5
REMARK    2  A    between atoms: C5_7  and  O1_8
REMARK    3  A    between atoms: C5_7  and  C17_25
REMARK    4  A    between atoms: O1_8  and  C6_9
REMARK    5  A    between atoms: C6_9  and  C7_10
REMARK       I    between atoms: C7_10  and  N2_12
REMARK       I    between atoms: N3_15  and  C10_16
REMARK    6  A    between atoms: C10_16  and  O4_18
REMARK    7  A    between atoms: O4_18  and  C11_19
ROOT
HETATM    1  C7  UNL     1      -1.298   3.009  11.376  1.00  0.00     0.244 C
HETATM    2  O2  UNL     1      -0.350   2.973  12.202  1.00  0.00    -0.271 OA
HETATM    3  N2  UNL     1      -1.937   4.243  11.026  1.00  0.00    -0.347 N
HETATM    4  C8  UNL     1      -1.464   5.459  11.647  1.00  0.00     0.146 C
HETATM    5  C9  UNL     1      -2.653   6.045  12.408  1.00  0.00     0.148 C
HETATM    6  N3  UNL     1      -3.703   6.270  11.447  1.00  0.00    -0.325 N
HETATM    7  C10 UNL     1      -4.229   7.571  11.301  1.00  0.00     0.363 C
HETATM    8  O3  UNL     1      -3.795   8.526  11.993  1.00  0.00    -0.238 OA
HETATM    9  C15 UNL     1      -4.162   5.133  10.679  1.00  0.00     0.148 C
HETATM   10  C16 UNL     1      -3.025   4.336  10.085  1.00  0.00     0.146 C
ENDROOT
BRANCH   1  11
HETATM   11  C6  UNL     1      -1.768   1.759  10.751  1.00  0.00     0.280 C
BRANCH  11  12
HETATM   12  O1  UNL     1      -2.195   0.879  11.768  1.00  0.00    -0.328 OA
BRANCH  12  13
HETATM   13  C5  UNL     1      -3.378   1.188  12.469  1.00  0.00     0.147 C
HETATM   14  N1  UNL     1      -3.253   2.069  13.379  1.00  0.00    -0.364 N
ATOM     15  H1  UNL     1      -2.317   2.455  13.503  1.00  0.00     0.162 HD
BRANCH  14  16
HETATM   16  C2  UNL     1      -4.265   2.584  14.249  1.00  0.00     0.021 C
HETATM   17  C1  UNL     1      -5.404   3.157  13.423  1.00  0.00     0.037 C
HETATM   18  C3  UNL     1      -4.744   1.526  15.207  1.00  0.00     0.037 C
HETATM   19  C4  UNL     1      -3.663   3.700  15.121  1.00  0.00     0.037 C
ENDBRANCH  14  16
BRANCH  13  20
HETATM   20  C17 UNL     1      -4.651   0.504  12.127  1.00  0.00     0.285 A
HETATM   21  C18 UNL     1      -4.709  -0.594  11.152  1.00  0.00     0.274 A
HETATM   22  N4  UNL     1      -5.104   0.716  10.739  1.00  0.00    -0.059 N
ATOM     23  H42 UNL     1      -5.942   1.110  10.312  1.00  0.00     0.278 HD
ATOM     24  H41 UNL     1      -4.825   1.342   9.984  1.00  0.00     0.278 HD
ENDBRANCH  13  20
ENDBRANCH  12  13
ENDBRANCH  11  12
ENDBRANCH   1  11
BRANCH   7  25
HETATM   25  O4  UNL     1      -5.241   7.886  10.401  1.00  0.00    -0.294 OA
BRANCH  25  26
HETATM   26  C11 UNL     1      -6.514   8.332  10.814  1.00  0.00     0.061 C
HETATM   27  C12 UNL     1      -6.567   9.809  11.047  1.00  0.00     0.046 C
HETATM   28  C13 UNL     1      -7.021   7.605  12.030  1.00  0.00     0.046 C
HETATM   29  C14 UNL     1      -7.476   8.012   9.674  1.00  0.00     0.046 C
ENDBRANCH  25  26
ENDBRANCH   7  25
TORSDOF 7
ENDMDL