MODEL 4
REMARK VINA RESULT: -6.467635706      1.995      4.603
REMARK  6 active torsions:
REMARK  status: ('A' for Active; 'I' for Inactive)
REMARK    1  A    between atoms: O1_2  and  C2_3
REMARK    2  A    between atoms: C2_3  and  C3_5
REMARK    3  A    between atoms: C6_8  and  C18_22
REMARK    4  A    between atoms: C8_10  and  O3_11
REMARK    5  A    between atoms: C20_25  and  C21_26
REMARK    6  A    between atoms: C21_26  and  O5_27
ROOT
HETATM    1  C3  UNL     1      -3.968   4.955  12.899  1.00  0.00     0.098 C
HETATM    2  C4  UNL     1      -4.353   3.846  12.017  1.00  0.00     0.043 C
HETATM    3  C5  UNL     1      -3.881   3.736  10.623  1.00  0.00     0.015 C
HETATM    4  C6  UNL     1      -2.414   3.235  10.733  1.00  0.00     0.023 C
HETATM    5  C7  UNL     1      -2.735   2.062  11.580  1.00  0.00     0.045 C
HETATM    6  C8  UNL     1      -3.992   2.421  12.409  1.00  0.00     0.066 C
HETATM    7  C10 UNL     1      -3.919   2.142  13.836  1.00  0.00     0.046 C
HETATM    8  C11 UNL     1      -3.970   3.294  14.793  1.00  0.00     0.033 A
HETATM    9  C12 UNL     1      -2.788   4.204  14.722  1.00  0.00     0.140 A
HETATM   10  O4  UNL     1      -2.122   4.179  13.537  1.00  0.00    -0.372 OA
HETATM   11  C13 UNL     1      -2.580   5.285  12.845  1.00  0.00     0.087 C
HETATM   12  C14 UNL     1      -1.650   6.198  13.383  1.00  0.00     0.075 C
HETATM   13  C15 UNL     1      -0.464   5.822  12.455  1.00  0.00     0.226 C
HETATM   14  C16 UNL     1      -1.141   6.498  11.246  1.00  0.00     0.045 C
HETATM   15  C17 UNL     1      -2.311   5.493  11.397  1.00  0.00     0.057 C
HETATM   16  C18 UNL     1      -1.508   4.285  10.982  1.00  0.00     0.234 C
HETATM   17  N1  UNL     1      -0.485   4.459  11.937  1.00  0.00     0.094 N
HETATM   18  C19 UNL     1       0.846   4.158  11.508  1.00  0.00     0.310 C
HETATM   19  C20 UNL     1      -4.242   4.609  14.315  1.00  0.00     0.034 A
ENDROOT
BRANCH   1  20
HETATM   20  C2  UNL     1      -4.802   6.148  12.556  1.00  0.00     0.271 C
HETATM   21  O2  UNL     1      -4.336   7.314  12.514  1.00  0.00    -0.264 OA
BRANCH  20  22
HETATM   22  O1  UNL     1      -6.166   6.049  12.258  1.00  0.00    -0.326 OA
HETATM   23  C1  UNL     1      -7.045   7.157  12.427  1.00  0.00     0.213 C
ENDBRANCH  20  22
ENDBRANCH   1  20
BRANCH  19  24
HETATM   24  C21 UNL     1      -4.913   5.597  15.258  1.00  0.00     0.178 C
BRANCH  24  25
HETATM   25  O5  UNL     1      -6.268   5.235  15.381  1.00  0.00    -0.400 OA
ATOM     26  H5  UNL     1      -6.567   5.495  16.245  1.00  0.00     0.209 HD
ENDBRANCH  24  25
ENDBRANCH  19  24
BRANCH   6  27
HETATM   27  O3  UNL     1      -5.065   1.694  11.887  1.00  0.00    -0.385 OA
HETATM   28  C9  UNL     1      -4.855   0.427  11.487  1.00  0.00     0.202 C
ENDBRANCH   6  27
TORSDOF 6
ENDMDL