MODEL 3
REMARK VINA RESULT: -7.254274978      0.987      1.409
REMARK  5 active torsions:
REMARK  status: ('A' for Active; 'I' for Inactive)
REMARK    1  A    between atoms: C2_2  and  O1_5
REMARK    2  A    between atoms: O1_5  and  C5_6
REMARK       I    between atoms: C5_6  and  N1_8
REMARK    3  A    between atoms: C8_11  and  C9_12
REMARK       I    between atoms: C9_12  and  N2_14
REMARK    4  A    between atoms: N2_14  and  C10_16
REMARK    5  A    between atoms: C10_16  and  C11_17
ROOT
HETATM    1  C5  UNL     1      -4.299   1.067  14.093  1.00  0.00     0.364 C
HETATM    2  O2  UNL     1      -4.660  -0.001  14.701  1.00  0.00    -0.238 OA
HETATM    3  N1  UNL     1      -4.789   2.336  14.478  1.00  0.00    -0.315 N
HETATM    4  C6  UNL     1      -5.717   2.558  15.559  1.00  0.00     0.130 C
HETATM    5  C7  UNL     1      -6.403   3.865  15.227  1.00  0.00     0.036 C
HETATM    6  C8  UNL     1      -5.271   4.645  14.581  1.00  0.00     0.110 C
HETATM    7  C15 UNL     1      -4.443   3.595  13.861  1.00  0.00     0.073 C
HETATM    8  C16 UNL     1      -2.980   3.847  14.040  1.00  0.00     0.060 C
HETATM    9  C17 UNL     1      -2.434   3.952  12.666  1.00  0.00     0.170 C
HETATM   10  O6  UNL     1      -3.454   3.947  11.764  1.00  0.00    -0.389 OA
HETATM   11  C18 UNL     1      -4.619   3.589  12.382  1.00  0.00     0.199 C
ENDROOT
BRANCH   6  12
HETATM   12  C9  UNL     1      -5.841   5.649  13.654  1.00  0.00     0.224 C
HETATM   13  O3  UNL     1      -7.069   5.626  13.438  1.00  0.00    -0.273 OA
HETATM   14  N2  UNL     1      -5.018   6.613  13.025  1.00  0.00    -0.358 N
ATOM     15  H2  UNL     1      -4.021   6.583  13.238  1.00  0.00     0.162 HD
BRANCH  14  16
HETATM   16  C10 UNL     1      -5.459   7.624  12.118  1.00  0.00     0.156 C
BRANCH  16  17
HETATM   17  C11 UNL     1      -4.736   7.527  10.806  1.00  0.00     0.163 C
HETATM   18  C12 UNL     1      -5.663   6.989   9.732  1.00  0.00     0.201 C
HETATM   19  O4  UNL     1      -5.463   5.632   9.507  1.00  0.00    -0.386 OA
HETATM   20  C13 UNL     1      -4.158   5.351   9.120  1.00  0.00     0.193 C
HETATM   21  C14 UNL     1      -3.180   6.374   9.672  1.00  0.00     0.194 C
HETATM   22  O5  UNL     1      -3.600   6.731  10.938  1.00  0.00    -0.380 OA
ENDBRANCH  16  17
ENDBRANCH  14  16
ENDBRANCH   6  12
BRANCH   1  23
HETATM   23  O1  UNL     1      -3.408   0.842  13.058  1.00  0.00    -0.294 OA
BRANCH  23  24
HETATM   24  C2  UNL     1      -3.698   0.181  11.867  1.00  0.00     0.061 C
HETATM   25  C1  UNL     1      -3.561  -1.321  11.964  1.00  0.00     0.046 C
HETATM   26  C3  UNL     1      -5.042   0.499  11.291  1.00  0.00     0.046 C
HETATM   27  C4  UNL     1      -2.648   0.633  10.843  1.00  0.00     0.046 C
ENDBRANCH  23  24
ENDBRANCH   1  23
TORSDOF 5
ENDMDL