MODEL 4
REMARK VINA RESULT: -7.248834030      0.673      1.063
REMARK  6 active torsions:
REMARK  status: ('A' for Active; 'I' for Inactive)
REMARK    1  A    between atoms: C1_2  and  O2_3
REMARK       I    between atoms: C1_2  and  N1_11
REMARK    2  A    between atoms: O2_3  and  C2_4
REMARK    3  A    between atoms: C2_4  and  C3_5
REMARK    4  A    between atoms: N2_17  and  C11_18
REMARK    5  A    between atoms: C11_18  and  O6_19
REMARK    6  A    between atoms: C11_18  and  C12_21
ROOT
HETATM    1  O1  UNL     1      -0.373   7.099  12.833  1.00  0.00    -0.238 OA
HETATM    2  C1  UNL     1      -1.589   7.354  13.079  1.00  0.00     0.362 C
HETATM    3  N1  UNL     1      -2.599   6.369  12.895  1.00  0.00    -0.323 N
HETATM    4  C8  UNL     1      -4.010   6.588  13.154  1.00  0.00     0.163 C
HETATM    5  C9  UNL     1      -4.646   5.601  12.233  1.00  0.00     0.176 C
HETATM    6  O4  UNL     1      -4.266   5.757  10.872  1.00  0.00    -0.295 OA
HETATM    7  C10 UNL     1      -4.288   4.463  10.366  1.00  0.00     0.365 C
HETATM    8  O5  UNL     1      -4.402   4.054   9.177  1.00  0.00    -0.238 OA
HETATM    9  N2  UNL     1      -4.153   3.525  11.473  1.00  0.00    -0.292 N
HETATM   10  C18 UNL     1      -3.787   4.350  12.568  1.00  0.00     0.141 C
HETATM   11  C19 UNL     1      -2.429   5.005  12.431  1.00  0.00     0.156 C
ENDROOT
BRANCH   2  12
HETATM   12  O2  UNL     1      -1.865   8.635  13.530  1.00  0.00    -0.304 OA
BRANCH  12  13
HETATM   13  C2  UNL     1      -1.516   9.060  14.852  1.00  0.00     0.185 C
BRANCH  13  14
HETATM   14  C3  UNL     1      -0.402  10.082  14.700  1.00  0.00     0.014 C
HETATM   15  C4  UNL     1      -0.775  11.032  13.561  1.00  0.00     0.033 C
HETATM   16  C5  UNL     1      -1.568  12.162  14.222  1.00  0.00     0.168 C
HETATM   17  O3  UNL     1      -0.646  13.014  14.802  1.00  0.00    -0.391 OA
HETATM   18  C6  UNL     1       0.246  12.329  15.590  1.00  0.00     0.168 C
HETATM   19  C7  UNL     1      -0.227  10.923  15.936  1.00  0.00     0.033 C
ENDBRANCH  13  14
ENDBRANCH  12  13
ENDBRANCH   2  12
BRANCH   9  20
HETATM   20  C11 UNL     1      -4.386   2.113  11.409  1.00  0.00     0.229 C
BRANCH  20  21
HETATM   21  O6  UNL     1      -5.761   1.809  11.495  1.00  0.00    -0.376 OA
ATOM     22  H6  UNL     1      -5.943   1.207  12.207  1.00  0.00     0.212 HD
ENDBRANCH  20  21
BRANCH  20  23
HETATM   23  C12 UNL     1      -3.617   1.243  12.328  1.00  0.00     0.035 C
HETATM   24  C13 UNL     1      -2.475   0.567  11.535  1.00  0.00     0.014 C
HETATM   25  C14 UNL     1      -3.177  -0.514  10.782  1.00  0.00    -0.010 A
HETATM   26  C15 UNL     1      -3.211  -1.864  11.430  1.00  0.00     0.010 A
HETATM   27  C16 UNL     1      -4.357  -0.939  11.618  1.00  0.00    -0.010 A
HETATM   28  C17 UNL     1      -4.347   0.019  12.798  1.00  0.00     0.014 C
ENDBRANCH  20  23
ENDBRANCH   9  20
TORSDOF 6
ENDMDL