MODEL 4
REMARK VINA RESULT: -8.251524730      2.404      4.740
REMARK  3 active torsions:
REMARK  status: ('A' for Active; 'I' for Inactive)
REMARK       I    between atoms: C1_2  and  N1_4
REMARK    1  A    between atoms: N1_4  and  C2_5
REMARK       I    between atoms: N1_4  and  C7_11
REMARK    2  A    between atoms: C2_5  and  C3_6
REMARK    3  A    between atoms: C7_11  and  C8_13
ROOT
HETATM    1  C8  UNL     1      -3.728   3.031  12.348  1.00  0.00     0.183 C
HETATM    2  C9  UNL     1      -3.079   1.669  12.249  1.00  0.00     0.204 C
HETATM    3  O5  UNL     1      -1.933   1.362  12.092  1.00  0.00    -0.291 OA
HETATM    4  C10 UNL     1      -4.301   0.785  12.406  1.00  0.00     0.234 C
HETATM    5  O6  UNL     1      -5.087   0.973  11.299  1.00  0.00    -0.346 OA
HETATM    6  C11 UNL     1      -4.732  -0.083  10.439  1.00  0.00     0.198 C
HETATM    7  C12 UNL     1      -4.615  -1.216  11.461  1.00  0.00     0.198 C
HETATM    8  O7  UNL     1      -3.957  -0.542  12.496  1.00  0.00    -0.346 OA
HETATM    9  C13 UNL     1      -4.885   1.351  13.665  1.00  0.00     0.086 C
HETATM   10  C14 UNL     1      -4.144   0.743  14.830  1.00  0.00     0.015 C
HETATM   11  C15 UNL     1      -4.605   1.566  16.041  1.00  0.00     0.027 C
HETATM   12  C16 UNL     1      -4.106   2.954  15.805  1.00  0.00     0.168 C
HETATM   13  O8  UNL     1      -4.387   3.533  14.631  1.00  0.00    -0.384 OA
HETATM   14  C17 UNL     1      -4.668   2.829  13.522  1.00  0.00     0.151 C
ENDROOT
BRANCH   1  15
HETATM   15  C7  UNL     1      -2.798   4.134  12.461  1.00  0.00     0.242 C
HETATM   16  N1  UNL     1      -3.006   5.456  12.061  1.00  0.00    -0.259 N
HETATM   17  C1  UNL     1      -1.935   6.404  12.252  1.00  0.00     0.292 C
HETATM   18  O1  UNL     1      -2.081   7.611  11.921  1.00  0.00    -0.629 OA
HETATM   19  O2  UNL     1      -0.757   5.972  12.795  1.00  0.00    -0.629 OA
HETATM   20  O4  UNL     1      -1.649   3.852  12.985  1.00  0.00    -0.272 OA
BRANCH  16  21
HETATM   21  C2  UNL     1      -4.251   5.901  11.487  1.00  0.00     0.170 C
BRANCH  21  22
HETATM   22  C3  UNL     1      -5.235   6.491  12.433  1.00  0.00     0.140 C
HETATM   23  C4  UNL     1      -5.949   7.645  11.698  1.00  0.00     0.036 C
HETATM   24  C5  UNL     1      -7.350   7.615  12.268  1.00  0.00     0.029 C
HETATM   25  C6  UNL     1      -7.198   6.539  13.348  1.00  0.00     0.168 C
HETATM   26  O3  UNL     1      -6.321   5.657  12.690  1.00  0.00    -0.384 OA
ENDBRANCH  21  22
ENDBRANCH  16  21
ENDBRANCH   1  15
TORSDOF 3
ENDMDL