MODEL 2
REMARK VINA RESULT: -6.717286331      1.919      3.072
REMARK  7 active torsions:
REMARK  status: ('A' for Active; 'I' for Inactive)
REMARK    1  A    between atoms: C8_9  and  O2_10
REMARK    2  A    between atoms: C11_13  and  O3_14
REMARK    3  A    between atoms: O3_14  and  C12_15
REMARK    4  A    between atoms: C12_15  and  C13_17
REMARK    5  A    between atoms: C13_17  and  N1_18
REMARK    6  A    between atoms: C17_22  and  C18_23
REMARK    7  A    between atoms: C19_27  and  C20_28
ROOT
HETATM    1  C12 UNL     1      -5.433   4.955  12.921  1.00  0.00     0.300 C
HETATM    2  O4  UNL     1      -6.521   5.261  13.500  1.00  0.00    -0.262 OA
ENDROOT
BRANCH   1   3
HETATM    3  O3  UNL     1      -5.331   5.296  11.585  1.00  0.00    -0.309 OA
BRANCH   3   4
HETATM    4  C11 UNL     1      -4.907   6.590  11.196  1.00  0.00     0.167 C
HETATM    5  C2  UNL     1      -6.179   7.387  11.028  1.00  0.00    -0.059 C
HETATM    6  C1  UNL     1      -6.675   8.302  11.854  1.00  0.00     0.017 C
HETATM    7  C3  UNL     1      -6.739   6.911   9.734  1.00  0.00     0.041 C
HETATM    8  C4  UNL     1      -5.535   6.573   8.924  1.00  0.00     0.008 C
HETATM    9  C5  UNL     1      -5.209   5.125   8.741  1.00  0.00     0.051 C
HETATM   10  C10 UNL     1      -4.323   6.674   9.837  1.00  0.00     0.061 C
HETATM   11  C6  UNL     1      -5.052   4.791   7.275  1.00  0.00     0.175 C
HETATM   12  C8  UNL     1      -3.794   5.436   9.190  1.00  0.00     0.094 C
HETATM   13  O1  UNL     1      -3.702   4.863   6.974  1.00  0.00    -0.388 OA
HETATM   14  C7  UNL     1      -3.137   5.755   7.880  1.00  0.00     0.206 C
BRANCH  12  15
HETATM   15  O2  UNL     1      -3.211   4.503   9.995  1.00  0.00    -0.382 OA
HETATM   16  C9  UNL     1      -1.838   4.467   9.801  1.00  0.00     0.202 C
ENDBRANCH  12  15
ENDBRANCH   3   4
ENDBRANCH   1   3
BRANCH   1  17
HETATM   17  C13 UNL     1      -4.328   4.261  13.661  1.00  0.00     0.262 A
HETATM   18  C17 UNL     1      -3.806   3.035  12.999  1.00  0.00     0.082 A
HETATM   19  C20 UNL     1      -4.667   2.951  14.213  1.00  0.00     0.041 A
HETATM   20  C21 UNL     1      -4.175   2.426  15.509  1.00  0.00     0.021 C
BRANCH  17  21
HETATM   21  N1  UNL     1      -3.371   5.146  14.227  1.00  0.00     0.109 N
HETATM   22  C14 UNL     1      -2.410   5.749  13.365  1.00  0.00     0.276 C
HETATM   23  C15 UNL     1      -2.418   6.961  14.310  1.00  0.00     0.060 C
HETATM   24  C16 UNL     1      -3.863   6.494  14.526  1.00  0.00     0.276 C
ENDBRANCH  17  21
BRANCH  18  25
HETATM   25  C18 UNL     1      -4.826   2.152  12.275  1.00  0.00     0.225 A
HETATM   26  N2  UNL     1      -4.834   2.179  10.845  1.00  0.00    -0.061 N
HETATM   27  C19 UNL     1      -3.777   1.463  11.610  1.00  0.00     0.229 A
ATOM     28  H22 UNL     1      -5.499   1.938  10.110  1.00  0.00     0.278 HD
ATOM     29  H21 UNL     1      -4.858   2.900  10.124  1.00  0.00     0.278 HD
ENDBRANCH  18  25
ENDBRANCH   1  17
TORSDOF 7
ENDMDL