MODEL 5
REMARK VINA RESULT: -6.716761094      1.585      1.974
REMARK  6 active torsions:
REMARK  status: ('A' for Active; 'I' for Inactive)
REMARK    1  A    between atoms: O1_2  and  C2_3
REMARK    2  A    between atoms: C8_10  and  N1_12
REMARK    3  A    between atoms: N1_12  and  C11_14
REMARK    4  A    between atoms: C11_14  and  O3_16
REMARK    5  A    between atoms: C17_23  and  C18_24
REMARK    6  A    between atoms: C18_24  and  O5_25
ROOT
HETATM    1  C2  UNL     1      -3.628   1.911  12.069  1.00  0.00     0.190 C
HETATM    2  C3  UNL     1      -2.281   2.553  12.266  1.00  0.00     0.072 C
HETATM    3  C4  UNL     1      -2.498   3.831  13.075  1.00  0.00     0.018 C
HETATM    4  C5  UNL     1      -3.916   4.210  12.667  1.00  0.00     0.001 C
HETATM    5  C6  UNL     1      -3.836   4.665  11.251  1.00  0.00     0.093 C
HETATM    6  C7  UNL     1      -3.137   6.012  11.367  1.00  0.00     0.155 C
HETATM    7  O2  UNL     1      -2.007   6.211  11.032  1.00  0.00    -0.295 OA
HETATM    8  C8  UNL     1      -3.954   7.112  11.939  1.00  0.00     0.091 C
HETATM    9  C9  UNL     1      -3.124   8.314  12.330  1.00  0.00     0.047 C
HETATM   10  C13 UNL     1      -4.682   6.615  13.152  1.00  0.00     0.044 C
HETATM   11  C14 UNL     1      -4.576   5.188  13.526  1.00  0.00    -0.004 C
HETATM   12  C15 UNL     1      -6.015   4.749  13.876  1.00  0.00     0.011 C
HETATM   13  C16 UNL     1      -4.513   2.815  12.869  1.00  0.00     0.193 C
HETATM   14  O4  UNL     1      -4.366   2.598  14.244  1.00  0.00    -0.370 OA
HETATM   15  C17 UNL     1      -4.052   1.353  14.646  1.00  0.00     0.169 C
HETATM   16  C19 UNL     1      -4.402   0.357  13.589  1.00  0.00     0.205 C
HETATM   17  O6  UNL     1      -3.544   0.602  12.524  1.00  0.00    -0.350 OA
ENDROOT
BRANCH   1  18
HETATM   18  O1  UNL     1      -3.996   1.829  10.740  1.00  0.00    -0.358 OA
HETATM   19  C1  UNL     1      -4.070   0.585  10.198  1.00  0.00     0.205 C
ENDBRANCH   1  18
BRANCH   8  20
HETATM   20  N1  UNL     1      -4.861   7.558  10.879  1.00  0.00    -0.354 N
HETATM   21  C10 UNL     1      -4.298   8.325   9.742  1.00  0.00     0.152 C
BRANCH  20  22
HETATM   22  C11 UNL     1      -6.246   7.328  10.824  1.00  0.00     0.110 C
HETATM   23  C12 UNL     1      -7.330   7.947  11.601  1.00  0.00     0.097 C
BRANCH  22  24
HETATM   24  O3  UNL     1      -6.616   6.427   9.951  1.00  0.00    -0.350 OA
ATOM     25  H3  UNL     1      -5.906   6.051   9.444  1.00  0.00     0.219 HD
ENDBRANCH  22  24
ENDBRANCH  20  22
ENDBRANCH   8  20
BRANCH  15  26
HETATM   26  C18 UNL     1      -4.814   1.076  15.951  1.00  0.00     0.198 C
BRANCH  26  27
HETATM   27  O5  UNL     1      -5.190  -0.251  16.025  1.00  0.00    -0.398 OA
ATOM     28  H5  UNL     1      -5.978  -0.405  15.518  1.00  0.00     0.209 HD
ENDBRANCH  26  27
ENDBRANCH  15  26
TORSDOF 6
ENDMDL