MODEL 2
REMARK VINA RESULT: -7.328350965      3.850      6.857
REMARK  5 active torsions:
REMARK  status: ('A' for Active; 'I' for Inactive)
REMARK    1  A    between atoms: C2_2  and  C5_5
REMARK       I    between atoms: C5_5  and  N1_7
REMARK    2  A    between atoms: N1_7  and  C6_9
REMARK    3  A    between atoms: C7_12  and  C8_13
REMARK    4  A    between atoms: C8_13  and  N3_14
REMARK    5  A    between atoms: C15_23  and  N5_24
ROOT
HETATM    1  C6  UNL     1      -0.697   4.524  11.906  1.00  0.00     0.701 A
HETATM    2  N2  UNL     1      -1.487   5.426  11.293  1.00  0.00    -0.174 N
ATOM      3  H2  UNL     1      -1.124   6.366  11.130  1.00  0.00     0.186 HD
HETATM    4  C7  UNL     1      -2.725   5.136  10.891  1.00  0.00     0.152 A
HETATM    5  N4  UNL     1      -3.168   3.861  11.132  1.00  0.00    -0.174 N
ATOM      6  H4  UNL     1      -4.109   3.600  10.840  1.00  0.00     0.186 HD
HETATM    7  C15 UNL     1      -2.393   2.946  11.743  1.00  0.00     0.696 A
HETATM    8  N6  UNL     1      -1.127   3.274  12.144  1.00  0.00    -0.022 N
ATOM      9  H6  UNL     1      -0.529   2.592  12.608  1.00  0.00     0.203 HD
ENDROOT
BRANCH   1  10
HETATM   10  N1  UNL     1       0.478   4.864  12.274  1.00  0.00    -0.158 N
HETATM   11  C5  UNL     1       1.631   4.696  11.493  1.00  0.00     0.243 C
HETATM   12  O1  UNL     1       1.643   3.897  10.538  1.00  0.00    -0.272 OA
ATOM     13  H1  UNL     1       0.585   5.287  13.196  1.00  0.00     0.187 HD
BRANCH  11  14
HETATM   14  C2  UNL     1       2.830   5.491  11.828  1.00  0.00     0.031 C
HETATM   15  C1  UNL     1       3.578   5.006  13.033  1.00  0.00     0.025 C
HETATM   16  C3  UNL     1       2.379   6.916  12.109  1.00  0.00     0.025 C
HETATM   17  C4  UNL     1       3.753   5.442  10.629  1.00  0.00     0.025 C
ENDBRANCH  11  14
ENDBRANCH   1  10
BRANCH   4  18
HETATM   18  C8  UNL     1      -3.675   6.033  10.224  1.00  0.00     0.139 C
BRANCH  18  19
HETATM   19  N3  UNL     1      -4.874   6.334  10.874  1.00  0.00    -0.367 N
HETATM   20  C9  UNL     1      -4.878   6.825  12.191  1.00  0.00     0.063 C
HETATM   21  C10 UNL     1      -6.277   6.643  12.766  1.00  0.00     0.044 C
HETATM   22  C11 UNL     1      -7.283   7.615  12.290  1.00  0.00     0.005 C
HETATM   23  C12 UNL     1      -6.783   8.776  11.500  1.00  0.00     0.002 C
HETATM   24  C13 UNL     1      -6.087   8.392  10.226  1.00  0.00     0.020 C
HETATM   25  C14 UNL     1      -5.912   6.898  10.090  1.00  0.00     0.127 C
ENDBRANCH  18  19
ENDBRANCH   4  18
BRANCH   7  26
HETATM   26  N5  UNL     1      -2.945   1.670  11.956  1.00  0.00    -0.213 N
HETATM   27  C16 UNL     1      -2.284   0.496  11.449  1.00  0.00     0.167 C
HETATM   28  C17 UNL     1      -3.388  -0.459  10.983  1.00  0.00     0.188 C
HETATM   29  O2  UNL     1      -4.247  -0.803  11.999  1.00  0.00    -0.388 OA
HETATM   30  C18 UNL     1      -4.268   0.049  13.072  1.00  0.00     0.188 C
HETATM   31  C19 UNL     1      -4.170   1.519  12.687  1.00  0.00     0.167 C
ENDBRANCH   7  26
TORSDOF 5
ENDMDL