MODEL 2
REMARK VINA RESULT: -7.146110686      1.356      1.534
REMARK  3 active torsions:
REMARK  status: ('A' for Active; 'I' for Inactive)
REMARK    1  A    between atoms: O1_2  and  C2_3
REMARK    2  A    between atoms: C18_24  and  O5_25
REMARK    3  A    between atoms: O5_25  and  C19_26
ROOT
HETATM    1  C2  UNL     1      -4.549   3.300  14.357  1.00  0.00     0.114 C
HETATM    2  C3  UNL     1      -5.786   3.910  13.693  1.00  0.00     0.051 C
HETATM    3  C4  UNL     1      -5.262   5.121  12.888  1.00  0.00     0.025 C
HETATM    4  C5  UNL     1      -5.137   6.106  14.026  1.00  0.00     0.008 C
HETATM    5  C6  UNL     1      -4.373   5.568  15.202  1.00  0.00     0.008 C
HETATM    6  C7  UNL     1      -3.640   4.301  15.001  1.00  0.00     0.025 C
HETATM    7  C8  UNL     1      -2.245   4.431  14.490  1.00  0.00     0.010 C
HETATM    8  C9  UNL     1      -1.846   5.583  13.677  1.00  0.00     0.033 C
HETATM    9  C10 UNL     1      -1.927   5.617  12.224  1.00  0.00     0.134 C
HETATM   10  O2  UNL     1      -1.590   4.583  11.439  1.00  0.00    -0.370 OA
HETATM   11  C11 UNL     1      -2.314   4.719  10.223  1.00  0.00     0.221 C
HETATM   12  C12 UNL     1      -1.713   5.866   9.507  1.00  0.00     0.247 C
HETATM   13  O3  UNL     1      -0.699   5.607   8.836  1.00  0.00    -0.271 OA
HETATM   14  N1  UNL     1      -2.175   7.196   9.516  1.00  0.00    -0.359 N
ATOM     15  H1  UNL     1      -1.542   7.888   9.114  1.00  0.00     0.162 HD
HETATM   16  C13 UNL     1      -3.410   7.701  10.011  1.00  0.00     0.123 C
HETATM   17  C14 UNL     1      -3.767   7.259  11.399  1.00  0.00     0.035 C
HETATM   18  C15 UNL     1      -3.342   5.937  11.821  1.00  0.00     0.029 A
HETATM   19  C16 UNL     1      -3.741   5.050  10.691  1.00  0.00     0.074 A
HETATM   20  C17 UNL     1      -4.128   4.737  12.120  1.00  0.00     0.086 A
HETATM   21  O4  UNL     1      -3.504   3.567  12.345  1.00  0.00    -0.345 OA
HETATM   22  C18 UNL     1      -3.888   2.620  13.144  1.00  0.00     0.305 C
ENDROOT
BRANCH  22  23
HETATM   23  O5  UNL     1      -4.900   1.734  12.636  1.00  0.00    -0.287 OA
BRANCH  23  24
HETATM   24  C19 UNL     1      -4.630   0.465  12.172  1.00  0.00     0.257 C
HETATM   25  C20 UNL     1      -4.521   0.123  10.744  1.00  0.00     0.126 C
HETATM   26  O6  UNL     1      -4.472  -0.443  13.038  1.00  0.00    -0.266 OA
ENDBRANCH  23  24
ENDBRANCH  22  23
BRANCH   1  27
HETATM   27  O1  UNL     1      -4.955   2.254  15.138  1.00  0.00    -0.380 OA
HETATM   28  C1  UNL     1      -4.103   1.765  16.062  1.00  0.00     0.202 C
ENDBRANCH   1  27
TORSDOF 3
ENDMDL