MODEL 4
REMARK VINA RESULT: -7.082739421      3.345      4.954
REMARK  11 active torsions:
REMARK  status: ('A' for Active; 'I' for Inactive)
REMARK    1  A    between atoms: N1_2  and  O1_3
REMARK    2  A    between atoms: N1_2  and  C2_5
REMARK    3  A    between atoms: C2_5  and  O2_6
REMARK    4  A    between atoms: C2_5  and  C3_8
REMARK    5  A    between atoms: N2_11  and  C6_12
REMARK    6  A    between atoms: C6_12  and  O3_13
REMARK    7  A    between atoms: C6_12  and  C7_15
REMARK    8  A    between atoms: C7_15  and  N3_16
REMARK    9  A    between atoms: C7_15  and  C8_20
REMARK   10  A    between atoms: C8_20  and  N4_21
REMARK   11  A    between atoms: C8_20  and  C9_25
ROOT
HETATM    1  C7  UNL     1      -3.651   3.890  10.457  1.00  0.00     0.263 C
ENDROOT
BRANCH   1   2
HETATM    2  C6  UNL     1      -3.916   4.638  11.732  1.00  0.00     0.272 C
BRANCH   2   3
HETATM    3  N2  UNL     1      -4.158   3.816  12.894  1.00  0.00    -0.272 N
HETATM    4  C5  UNL     1      -4.249   4.311  14.133  1.00  0.00     0.114 A
HETATM    5  C4  UNL     1      -4.468   3.545  15.275  1.00  0.00     0.036 A
HETATM    6  C3  UNL     1      -4.600   2.202  15.151  1.00  0.00     0.035 A
HETATM    7  C18 UNL     1      -4.496   1.718  13.821  1.00  0.00     0.123 A
HETATM    8  N6  UNL     1      -4.286   2.514  12.775  1.00  0.00    -0.307 N
ATOM      9  H6  UNL     1      -4.222   2.097  11.847  1.00  0.00     0.186 HD
BRANCH   6  10
HETATM   10  C2  UNL     1      -4.826   1.259  16.217  1.00  0.00     0.173 C
BRANCH  10  11
HETATM   11  N1  UNL     1      -5.996   0.881  16.825  1.00  0.00    -0.243 N
HETATM   12  C1  UNL     1      -7.187   1.618  17.044  1.00  0.00     0.188 C
BRANCH  11  13
HETATM   13  O1  UNL     1      -6.039  -0.433  17.310  1.00  0.00    -0.286 OA
ATOM     14  H1  UNL     1      -5.523  -1.050  16.805  1.00  0.00     0.244 HD
ENDBRANCH  11  13
ENDBRANCH  10  11
BRANCH  10  15
HETATM   15  O2  UNL     1      -3.752   0.654  16.699  1.00  0.00    -0.344 OA
ATOM     16  H2  UNL     1      -3.175   0.303  16.030  1.00  0.00     0.219 HD
ENDBRANCH  10  15
ENDBRANCH   6  10
ENDBRANCH   2   3
BRANCH   2  17
HETATM   17  O3  UNL     1      -5.054   5.433  11.553  1.00  0.00    -0.373 OA
ATOM     18  H3  UNL     1      -4.824   6.105  10.922  1.00  0.00     0.212 HD
ENDBRANCH   2  17
ENDBRANCH   1   2
BRANCH   1  19
HETATM   19  N3  UNL     1      -4.406   4.578   9.411  1.00  0.00    -0.069 N
ATOM     20  H33 UNL     1      -4.654   3.974   8.628  1.00  0.00     0.275 HD
ATOM     21  H32 UNL     1      -5.357   4.819   9.690  1.00  0.00     0.275 HD
ATOM     22  H31 UNL     1      -3.847   5.387   9.138  1.00  0.00     0.275 HD
ENDBRANCH   1  19
BRANCH   1  23
HETATM   23  C8  UNL     1      -2.209   3.762  10.189  1.00  0.00     0.223 C
BRANCH  23  24
HETATM   24  N4  UNL     1      -1.818   2.371  10.150  1.00  0.00    -0.072 N
ATOM     25  H43 UNL     1      -1.284   2.152   9.309  1.00  0.00     0.274 HD
ATOM     26  H42 UNL     1      -1.103   2.160  10.845  1.00  0.00     0.274 HD
ATOM     27  H41 UNL     1      -2.633   1.766  10.249  1.00  0.00     0.274 HD
ENDBRANCH  23  24
BRANCH  23  28
HETATM   28  C9  UNL     1      -1.285   4.565  11.058  1.00  0.00     0.044 C
HETATM   29  C10 UNL     1      -0.355   3.650  11.806  1.00  0.00     0.010 C
HETATM   30  C11 UNL     1       1.059   4.121  11.558  1.00  0.00     0.028 C
HETATM   31  C12 UNL     1       1.144   5.552  12.037  1.00  0.00     0.237 C
HETATM   32  N5  UNL     1       0.169   6.416  11.408  1.00  0.00    -0.063 N
HETATM   33  C13 UNL     1      -0.702   7.069  12.349  1.00  0.00     0.263 C
HETATM   34  C16 UNL     1       0.933   7.458  10.715  1.00  0.00     0.263 C
HETATM   35  C17 UNL     1      -0.597   5.704  10.393  1.00  0.00     0.244 C
HETATM   36  C14 UNL     1      -0.057   8.181  13.111  1.00  0.00     0.195 C
HETATM   37  O4  UNL     1       0.605   9.107  12.332  1.00  0.00    -0.388 OA
HETATM   38  C15 UNL     1       1.620   8.393  11.654  1.00  0.00     0.195 C
ENDBRANCH  23  28
ENDBRANCH   1  23
TORSDOF 11
ENDMDL