MODEL 1
REMARK VINA RESULT: -6.976021193      0.000      0.000
REMARK  8 active torsions:
REMARK  status: ('A' for Active; 'I' for Inactive)
REMARK    1  A    between atoms: C4_7  and  C5_8
REMARK       I    between atoms: C5_8  and  N2_10
REMARK    2  A    between atoms: N2_10  and  C6_12
REMARK    3  A    between atoms: C6_12  and  C8_14
REMARK    4  A    between atoms: C8_14  and  N3_15
REMARK    5  A    between atoms: N4_18  and  C11_19
REMARK    6  A    between atoms: C11_19  and  C12_20
REMARK    7  A    between atoms: C13_21  and  C14_22
REMARK    8  A    between atoms: C14_22  and  N5_23
ROOT
HETATM    1  N3  UNL     1      -2.824   4.993  10.672  1.00  0.00     0.093 N
HETATM    2  C9  UNL     1      -2.319   5.600  11.879  1.00  0.00     0.302 C
HETATM    3  C10 UNL     1      -3.185   5.089  13.008  1.00  0.00     0.303 C
HETATM    4  N4  UNL     1      -4.523   5.487  12.777  1.00  0.00     0.102 N
HETATM    5  C19 UNL     1      -4.874   6.029  11.524  1.00  0.00     0.303 C
HETATM    6  C20 UNL     1      -4.148   5.443  10.345  1.00  0.00     0.302 C
ENDROOT
BRANCH   1   7
HETATM    7  C8  UNL     1      -1.907   4.957   9.592  1.00  0.00     0.297 C
BRANCH   7   8
HETATM    8  C6  UNL     1      -1.082   3.686   9.707  1.00  0.00     0.108 C
HETATM    9  C7  UNL     1      -0.368   3.481   8.366  1.00  0.00     0.034 C
BRANCH   8  10
HETATM   10  N2  UNL     1      -1.908   2.538   9.997  1.00  0.00    -0.353 N
HETATM   11  C5  UNL     1      -1.833   1.864  11.246  1.00  0.00     0.253 C
HETATM   12  O1  UNL     1      -1.023   2.293  12.105  1.00  0.00    -0.271 OA
ATOM     13  H2  UNL     1      -2.561   2.203   9.289  1.00  0.00     0.163 HD
BRANCH  11  14
HETATM   14  C4  UNL     1      -2.718   0.688  11.464  1.00  0.00     0.307 C
HETATM   15  C2  UNL     1      -4.109   1.038  11.837  1.00  0.00    -0.025 C
HETATM   16  C1  UNL     1      -4.715   1.928  12.589  1.00  0.00     0.018 C
HETATM   17  C3  UNL     1      -4.512  -0.087  10.963  1.00  0.00     0.269 C
HETATM   18  N1  UNL     1      -3.267   0.145  10.212  1.00  0.00    -0.055 N
ATOM     19  H12 UNL     1      -2.800  -0.608   9.707  1.00  0.00     0.278 HD
ATOM     20  H11 UNL     1      -3.259   0.687   9.348  1.00  0.00     0.278 HD
ENDBRANCH  11  14
ENDBRANCH   8  10
ENDBRANCH   7   8
ENDBRANCH   1   7
BRANCH   4  21
HETATM   21  C11 UNL     1      -4.953   6.352  13.853  1.00  0.00     0.365 C
BRANCH  21  22
HETATM   22  C12 UNL     1      -5.600   5.485  14.867  1.00  0.00    -0.074 C
HETATM   23  C13 UNL     1      -6.119   4.760  15.680  1.00  0.00    -0.074 C
BRANCH  23  24
HETATM   24  C14 UNL     1      -6.741   3.852  16.662  1.00  0.00     0.366 C
BRANCH  24  25
HETATM   25  N5  UNL     1      -6.363   2.475  16.426  1.00  0.00     0.103 N
HETATM   26  C15 UNL     1      -4.948   2.288  16.347  1.00  0.00     0.299 C
HETATM   27  C16 UNL     1      -4.527   0.865  16.199  1.00  0.00     0.198 C
HETATM   28  O2  UNL     1      -5.561  -0.050  16.406  1.00  0.00    -0.388 OA
HETATM   29  C17 UNL     1      -6.317   0.277  17.526  1.00  0.00     0.198 C
HETATM   30  C18 UNL     1      -7.078   1.547  17.237  1.00  0.00     0.299 C
ENDBRANCH  24  25
ENDBRANCH  23  24
ENDBRANCH  21  22
ENDBRANCH   4  21
TORSDOF 8
ENDMDL