MODEL 4
REMARK VINA RESULT: -7.105243363      1.288      1.517
REMARK  7 active torsions:
REMARK  status: ('A' for Active; 'I' for Inactive)
REMARK       I    between atoms: N2_5  and  C4_6
REMARK    1  A    between atoms: C4_6  and  C5_8
REMARK    2  A    between atoms: C5_8  and  N3_9
REMARK    3  A    between atoms: C5_8  and  C12_23
REMARK    4  A    between atoms: N3_9  and  C6_12
REMARK    5  A    between atoms: C6_12  and  C7_13
REMARK       I    between atoms: C7_13  and  N4_15
REMARK    6  A    between atoms: N4_15  and  C8_17
REMARK    7  A    between atoms: C8_17  and  C9_18
ROOT
HETATM    1  C5  UNL     1      -4.794   2.882  14.758  1.00  0.00     0.281 C
ENDROOT
BRANCH   1   2
HETATM    2  C4  UNL     1      -3.861   4.008  14.792  1.00  0.00     0.251 C
HETATM    3  N2  UNL     1      -4.078   5.305  14.262  1.00  0.00    -0.347 N
HETATM    4  C3  UNL     1      -3.063   6.364  14.412  1.00  0.00     0.156 C
HETATM    5  C17 UNL     1      -5.239   5.730  13.523  1.00  0.00     0.156 C
HETATM    6  C2  UNL     1      -3.341   7.527  13.519  1.00  0.00     0.291 C
HETATM    7  N1  UNL     1      -3.618   7.043  12.190  1.00  0.00     0.087 N
HETATM    8  C1  UNL     1      -3.670   8.128  11.229  1.00  0.00     0.310 C
HETATM    9  C18 UNL     1      -4.820   6.233  12.137  1.00  0.00     0.291 C
HETATM   10  O1  UNL     1      -2.714   3.840  15.353  1.00  0.00    -0.271 OA
ENDBRANCH   1   2
BRANCH   1  11
HETATM   11  N3  UNL     1      -4.215   1.720  14.072  1.00  0.00    -0.054 N
ATOM     12  H32 UNL     1      -3.208   1.666  14.229  1.00  0.00     0.278 HD
ATOM     13  H31 UNL     1      -4.498   0.850  14.523  1.00  0.00     0.278 HD
BRANCH  11  14
HETATM   14  C6  UNL     1      -4.519   1.699  12.675  1.00  0.00     0.335 C
BRANCH  14  15
HETATM   15  C7  UNL     1      -3.288   2.000  11.913  1.00  0.00     0.243 C
HETATM   16  O2  UNL     1      -2.362   1.175  11.975  1.00  0.00    -0.272 OA
HETATM   17  N4  UNL     1      -3.194   3.179  11.155  1.00  0.00    -0.355 N
ATOM     18  H4  UNL     1      -4.011   3.788  11.189  1.00  0.00     0.162 HD
BRANCH  17  19
HETATM   19  C8  UNL     1      -2.121   3.643  10.348  1.00  0.00     0.183 C
BRANCH  19  20
HETATM   20  C9  UNL     1      -2.512   4.611   9.272  1.00  0.00     0.277 C
HETATM   21  O3  UNL     1      -3.901   4.575   9.111  1.00  0.00    -0.358 OA
HETATM   22  C10 UNL     1      -4.119   5.232   7.908  1.00  0.00     0.197 C
HETATM   23  C11 UNL     1      -2.805   5.171   7.189  1.00  0.00     0.197 C
HETATM   24  O4  UNL     1      -2.034   4.354   8.029  1.00  0.00    -0.358 OA
ENDBRANCH  19  20
ENDBRANCH  17  19
ENDBRANCH  14  15
ENDBRANCH  11  14
ENDBRANCH   1  11
BRANCH   1  25
HETATM   25  C12 UNL     1      -5.253   2.352  16.064  1.00  0.00     0.026 C
HETATM   26  C13 UNL     1      -6.654   2.640  16.470  1.00  0.00     0.007 C
HETATM   27  C14 UNL     1      -7.124   1.462  17.336  1.00  0.00     0.000 C
HETATM   28  C15 UNL     1      -5.820   0.733  17.624  1.00  0.00     0.000 C
HETATM   29  C16 UNL     1      -5.161   0.855  16.235  1.00  0.00     0.007 C
ENDBRANCH   1  25
TORSDOF 7
ENDMDL