MODEL 2
REMARK VINA RESULT: -7.501885513      2.688      6.216
REMARK  7 active torsions:
REMARK  status: ('A' for Active; 'I' for Inactive)
REMARK    1  A    between atoms: N1_2  and  C2_3
REMARK    2  A    between atoms: N1_2  and  C7_11
REMARK    3  A    between atoms: C9_13  and  N3_14
REMARK       I    between atoms: N3_14  and  C10_16
REMARK    4  A    between atoms: C10_16  and  C11_18
REMARK    5  A    between atoms: C11_18  and  N4_19
REMARK    6  A    between atoms: N4_19  and  N5_20
REMARK    7  A    between atoms: C13_25  and  C14_26
ROOT
HETATM    1  C7  UNL     1      -3.500   3.092  11.334  1.00  0.00     0.116 C
HETATM    2  C8  UNL     1      -4.819   2.782  11.956  1.00  0.00     0.055 C
HETATM    3  C9  UNL     1      -4.501   1.559  12.793  1.00  0.00     0.118 C
HETATM    4  C12 UNL     1      -3.143   1.051  12.327  1.00  0.00     0.182 C
HETATM    5  O3  UNL     1      -3.061  -0.308  12.226  1.00  0.00    -0.342 OA
HETATM    6  C13 UNL     1      -3.797  -0.876  11.213  1.00  0.00     0.359 C
HETATM    7  O5  UNL     1      -3.473  -0.222  10.023  1.00  0.00    -0.200 OA
HETATM    8  O6  UNL     1      -3.878   1.017  10.144  1.00  0.00    -0.228 OA
HETATM    9  C15 UNL     1      -2.989   1.747  10.959  1.00  0.00     0.214 C
ENDROOT
BRANCH   1  10
HETATM   10  N1  UNL     1      -3.449   4.109  10.382  1.00  0.00    -0.397 N
HETATM   11  C1  UNL     1      -2.311   4.168   9.550  1.00  0.00     0.144 C
BRANCH  10  12
HETATM   12  C2  UNL     1      -4.371   5.140  10.319  1.00  0.00     0.171 C
HETATM   13  C3  UNL     1      -4.488   5.693   8.889  1.00  0.00     0.036 C
HETATM   14  C4  UNL     1      -5.663   6.639   8.781  1.00  0.00     0.022 C
HETATM   15  C5  UNL     1      -6.032   7.287  10.087  1.00  0.00     0.122 C
HETATM   16  N2  UNL     1      -4.802   7.515  10.831  1.00  0.00    -0.359 N
HETATM   17  C6  UNL     1      -4.045   6.347  11.156  1.00  0.00     0.240 C
ATOM     18  H2  UNL     1      -4.498   8.450  11.102  1.00  0.00     0.162 HD
HETATM   19  O1  UNL     1      -3.188   6.355  12.066  1.00  0.00    -0.271 OA
ENDBRANCH  10  12
ENDBRANCH   1  10
BRANCH   3  20
HETATM   20  N3  UNL     1      -4.393   1.949  14.183  1.00  0.00    -0.348 N
HETATM   21  C10 UNL     1      -4.634   0.994  15.224  1.00  0.00     0.272 C
HETATM   22  O2  UNL     1      -4.935  -0.173  14.921  1.00  0.00    -0.266 OA
ATOM     23  H3  UNL     1      -4.144   2.909  14.424  1.00  0.00     0.163 HD
BRANCH  21  24
HETATM   24  C11 UNL     1      -4.530   1.371  16.621  1.00  0.00     0.282 C
BRANCH  24  25
HETATM   25  N4  UNL     1      -5.187   0.720  17.466  1.00  0.00    -0.340 NA
BRANCH  25  26
HETATM   26  N5  UNL     1      -5.950  -0.047  18.047  1.00  0.00    -0.281 N
ATOM     27  H52 UNL     1      -5.825  -0.776  17.345  1.00  0.00     0.191 HD
ATOM     28  H51 UNL     1      -6.602  -0.492  18.693  1.00  0.00     0.191 HD
ENDBRANCH  25  26
ENDBRANCH  24  25
ENDBRANCH  21  24
ENDBRANCH   3  20
BRANCH   6  29
HETATM   29  C14 UNL     1      -3.560  -2.320  11.138  1.00  0.00     0.294 C
HETATM   30  O4  UNL     1      -2.534  -2.830  11.541  1.00  0.00    -0.302 OA
ENDBRANCH   6  29
TORSDOF 7
ENDMDL