MODEL 4
REMARK VINA RESULT: -6.933232467      2.932      4.779
REMARK  8 active torsions:
REMARK  status: ('A' for Active; 'I' for Inactive)
REMARK       I    between atoms: N1_7  and  C7_8
REMARK    1  A    between atoms: C7_8  and  C8_10
REMARK    2  A    between atoms: C8_10  and  O2_11
REMARK    3  A    between atoms: C8_10  and  C9_13
REMARK    4  A    between atoms: C9_13  and  N2_14
REMARK    5  A    between atoms: N2_14  and  C10_16
REMARK    6  A    between atoms: C10_16  and  C11_17
REMARK    7  A    between atoms: C10_16  and  C16_24
REMARK    8  A    between atoms: C11_17  and  N3_18
ROOT
HETATM    1  C1  UNL     1      -3.676   7.877  16.427  1.00  0.00     0.014 C
HETATM    2  C2  UNL     1      -3.336   8.182  15.310  1.00  0.00    -0.092 C
HETATM    3  C3  UNL     1      -2.934   8.528  13.944  1.00  0.00     0.166 C
HETATM    4  C4  UNL     1      -1.869   9.617  14.113  1.00  0.00     0.040 C
HETATM    5  C5  UNL     1      -0.840   9.203  13.088  1.00  0.00     0.023 C
HETATM    6  C6  UNL     1      -0.845   7.676  13.300  1.00  0.00     0.127 C
HETATM    7  N1  UNL     1      -2.289   7.426  13.275  1.00  0.00    -0.335 N
HETATM    8  C7  UNL     1      -2.905   6.314  12.690  1.00  0.00     0.251 C
HETATM    9  O1  UNL     1      -2.131   5.438  12.157  1.00  0.00    -0.270 OA
ENDROOT
BRANCH   8  10
HETATM   10  C8  UNL     1      -4.337   6.009  12.601  1.00  0.00     0.227 C
BRANCH  10  11
HETATM   11  O2  UNL     1      -4.693   5.445  11.389  1.00  0.00    -0.385 OA
ATOM     12  H2  UNL     1      -5.226   6.023  10.855  1.00  0.00     0.210 HD
ENDBRANCH  10  11
BRANCH  10  13
HETATM   13  C9  UNL     1      -4.684   5.128  13.788  1.00  0.00     0.156 C
BRANCH  13  14
HETATM   14  N2  UNL     1      -3.789   4.018  13.937  1.00  0.00    -0.406 N
ATOM     15  H2  UNL     1      -2.843   4.136  14.299  1.00  0.00     0.154 HD
BRANCH  14  16
HETATM   16  C10 UNL     1      -4.284   2.756  13.557  1.00  0.00     0.173 C
BRANCH  16  17
HETATM   17  C11 UNL     1      -4.539   1.743  14.602  1.00  0.00     0.304 C
BRANCH  17  18
HETATM   18  N3  UNL     1      -5.050   2.164  15.855  1.00  0.00     0.095 N
HETATM   19  C12 UNL     1      -4.938   1.113  16.872  1.00  0.00     0.298 C
HETATM   20  C13 UNL     1      -6.269   0.583  17.319  1.00  0.00     0.198 C
HETATM   21  O3  UNL     1      -7.064   1.571  17.898  1.00  0.00    -0.388 OA
HETATM   22  C14 UNL     1      -6.748   2.833  17.388  1.00  0.00     0.198 C
HETATM   23  C15 UNL     1      -6.399   2.635  15.910  1.00  0.00     0.298 C
ENDBRANCH  17  18
ENDBRANCH  16  17
BRANCH  16  24
HETATM   24  C16 UNL     1      -3.349   2.222  12.489  1.00  0.00     0.099 C
HETATM   25  N4  UNL     1      -2.141   2.596  12.276  1.00  0.00    -0.377 N
HETATM   26  C17 UNL     1      -1.508   1.909  11.198  1.00  0.00     0.141 C
ATOM     27  H4  UNL     1      -1.676   3.317  12.827  1.00  0.00     0.160 HD
HETATM   28  C18 UNL     1      -2.399   0.686  11.030  1.00  0.00     0.143 C
HETATM   29  N5  UNL     1      -3.649   1.214  11.535  1.00  0.00    -0.372 N
HETATM   30  C19 UNL     1      -4.940   0.755  11.097  1.00  0.00     0.150 C
ENDBRANCH  16  24
ENDBRANCH  14  16
ENDBRANCH  13  14
ENDBRANCH  10  13
ENDBRANCH   8  10
TORSDOF 8
ENDMDL