MODEL 3
REMARK VINA RESULT: -8.255826723      1.629      4.327
REMARK  8 active torsions:
REMARK  status: ('A' for Active; 'I' for Inactive)
REMARK    1  A    between atoms: C1_2  and  C2_3
REMARK    2  A    between atoms: C1_2  and  O4_11
REMARK    3  A    between atoms: C2_3  and  C3_4
REMARK    4  A    between atoms: C3_4  and  C4_5
REMARK       I    between atoms: C4_5  and  N1_7
REMARK    5  A    between atoms: O4_11  and  C5_12
REMARK    6  A    between atoms: C7_15  and  C8_16
REMARK    7  A    between atoms: C8_16  and  N4_17
REMARK    8  A    between atoms: C9_18  and  O6_19
ROOT
HETATM    1  C5  UNL     1      -3.844   6.819  13.870  1.00  0.00     0.186 C
HETATM    2  C6  UNL     1      -3.118   8.089  14.344  1.00  0.00     0.203 C
HETATM    3  O5  UNL     1      -2.172   7.202  14.918  1.00  0.00    -0.379 OA
HETATM    4  C7  UNL     1      -2.428   6.380  13.796  1.00  0.00     0.179 C
ENDROOT
BRANCH   4   5
HETATM    5  C8  UNL     1      -2.196   4.916  14.046  1.00  0.00     0.276 C
BRANCH   5   6
HETATM    6  N4  UNL     1      -2.268   4.162  12.782  1.00  0.00    -0.025 N
HETATM    7  C9  UNL     1      -3.427   3.403  12.623  1.00  0.00     0.328 C
HETATM    8  C10 UNL     1      -3.918   3.129  11.259  1.00  0.00     0.043 C
HETATM    9  C11 UNL     1      -3.267   1.961  10.582  1.00  0.00     0.013 C
HETATM   10  C15 UNL     1      -3.770   4.371  10.410  1.00  0.00     0.015 C
HETATM   11  C12 UNL     1      -1.833   2.284  10.291  1.00  0.00    -0.012 C
HETATM   12  C13 UNL     1      -1.656   3.566   9.518  1.00  0.00     0.011 C
HETATM   13  C18 UNL     1      -0.993   2.344  11.515  1.00  0.00     0.040 C
HETATM   14  C14 UNL     1      -2.288   4.670  10.365  1.00  0.00     0.020 C
HETATM   15  C16 UNL     1      -1.645   4.770  11.696  1.00  0.00     0.229 A
HETATM   16  C17 UNL     1      -1.042   3.615  12.278  1.00  0.00     0.226 A
BRANCH   7  17
HETATM   17  O6  UNL     1      -3.268   2.158  13.279  1.00  0.00    -0.369 OA
ATOM     18  H6  UNL     1      -3.463   2.260  14.203  1.00  0.00     0.212 HD
ENDBRANCH   7  17
ENDBRANCH   5   6
ENDBRANCH   4   5
BRANCH   1  19
HETATM   19  O4  UNL     1      -4.609   6.336  14.950  1.00  0.00    -0.311 OA
BRANCH  19  20
HETATM   20  C1  UNL     1      -5.722   5.530  14.680  1.00  0.00     0.259 C
HETATM   21  O1  UNL     1      -6.206   5.608  13.540  1.00  0.00    -0.265 OA
BRANCH  20  22
HETATM   22  C2  UNL     1      -6.313   4.623  15.674  1.00  0.00     0.120 C
BRANCH  22  23
HETATM   23  C3  UNL     1      -6.278   3.175  15.284  1.00  0.00     0.116 C
BRANCH  23  24
HETATM   24  C4  UNL     1      -5.303   2.357  16.016  1.00  0.00     0.256 C
HETATM   25  O2  UNL     1      -4.101   2.702  16.044  1.00  0.00    -0.270 OA
HETATM   26  N1  UNL     1      -5.699   1.183  16.693  1.00  0.00    -0.114 N
HETATM   27  N2  UNL     1      -6.861   0.538  16.867  1.00  0.00     0.069 NA
HETATM   28  N3  UNL     1      -5.168   0.218  17.428  1.00  0.00     0.069 NA
HETATM   29  O3  UNL     1      -6.309  -0.378  17.575  1.00  0.00    -0.124 OA
ENDBRANCH  23  24
ENDBRANCH  22  23
ENDBRANCH  20  22
ENDBRANCH  19  20
ENDBRANCH   1  19
TORSDOF 8
ENDMDL