MODEL 2
REMARK VINA RESULT: -6.951703414      1.067      1.170
REMARK  6 active torsions:
REMARK  status: ('A' for Active; 'I' for Inactive)
REMARK       I    between atoms: C1_2  and  N1_3
REMARK    1  A    between atoms: C1_2  and  C15_25
REMARK    2  A    between atoms: N1_3  and  C2_5
REMARK    3  A    between atoms: C2_5  and  C3_6
REMARK    4  A    between atoms: C3_6  and  C4_7
REMARK    5  A    between atoms: C4_7  and  C5_8
REMARK       I    between atoms: C5_8  and  N2_10
REMARK    6  A    between atoms: C9_14  and  C10_15
REMARK       I    between atoms: C10_15  and  N3_17
ROOT
HETATM    1  C5  UNL     1      -5.749   5.443  14.434  1.00  0.00     0.220 C
HETATM    2  O2  UNL     1      -6.375   5.033  13.424  1.00  0.00    -0.273 OA
HETATM    3  N2  UNL     1      -4.652   6.350  14.286  1.00  0.00    -0.339 N
HETATM    4  C6  UNL     1      -3.827   6.916  15.332  1.00  0.00     0.127 C
HETATM    5  C7  UNL     1      -2.531   7.164  14.592  1.00  0.00     0.022 C
HETATM    6  C8  UNL     1      -3.080   7.812  13.312  1.00  0.00     0.037 C
HETATM    7  C9  UNL     1      -4.213   6.839  12.983  1.00  0.00     0.179 C
ENDROOT
BRANCH   1   8
HETATM    8  C4  UNL     1      -6.182   4.963  15.760  1.00  0.00     0.104 C
BRANCH   8   9
HETATM    9  C3  UNL     1      -5.970   3.495  15.995  1.00  0.00     0.029 C
BRANCH   9  10
HETATM   10  C2  UNL     1      -4.564   3.026  15.820  1.00  0.00     0.123 C
BRANCH  10  11
HETATM   11  N1  UNL     1      -4.306   2.688  14.445  1.00  0.00    -0.357 N
HETATM   12  C1  UNL     1      -4.457   1.371  13.970  1.00  0.00     0.273 C
HETATM   13  O1  UNL     1      -4.815   0.412  14.709  1.00  0.00    -0.268 OA
ATOM     14  H1  UNL     1      -4.007   3.419  13.799  1.00  0.00     0.162 HD
BRANCH  12  15
HETATM   15  C15 UNL     1      -4.176   1.119  12.521  1.00  0.00     0.353 C
HETATM   16  O4  UNL     1      -4.440  -0.187  12.167  1.00  0.00    -0.351 OA
HETATM   17  C16 UNL     1      -3.813  -0.293  10.913  1.00  0.00     0.197 C
HETATM   18  C17 UNL     1      -2.847   0.890  10.849  1.00  0.00     0.197 C
HETATM   19  O5  UNL     1      -2.823   1.255  12.216  1.00  0.00    -0.351 OA
ENDBRANCH  12  15
ENDBRANCH  10  11
ENDBRANCH   9  10
ENDBRANCH   8   9
ENDBRANCH   1   8
BRANCH   7  20
HETATM   20  C10 UNL     1      -3.711   5.693  12.216  1.00  0.00     0.242 C
HETATM   21  O3  UNL     1      -2.969   4.825  12.742  1.00  0.00    -0.271 OA
HETATM   22  N3  UNL     1      -4.060   5.547  10.857  1.00  0.00    -0.347 N
HETATM   23  C11 UNL     1      -4.918   6.461  10.132  1.00  0.00     0.153 C
HETATM   24  C14 UNL     1      -3.547   4.407  10.084  1.00  0.00     0.153 C
HETATM   25  C12 UNL     1      -4.165   6.907   8.884  1.00  0.00     0.252 C
HETATM   26  N4  UNL     1      -3.833   5.731   8.119  1.00  0.00    -0.072 N
HETATM   27  C13 UNL     1      -2.819   4.999   8.885  1.00  0.00     0.252 C
ATOM     28  H42 UNL     1      -4.646   5.163   7.884  1.00  0.00     0.277 HD
ATOM     29  H41 UNL     1      -3.542   5.941   7.165  1.00  0.00     0.277 HD
ENDBRANCH   7  20
TORSDOF 6
ENDMDL