MODEL 3
REMARK VINA RESULT: -6.033627010      2.714      5.103
REMARK  9 active torsions:
REMARK  status: ('A' for Active; 'I' for Inactive)
REMARK    1  A    between atoms: S1_2  and  O2_4
REMARK    2  A    between atoms: O2_4  and  C2_5
REMARK    3  A    between atoms: C3_6  and  N1_7
REMARK       I    between atoms: N1_7  and  C4_9
REMARK    4  A    between atoms: C4_9  and  C5_11
REMARK    5  A    between atoms: C5_11  and  N2_12
REMARK    6  A    between atoms: C9_16  and  N3_17
REMARK    7  A    between atoms: N3_17  and  N4_19
REMARK    8  A    between atoms: N4_19  and  N5_20
REMARK    9  A    between atoms: C10_23  and  O4_24
ROOT
HETATM    1  C2  UNL     1      -3.650   4.323  13.004  1.00  0.00     0.400 C
HETATM    2  C3  UNL     1      -4.882   3.503  13.321  1.00  0.00     0.172 C
HETATM    3  C9  UNL     1      -4.941   2.366  12.345  1.00  0.00     0.172 C
HETATM    4  C10 UNL     1      -4.879   2.816  10.930  1.00  0.00     0.179 C
HETATM    5  C11 UNL     1      -3.886   3.884  10.642  1.00  0.00     0.257 C
HETATM    6  C12 UNL     1      -4.338   4.727   9.451  1.00  0.00     0.040 C
HETATM    7  C13 UNL     1      -4.589   6.118   9.982  1.00  0.00     0.033 C
HETATM    8  C14 UNL     1      -4.644   5.910  11.481  1.00  0.00     0.276 C
HETATM    9  N6  UNL     1      -3.697   4.845  11.670  1.00  0.00     0.128 N
ENDROOT
BRANCH   2  10
HETATM   10  N1  UNL     1      -4.809   2.976  14.643  1.00  0.00    -0.348 N
HETATM   11  C4  UNL     1      -5.741   3.283  15.671  1.00  0.00     0.244 C
HETATM   12  O3  UNL     1      -6.709   4.077  15.417  1.00  0.00    -0.272 OA
ATOM     13  H1  UNL     1      -4.043   2.340  14.865  1.00  0.00     0.163 HD
BRANCH  11  14
HETATM   14  C5  UNL     1      -5.662   2.736  17.033  1.00  0.00     0.338 C
BRANCH  14  15
HETATM   15  N2  UNL     1      -6.060   1.353  17.105  1.00  0.00    -0.070 N
HETATM   16  C6  UNL     1      -7.465   1.258  16.774  1.00  0.00     0.272 C
HETATM   17  C7  UNL     1      -5.926   0.904  18.498  1.00  0.00     0.272 C
HETATM   18  C8  UNL     1      -5.252   0.472  16.312  1.00  0.00     0.272 C
ENDBRANCH  14  15
ENDBRANCH  11  14
ENDBRANCH   2  10
BRANCH   1  19
HETATM   19  O2  UNL     1      -2.565   3.459  13.077  1.00  0.00    -0.257 OA
BRANCH  19  20
HETATM   20  S1  UNL     1      -1.252   4.640  13.172  1.00  0.00     0.150 S
HETATM   21  C1  UNL     1      -0.351   5.199  12.498  1.00  0.00     0.160 C
HETATM   22  O1  UNL     1      -1.896   4.568  14.610  1.00  0.00    -0.229 OA
ENDBRANCH  19  20
ENDBRANCH   1  19
BRANCH   3  23
HETATM   23  N3  UNL     1      -3.966   1.323  12.655  1.00  0.00    -0.243 N
ATOM     24  H3  UNL     1      -3.084   1.573  13.103  1.00  0.00     0.197 HD
BRANCH  23  25
HETATM   25  N4  UNL     1      -4.199   0.133  12.379  1.00  0.00    -0.248 NA
BRANCH  25  26
HETATM   26  N5  UNL     1      -4.353  -1.017  11.957  1.00  0.00    -0.261 N
ATOM     27  H52 UNL     1      -5.217  -0.669  11.540  1.00  0.00     0.193 HD
ATOM     28  H51 UNL     1      -4.359  -1.997  11.672  1.00  0.00     0.193 HD
ENDBRANCH  25  26
ENDBRANCH  23  25
ENDBRANCH   3  23
BRANCH   4  29
HETATM   29  O4  UNL     1      -4.536   1.693  10.143  1.00  0.00    -0.391 OA
ATOM     30  H4  UNL     1      -4.602   1.954   9.232  1.00  0.00     0.210 HD
ENDBRANCH   4  29
TORSDOF 9
ENDMDL