MODEL 3
REMARK VINA RESULT: -7.179234801      2.669      7.435
REMARK  6 active torsions:
REMARK  status: ('A' for Active; 'I' for Inactive)
REMARK    1  A    between atoms: C2_2  and  N1_4
REMARK       I    between atoms: N1_4  and  C4_6
REMARK    2  A    between atoms: C4_6  and  C5_8
REMARK       I    between atoms: N2_12  and  C9_13
REMARK    3  A    between atoms: C9_13  and  C10_15
REMARK    4  A    between atoms: C12_18  and  C13_19
REMARK    5  A    between atoms: C13_19  and  N3_20
REMARK    6  A    between atoms: N3_20  and  C15_22
ROOT
HETATM    1  C5  UNL     1      -2.156   5.210  10.668  1.00  0.00     0.184 C
HETATM    2  C6  UNL     1      -2.646   6.642  10.601  1.00  0.00     0.105 C
HETATM    3  C7  UNL     1      -4.151   6.574  10.762  1.00  0.00     0.182 C
HETATM    4  C8  UNL     1      -4.407   5.205  11.284  1.00  0.00     0.195 C
HETATM    5  N2  UNL     1      -3.145   4.530  11.481  1.00  0.00    -0.332 N
HETATM    6  C9  UNL     1      -2.944   3.421  12.317  1.00  0.00     0.254 C
HETATM    7  O2  UNL     1      -1.788   2.886  12.434  1.00  0.00    -0.271 OA
HETATM    8  O5  UNL     1      -4.803   6.730   9.538  1.00  0.00    -0.351 OA
HETATM    9  C16 UNL     1      -5.940   7.480   9.768  1.00  0.00     0.198 C
HETATM   10  C17 UNL     1      -5.938   7.723  11.251  1.00  0.00     0.198 C
HETATM   11  O6  UNL     1      -4.582   7.594  11.578  1.00  0.00    -0.351 OA
ENDROOT
BRANCH   1  12
HETATM   12  C4  UNL     1      -2.077   4.646   9.302  1.00  0.00     0.241 C
HETATM   13  N1  UNL     1      -2.116   5.507   8.189  1.00  0.00    -0.355 N
ATOM     14  H1  UNL     1      -2.198   6.509   8.363  1.00  0.00     0.162 HD
HETATM   15  O1  UNL     1      -1.973   3.413   9.094  1.00  0.00    -0.271 OA
BRANCH  13  16
HETATM   16  C2  UNL     1      -2.047   5.065   6.817  1.00  0.00     0.076 C
HETATM   17  C1  UNL     1      -0.661   5.192   6.284  1.00  0.00     0.032 C
HETATM   18  C3  UNL     1      -3.089   5.724   5.948  1.00  0.00     0.032 C
ENDBRANCH  13  16
ENDBRANCH   1  12
BRANCH   6  19
HETATM   19  C10 UNL     1      -4.037   2.831  13.086  1.00  0.00     0.303 C
HETATM   20  C11 UNL     1      -4.135   1.313  12.911  1.00  0.00     0.213 C
HETATM   21  O3  UNL     1      -4.675   0.851  14.097  1.00  0.00    -0.355 OA
HETATM   22  C12 UNL     1      -4.838   1.942  14.944  1.00  0.00     0.340 C
HETATM   23  N4  UNL     1      -3.782   2.884  14.534  1.00  0.00    -0.032 N
ATOM     24  H42 UNL     1      -2.832   2.678  14.844  1.00  0.00     0.281 HD
ATOM     25  H41 UNL     1      -3.789   3.805  14.972  1.00  0.00     0.281 HD
BRANCH  22  26
HETATM   26  C13 UNL     1      -4.736   1.506  16.359  1.00  0.00     0.186 C
BRANCH  26  27
HETATM   27  N3  UNL     1      -5.922   1.589  17.137  1.00  0.00    -0.359 N
HETATM   28  C14 UNL     1      -6.689   2.814  17.155  1.00  0.00     0.152 C
BRANCH  27  29
HETATM   29  C15 UNL     1      -6.364   0.490  17.897  1.00  0.00     0.350 C
HETATM   30  O4  UNL     1      -6.025  -0.671  17.573  1.00  0.00    -0.284 OA
ENDBRANCH  27  29
ENDBRANCH  26  27
ENDBRANCH  22  26
ENDBRANCH   6  19
TORSDOF 6
ENDMDL