MODEL 2
REMARK VINA RESULT: -6.746560178      2.556      4.654
REMARK  10 active torsions:
REMARK  status: ('A' for Active; 'I' for Inactive)
REMARK    1  A    between atoms: C2_2  and  C3_3
REMARK    2  A    between atoms: C3_3  and  N1_4
REMARK    3  A    between atoms: N1_4  and  C4_5
REMARK    4  A    between atoms: C6_9  and  O1_10
REMARK    5  A    between atoms: N3_14  and  C9_15
REMARK    6  A    between atoms: C9_15  and  O2_16
REMARK    7  A    between atoms: C9_15  and  C10_18
REMARK    8  A    between atoms: C10_18  and  C11_19
REMARK    9  A    between atoms: C13_24  and  C14_25
REMARK   10  A    between atoms: C14_25  and  N5_26
ROOT
HETATM    1  C9  UNL     1      -4.691   2.267  12.993  1.00  0.00     0.126 C
ENDROOT
BRANCH   1   2
HETATM    2  N3  UNL     1      -3.663   2.257  12.089  1.00  0.00    -0.258 N
HETATM    3  C4  UNL     1      -3.126   1.032  11.461  1.00  0.00     0.258 C
HETATM    4  N2  UNL     1      -1.972   1.331  10.590  1.00  0.00    -0.347 N
HETATM    5  C5  UNL     1      -0.926   2.163  11.102  1.00  0.00     0.161 C
ATOM      6  H2  UNL     1      -1.921   0.952   9.644  1.00  0.00     0.163 HD
HETATM    7  C6  UNL     1      -1.469   3.491  11.596  1.00  0.00     0.185 C
HETATM    8  C7  UNL     1      -2.952   3.436  11.691  1.00  0.00     0.043 C
HETATM    9  C8  UNL     1      -3.635   4.497  11.374  1.00  0.00     0.041 C
BRANCH   3  10
HETATM   10  N1  UNL     1      -3.583  -0.055  11.566  1.00  0.00    -0.412 NA
BRANCH  10  11
HETATM   11  C3  UNL     1      -4.092  -1.300  11.678  1.00  0.00     0.248 C
BRANCH  11  12
HETATM   12  C2  UNL     1      -2.902  -2.267  11.465  1.00  0.00    -0.004 C
HETATM   13  C1  UNL     1      -3.028  -3.489  11.407  1.00  0.00     0.009 C
ENDBRANCH  11  12
ENDBRANCH  10  11
ENDBRANCH   3  10
BRANCH   7  14
HETATM   14  O1  UNL     1      -0.959   3.772  12.847  1.00  0.00    -0.388 OA
ATOM     15  H1  UNL     1      -1.036   4.701  13.027  1.00  0.00     0.210 HD
ENDBRANCH   7  14
ENDBRANCH   1   2
BRANCH   1  16
HETATM   16  O2  UNL     1      -5.880   2.193  12.407  1.00  0.00    -0.349 OA
ATOM     17  H2  UNL     1      -6.437   1.532  12.801  1.00  0.00     0.219 HD
ENDBRANCH   1  16
BRANCH   1  18
HETATM   18  C10 UNL     1      -4.841   2.335  14.423  1.00  0.00     0.091 C
BRANCH  18  19
HETATM   19  C11 UNL     1      -5.128   3.651  15.026  1.00  0.00     0.021 C
HETATM   20  C12 UNL     1      -5.881   4.636  14.162  1.00  0.00     0.238 C
HETATM   21  N4  UNL     1      -5.747   5.816  15.067  1.00  0.00    -0.066 N
HETATM   22  C13 UNL     1      -4.271   5.881  15.110  1.00  0.00     0.224 C
ATOM     23  H42 UNL     1      -6.232   6.667  14.783  1.00  0.00     0.278 HD
ATOM     24  H41 UNL     1      -6.227   5.760  15.964  1.00  0.00     0.278 HD
HETATM   25  C19 UNL     1      -3.766   4.483  15.013  1.00  0.00     0.045 C
BRANCH  22  26
HETATM   26  C14 UNL     1      -3.824   6.833  14.069  1.00  0.00     0.091 C
BRANCH  26  27
HETATM   27  N5  UNL     1      -3.351   8.096  14.454  1.00  0.00    -0.387 N
HETATM   28  C15 UNL     1      -3.107   8.247  15.862  1.00  0.00     0.148 C
HETATM   29  C16 UNL     1      -1.727   8.794  16.110  1.00  0.00     0.187 C
HETATM   30  O3  UNL     1      -1.622  10.080  15.592  1.00  0.00    -0.388 OA
HETATM   31  C17 UNL     1      -2.248  10.168  14.365  1.00  0.00     0.187 C
HETATM   32  C18 UNL     1      -2.384   8.782  13.707  1.00  0.00     0.148 C
ENDBRANCH  26  27
ENDBRANCH  22  26
ENDBRANCH  18  19
ENDBRANCH   1  18
TORSDOF 10
ENDMDL