MODEL 5
REMARK VINA RESULT: -7.658766849      3.935      7.611
REMARK  5 active torsions:
REMARK  status: ('A' for Active; 'I' for Inactive)
REMARK    1  A    between atoms: C2_2  and  O2_4
REMARK    2  A    between atoms: O2_4  and  C3_5
REMARK    3  A    between atoms: C3_5  and  C5_7
REMARK       I    between atoms: C5_7  and  N1_9
REMARK    4  A    between atoms: N1_9  and  N2_11
REMARK       I    between atoms: N2_11  and  C6_13
REMARK    5  A    between atoms: C6_13  and  C7_15
ROOT
HETATM    1  C7  UNL     1      -0.653   4.720  12.284  1.00  0.00     0.146 C
HETATM    2  C8  UNL     1      -0.453   6.040  11.546  1.00  0.00     0.013 C
HETATM    3  C9  UNL     1      -1.380   6.374  10.474  1.00  0.00     0.008 C
HETATM    4  C10 UNL     1      -2.255   5.358   9.845  1.00  0.00     0.032 C
HETATM    5  C11 UNL     1      -1.619   4.024   9.583  1.00  0.00     0.125 C
HETATM    6  C12 UNL     1      -2.211   2.893  10.386  1.00  0.00     0.037 C
HETATM    7  C13 UNL     1      -0.956   2.449  11.157  1.00  0.00     0.072 C
HETATM    8  C14 UNL     1      -0.260   3.716  11.314  1.00  0.00     0.180 C
HETATM    9  O5  UNL     1      -0.310   4.164   9.954  1.00  0.00    -0.349 OA
HETATM   10  O6  UNL     1       1.158   3.603  11.424  1.00  0.00    -0.324 OA
HETATM   11  C15 UNL     1       1.668   4.775  10.907  1.00  0.00     0.267 C
HETATM   12  O7  UNL     1       3.022   4.762  11.268  1.00  0.00    -0.361 OA
HETATM   13  C16 UNL     1       3.627   5.990  11.039  1.00  0.00     0.171 C
HETATM   14  C17 UNL     1       3.190   6.892  12.168  1.00  0.00     0.027 C
HETATM   15  C18 UNL     1       1.715   6.908  12.229  1.00  0.00     0.012 C
HETATM   16  C19 UNL     1       1.009   6.051  11.182  1.00  0.00     0.046 C
ENDROOT
BRANCH   1  17
HETATM   17  C6  UNL     1      -1.844   4.662  13.078  1.00  0.00     0.245 C
HETATM   18  N2  UNL     1      -2.007   3.784  14.158  1.00  0.00    -0.267 N
ATOM     19  H2  UNL     1      -1.224   3.166  14.370  1.00  0.00     0.190 HD
HETATM   20  O4  UNL     1      -2.803   5.415  12.825  1.00  0.00    -0.271 OA
BRANCH  18  21
HETATM   21  N1  UNL     1      -3.125   3.672  14.965  1.00  0.00    -0.265 N
HETATM   22  C5  UNL     1      -4.054   2.635  15.021  1.00  0.00     0.265 C
HETATM   23  O3  UNL     1      -3.915   1.645  14.264  1.00  0.00    -0.269 OA
ATOM     24  H1  UNL     1      -3.291   4.450  15.603  1.00  0.00     0.190 HD
BRANCH  22  25
HETATM   25  C3  UNL     1      -5.218   2.618  15.931  1.00  0.00     0.221 C
HETATM   26  C4  UNL     1      -6.247   3.572  15.307  1.00  0.00     0.050 C
BRANCH  25  27
HETATM   27  O2  UNL     1      -5.833   1.356  16.005  1.00  0.00    -0.307 OA
BRANCH  27  28
HETATM   28  C2  UNL     1      -6.095   0.801  17.235  1.00  0.00     0.255 C
HETATM   29  C1  UNL     1      -6.359   1.661  18.429  1.00  0.00     0.126 C
HETATM   30  O1  UNL     1      -6.127  -0.444  17.430  1.00  0.00    -0.266 OA
ENDBRANCH  27  28
ENDBRANCH  25  27
ENDBRANCH  22  25
ENDBRANCH  18  21
ENDBRANCH   1  17
TORSDOF 5
ENDMDL