MODEL 4
REMARK VINA RESULT: -7.515275978      2.116      6.210
REMARK  6 active torsions:
REMARK  status: ('A' for Active; 'I' for Inactive)
REMARK    1  A    between atoms: C2_2  and  C4_4
REMARK    2  A    between atoms: C15_16  and  O2_17
REMARK    3  A    between atoms: C18_22  and  O4_23
REMARK    4  A    between atoms: C19_25  and  C20_26
REMARK    5  A    between atoms: C20_26  and  O5_27
REMARK    6  A    between atoms: O5_27  and  C21_28
ROOT
HETATM    1  C4  UNL     1      -2.714   6.926  14.721  1.00  0.00    -0.069 C
HETATM    2  C5  UNL     1      -2.090   5.657  14.170  1.00  0.00     0.048 C
HETATM    3  C6  UNL     1      -3.315   4.832  13.870  1.00  0.00     0.005 C
HETATM    4  C7  UNL     1      -4.413   5.522  14.523  1.00  0.00     0.023 C
HETATM    5  C8  UNL     1      -4.086   6.996  14.158  1.00  0.00     0.025 C
HETATM    6  C9  UNL     1      -4.423   7.299  12.799  1.00  0.00     0.055 C
HETATM    7  C10 UNL     1      -4.933   6.132  11.930  1.00  0.00     0.132 C
HETATM    8  C11 UNL     1      -5.720   6.633  10.733  1.00  0.00     0.067 C
HETATM    9  C12 UNL     1      -5.435   8.017  10.304  1.00  0.00     0.162 A
HETATM   10  O1  UNL     1      -4.288   8.148   9.524  1.00  0.00    -0.367 OA
HETATM   11  C13 UNL     1      -4.439   8.802  10.850  1.00  0.00     0.110 A
HETATM   12  C14 UNL     1      -4.490  10.310  10.751  1.00  0.00     0.051 C
HETATM   13  C15 UNL     1      -3.564   8.170  11.944  1.00  0.00     0.162 C
HETATM   14  O3  UNL     1      -3.970   5.251  11.573  1.00  0.00    -0.371 OA
HETATM   15  C16 UNL     1      -3.401   4.443  12.461  1.00  0.00     0.092 C
HETATM   16  C17 UNL     1      -2.011   4.012  11.944  1.00  0.00     0.050 C
HETATM   17  C18 UNL     1      -4.076   3.170  12.917  1.00  0.00     0.160 C
HETATM   18  C19 UNL     1      -3.271   3.367  14.224  1.00  0.00     0.053 C
ENDROOT
BRANCH  18  19
HETATM   19  C20 UNL     1      -4.111   2.961  15.385  1.00  0.00     0.186 C
BRANCH  19  20
HETATM   20  O5  UNL     1      -3.837   1.683  15.885  1.00  0.00    -0.321 OA
BRANCH  20  21
HETATM   21  C21 UNL     1      -4.817   0.777  16.177  1.00  0.00     0.254 C
HETATM   22  C22 UNL     1      -5.771   1.049  17.279  1.00  0.00     0.126 C
HETATM   23  O6  UNL     1      -4.918  -0.279  15.525  1.00  0.00    -0.266 OA
ENDBRANCH  20  21
ENDBRANCH  19  20
ENDBRANCH  18  19
BRANCH  17  24
HETATM   24  O4  UNL     1      -5.428   3.178  13.090  1.00  0.00    -0.392 OA
ATOM     25  H4  UNL     1      -5.848   2.389  13.412  1.00  0.00     0.210 HD
ENDBRANCH  17  24
BRANCH   1  26
HETATM   26  C2  UNL     1      -1.889   8.081  14.865  1.00  0.00    -0.069 C
HETATM   27  C1  UNL     1      -2.123   8.976  15.792  1.00  0.00     0.018 C
HETATM   28  C3  UNL     1      -0.734   8.301  13.965  1.00  0.00     0.047 C
ENDBRANCH   1  26
BRANCH  13  29
HETATM   29  O2  UNL     1      -2.559   7.535  11.262  1.00  0.00    -0.392 OA
ATOM     30  H2  UNL     1      -1.815   8.076  11.022  1.00  0.00     0.210 HD
ENDBRANCH  13  29
TORSDOF 6
ENDMDL