MODEL 2
REMARK VINA RESULT: -7.620952939      2.135      2.436
REMARK  9 active torsions:
REMARK  status: ('A' for Active; 'I' for Inactive)
REMARK    1  A    between atoms: C3_3  and  O1_4
REMARK    2  A    between atoms: C4_6  and  C5_7
REMARK    3  A    between atoms: C5_7  and  O3_9
REMARK    4  A    between atoms: O3_9  and  C6_10
REMARK    5  A    between atoms: C7_11  and  N1_12
REMARK    6  A    between atoms: N1_12  and  N2_14
REMARK    7  A    between atoms: N2_14  and  N3_15
REMARK    8  A    between atoms: C10_20  and  O4_21
REMARK    9  A    between atoms: C18_31  and  O6_32
ROOT
HETATM    1  C1  UNL     1      -7.052   3.579  17.133  1.00  0.00     0.105 C
HETATM    2  C2  UNL     1      -6.659   2.435  16.944  1.00  0.00    -0.124 C
HETATM    3  C3  UNL     1      -6.227   1.098  16.740  1.00  0.00     0.112 C
HETATM    4  C4  UNL     1      -5.082   0.854  16.175  1.00  0.00     0.127 C
ENDROOT
BRANCH   3   5
HETATM    5  O1  UNL     1      -7.034   0.057  17.145  1.00  0.00    -0.353 OA
ATOM      6  H1  UNL     1      -7.897  -0.041  16.760  1.00  0.00     0.218 HD
ENDBRANCH   3   5
BRANCH   4   7
HETATM    7  C5  UNL     1      -4.137   1.848  15.702  1.00  0.00     0.286 C
HETATM    8  O2  UNL     1      -3.054   2.039  16.318  1.00  0.00    -0.260 OA
BRANCH   7   9
HETATM    9  O3  UNL     1      -4.318   2.643  14.587  1.00  0.00    -0.305 OA
BRANCH   9  10
HETATM   10  C6  UNL     1      -3.381   3.662  14.203  1.00  0.00     0.220 C
HETATM   11  C7  UNL     1      -2.837   3.266  12.851  1.00  0.00     0.150 C
HETATM   12  C8  UNL     1      -3.605   4.068  11.831  1.00  0.00     0.049 C
HETATM   13  C9  UNL     1      -3.979   5.297  12.590  1.00  0.00     0.054 C
HETATM   14  C10 UNL     1      -4.931   6.231  11.951  1.00  0.00     0.141 C
HETATM   15  C18 UNL     1      -4.066   4.996  14.035  1.00  0.00     0.202 C
HETATM   16  C19 UNL     1      -2.991   6.426  12.585  1.00  0.00     0.046 C
HETATM   17  C11 UNL     1      -3.801   7.166  11.591  1.00  0.00    -0.009 C
HETATM   18  C12 UNL     1      -3.281   6.991  10.160  1.00  0.00     0.018 C
HETATM   19  C13 UNL     1      -3.895   8.587  12.017  1.00  0.00     0.016 C
HETATM   20  C14 UNL     1      -2.679   9.048  12.849  1.00  0.00     0.037 C
HETATM   21  C15 UNL     1      -2.586   8.208  14.082  1.00  0.00    -0.060 C
HETATM   22  C16 UNL     1      -1.873   8.534  15.112  1.00  0.00     0.017 C
HETATM   23  C17 UNL     1      -3.382   7.018  13.958  1.00  0.00     0.159 C
HETATM   24  O5  UNL     1      -3.248   5.935  14.726  1.00  0.00    -0.342 OA
BRANCH  11  25
HETATM   25  N1  UNL     1      -2.925   1.849  12.655  1.00  0.00    -0.245 N
ATOM     26  H1  UNL     1      -3.620   1.332  13.192  1.00  0.00     0.197 HD
BRANCH  25  27
HETATM   27  N2  UNL     1      -2.218   1.230  11.888  1.00  0.00    -0.248 NA
BRANCH  27  28
HETATM   28  N3  UNL     1      -1.745   0.758  10.853  1.00  0.00    -0.261 N
ATOM     29  H32 UNL     1      -1.736   1.640  10.340  1.00  0.00     0.193 HD
ATOM     30  H31 UNL     1      -1.362   0.101  10.173  1.00  0.00     0.193 HD
ENDBRANCH  27  28
ENDBRANCH  25  27
ENDBRANCH  11  25
BRANCH  14  31
HETATM   31  O4  UNL     1      -5.438   5.664  10.760  1.00  0.00    -0.394 OA
ATOM     32  H4  UNL     1      -6.362   5.865  10.672  1.00  0.00     0.210 HD
ENDBRANCH  14  31
BRANCH  15  33
HETATM   33  O6  UNL     1      -5.346   4.986  14.559  1.00  0.00    -0.362 OA
ATOM     34  H6  UNL     1      -5.722   5.858  14.588  1.00  0.00     0.213 HD
ENDBRANCH  15  33
ENDBRANCH   9  10
ENDBRANCH   7   9
ENDBRANCH   4   7
TORSDOF 9
ENDMDL