MODEL 3
REMARK VINA RESULT: -7.589194541      2.398      5.425
REMARK  5 active torsions:
REMARK  status: ('A' for Active; 'I' for Inactive)
REMARK    1  A    between atoms: C2_3  and  C3_4
REMARK    2  A    between atoms: C3_4  and  N2_5
REMARK    3  A    between atoms: N3_13  and  C10_14
REMARK    4  A    between atoms: C10_14  and  O2_15
REMARK    5  A    between atoms: C10_14  and  C11_17
ROOT
HETATM    1  N1  UNL     1      -3.741   7.386  11.199  1.00  0.00    -0.196 NA
HETATM    2  C1  UNL     1      -3.158   7.312  12.197  1.00  0.00     0.071 C
HETATM    3  C2  UNL     1      -2.462   7.214  13.452  1.00  0.00     0.065 C
HETATM    4  C16 UNL     1      -3.232   6.245  14.327  1.00  0.00     0.026 C
HETATM    5  C17 UNL     1      -3.990   7.163  15.297  1.00  0.00     0.002 C
HETATM    6  C18 UNL     1      -2.868   8.171  15.590  1.00  0.00     0.002 C
HETATM    7  C19 UNL     1      -2.501   8.559  14.176  1.00  0.00     0.026 C
ENDROOT
BRANCH   3   8
HETATM    8  C3  UNL     1      -1.036   6.795  13.365  1.00  0.00     0.148 C
BRANCH   8   9
HETATM    9  N2  UNL     1      -0.751   5.694  12.529  1.00  0.00    -0.369 N
HETATM   10  C4  UNL     1       0.319   5.748  11.640  1.00  0.00     0.224 C
HETATM   11  O1  UNL     1       0.138   5.142  10.406  1.00  0.00    -0.346 OA
HETATM   12  C5  UNL     1      -1.197   5.021  10.065  1.00  0.00     0.189 C
HETATM   13  C6  UNL     1      -1.781   4.018  11.043  1.00  0.00     0.014 C
HETATM   14  C7  UNL     1      -0.891   2.792  11.162  1.00  0.00     0.016 C
HETATM   15  C14 UNL     1      -3.161   3.605  10.676  1.00  0.00     0.138 C
HETATM   16  C15 UNL     1      -1.754   4.711  12.386  1.00  0.00     0.137 C
HETATM   17  C8  UNL     1      -1.450   1.734  10.268  1.00  0.00     0.021 C
HETATM   18  C9  UNL     1      -2.686   1.177  11.024  1.00  0.00     0.125 C
HETATM   19  N3  UNL     1      -3.550   2.299  11.256  1.00  0.00    -0.358 N
BRANCH  19  20
HETATM   20  C10 UNL     1      -4.742   2.238  11.987  1.00  0.00     0.184 C
BRANCH  20  21
HETATM   21  O2  UNL     1      -5.835   2.020  11.272  1.00  0.00    -0.343 OA
ATOM     22  H2  UNL     1      -6.280   1.199  11.448  1.00  0.00     0.219 HD
ENDBRANCH  20  21
BRANCH  20  23
HETATM   23  C11 UNL     1      -4.964   2.374  13.391  1.00  0.00     0.173 A
HETATM   24  N4  UNL     1      -4.590   1.308  14.173  1.00  0.00    -0.172 N
HETATM   25  C12 UNL     1      -4.750   1.269  15.480  1.00  0.00     0.678 A
ATOM     26  H4  UNL     1      -4.165   0.502  13.715  1.00  0.00     0.186 HD
HETATM   27  N5  UNL     1      -4.382   0.241  16.171  1.00  0.00    -0.234 N
HETATM   28  N6  UNL     1      -5.300   2.297  16.134  1.00  0.00    -0.188 N
ATOM     29  H52 UNL     1      -3.961  -0.544  15.672  1.00  0.00     0.174 HD
ATOM     30  H51 UNL     1      -4.505   0.211  17.183  1.00  0.00     0.174 HD
HETATM   31  C13 UNL     1      -5.684   3.368  15.414  1.00  0.00     0.199 A
ATOM     32  H6  UNL     1      -5.426   2.270  17.145  1.00  0.00     0.185 HD
HETATM   33  N7  UNL     1      -5.509   3.387  14.063  1.00  0.00    -0.334 N
ATOM     34  H7  UNL     1      -5.809   4.212  13.543  1.00  0.00     0.168 HD
ENDBRANCH  20  23
ENDBRANCH  19  20
ENDBRANCH   8   9
ENDBRANCH   3   8
TORSDOF 5
ENDMDL