MODEL 1
REMARK VINA RESULT: -7.307754800      0.000      0.000
REMARK  4 active torsions:
REMARK  status: ('A' for Active; 'I' for Inactive)
REMARK    1  A    between atoms: N1_1  and  C1_4
REMARK    2  A    between atoms: N4_12  and  C5_13
REMARK       I    between atoms: N5_16  and  C8_17
REMARK    3  A    between atoms: C8_17  and  C9_19
REMARK    4  A    between atoms: N6_28  and  C17_29
ROOT
HETATM    1  C1  UNL     1      -2.900   0.778  10.925  1.00  0.00     0.130 A
HETATM    2  N2  UNL     1      -3.289  -0.508  11.001  1.00  0.00    -0.337 N
ATOM      3  H2  UNL     1      -3.026  -1.182  10.283  1.00  0.00     0.168 HD
HETATM    4  C2  UNL     1      -4.049  -0.878  12.078  1.00  0.00     0.183 A
HETATM    5  N3  UNL     1      -4.380   0.031  13.009  1.00  0.00    -0.337 N
ATOM      6  H3  UNL     1      -4.948  -0.287  13.794  1.00  0.00     0.168 HD
HETATM    7  C3  UNL     1      -4.025   1.321  12.988  1.00  0.00     0.135 A
HETATM    8  C4  UNL     1      -3.239   1.711  11.879  1.00  0.00     0.119 A
HETATM    9  N4  UNL     1      -2.818   3.072  11.778  1.00  0.00    -0.368 N
HETATM   10  C15 UNL     1      -3.777   3.960  12.444  1.00  0.00     0.143 C
HETATM   11  C16 UNL     1      -3.926   3.593  13.899  1.00  0.00     0.145 C
HETATM   12  N6  UNL     1      -4.419   2.226  13.997  1.00  0.00    -0.359 N
ENDROOT
BRANCH   9  13
HETATM   13  C5  UNL     1      -1.639   3.458  11.116  1.00  0.00     0.088 C
HETATM   14  C6  UNL     1      -0.643   3.912  12.227  1.00  0.00     0.045 C
HETATM   15  C7  UNL     1       0.280   4.968  11.774  1.00  0.00     0.127 C
HETATM   16  N5  UNL     1       0.646   4.733  10.387  1.00  0.00    -0.352 N
HETATM   17  C8  UNL     1       1.957   4.363   9.998  1.00  0.00     0.226 C
HETATM   18  C13 UNL     1      -0.466   4.925   9.465  1.00  0.00     0.127 C
HETATM   19  O1  UNL     1       2.783   4.255  10.975  1.00  0.00    -0.273 OA
HETATM   20  C14 UNL     1      -1.746   4.721  10.300  1.00  0.00     0.045 C
BRANCH  17  21
HETATM   21  C9  UNL     1       2.451   4.102   8.655  1.00  0.00     0.104 A
HETATM   22  C10 UNL     1       3.799   3.439   8.576  1.00  0.00     0.042 A
HETATM   23  C11 UNL     1       4.558   4.237   7.574  1.00  0.00     0.168 A
HETATM   24  O2  UNL     1       3.789   5.272   7.136  1.00  0.00    -0.390 OA
HETATM   25  C12 UNL     1       2.561   5.256   7.735  1.00  0.00     0.181 A
ENDBRANCH  17  21
ENDBRANCH   9  13
BRANCH   1  26
HETATM   26  N1  UNL     1      -2.214   1.184   9.931  1.00  0.00    -0.383 N
ATOM     27  H12 UNL     1      -1.224   1.365  10.091  1.00  0.00     0.157 HD
ATOM     28  H11 UNL     1      -2.660   1.337   9.027  1.00  0.00     0.157 HD
ENDBRANCH   1  26
BRANCH  12  29
HETATM   29  C17 UNL     1      -5.281   1.933  15.095  1.00  0.00     0.086 C
HETATM   30  C18 UNL     1      -4.734   1.639  16.454  1.00  0.00     0.025 C
HETATM   31  C19 UNL     1      -5.976   2.353  17.074  1.00  0.00     0.004 C
HETATM   32  C20 UNL     1      -6.029   3.096  15.732  1.00  0.00     0.025 C
ENDBRANCH  12  29
TORSDOF 4
ENDMDL