MODEL 4
REMARK VINA RESULT: -7.621605202      2.222      7.203
REMARK  4 active torsions:
REMARK  status: ('A' for Active; 'I' for Inactive)
REMARK    1  A    between atoms: N1_7  and  C6_8
REMARK    2  A    between atoms: C7_11  and  N3_12
REMARK    3  A    between atoms: C15_22  and  N5_23
REMARK    4  A    between atoms: N5_23  and  C16_25
ROOT
HETATM    1  C6  UNL     1      -3.226   6.204  14.282  1.00  0.00     0.709 A
HETATM    2  N2  UNL     1      -2.699   5.449  13.309  1.00  0.00    -0.021 N
ATOM      3  H2  UNL     1      -1.932   5.841  12.762  1.00  0.00     0.203 HD
HETATM    4  C7  UNL     1      -3.115   4.207  13.006  1.00  0.00     0.709 A
HETATM    5  N4  UNL     1      -4.130   3.718  13.747  1.00  0.00    -0.021 N
ATOM      6  H4  UNL     1      -4.473   2.778  13.547  1.00  0.00     0.203 HD
HETATM    7  C15 UNL     1      -4.708   4.418  14.740  1.00  0.00     0.707 A
HETATM    8  N7  UNL     1      -4.239   5.654  14.985  1.00  0.00    -0.021 N
ATOM      9  H7  UNL     1      -4.667   6.199  15.733  1.00  0.00     0.203 HD
ENDROOT
BRANCH   7  10
HETATM   10  N5  UNL     1      -5.658   3.889  15.393  1.00  0.00    -0.220 N
ATOM     11  H5  UNL     1      -6.591   4.252  15.201  1.00  0.00     0.178 HD
BRANCH  10  12
HETATM   12  C16 UNL     1      -5.575   2.852  16.360  1.00  0.00     0.102 C
HETATM   13  C17 UNL     1      -5.138   1.544  15.745  1.00  0.00     0.053 C
HETATM   14  C18 UNL     1      -5.274   0.385  16.672  1.00  0.00     0.234 C
HETATM   15  N6  UNL     1      -6.278   0.546  17.686  1.00  0.00    -0.075 N
HETATM   16  C19 UNL     1      -7.379   1.289  17.120  1.00  0.00     0.234 C
ATOM     17  H62 UNL     1      -6.571  -0.343  18.092  1.00  0.00     0.277 HD
ATOM     18  H61 UNL     1      -5.911   0.973  18.537  1.00  0.00     0.277 HD
HETATM   19  C20 UNL     1      -6.943   2.731  17.013  1.00  0.00     0.053 C
ENDBRANCH  10  12
ENDBRANCH   7  10
BRANCH   4  20
HETATM   20  N3  UNL     1      -2.506   3.464  11.958  1.00  0.00    -0.212 N
HETATM   21  C8  UNL     1      -1.150   2.954  11.981  1.00  0.00     0.146 C
HETATM   22  C9  UNL     1      -1.037   2.037  10.797  1.00  0.00     0.006 C
HETATM   23  C10 UNL     1      -1.658   0.711  11.170  1.00  0.00     0.006 C
HETATM   24  C14 UNL     1      -1.952   2.710   9.787  1.00  0.00     0.032 C
HETATM   25  C11 UNL     1      -3.077   0.587  10.689  1.00  0.00     0.002 C
HETATM   26  C12 UNL     1      -3.901   1.819  10.939  1.00  0.00     0.026 C
HETATM   27  C13 UNL     1      -3.123   3.092  10.702  1.00  0.00     0.102 C
ENDBRANCH   4  20
BRANCH   1  28
HETATM   28  N1  UNL     1      -2.733   7.504  14.540  1.00  0.00    -0.208 N
HETATM   29  C2  UNL     1      -1.850   8.128  13.587  1.00  0.00     0.122 C
HETATM   30  C1  UNL     1      -2.717   9.018  12.708  1.00  0.00     0.035 C
HETATM   31  C3  UNL     1      -0.742   8.926  14.240  1.00  0.00     0.193 C
HETATM   32  O1  UNL     1      -1.291   9.762  15.180  1.00  0.00    -0.388 OA
HETATM   33  C4  UNL     1      -1.854   8.993  16.207  1.00  0.00     0.188 C
HETATM   34  C5  UNL     1      -3.078   8.247  15.728  1.00  0.00     0.168 C
ENDBRANCH   1  28
TORSDOF 4
ENDMDL