MODEL 4
REMARK VINA RESULT: -6.777592264      1.879      3.273
REMARK  6 active torsions:
REMARK  status: ('A' for Active; 'I' for Inactive)
REMARK    1  A    between atoms: C4_4  and  N1_5
REMARK    2  A    between atoms: C9_13  and  S1_14
REMARK    3  A    between atoms: C11_18  and  N4_19
REMARK    4  A    between atoms: N4_19  and  N5_21
REMARK    5  A    between atoms: N5_21  and  C12_23
REMARK    6  A    between atoms: C12_23  and  N6_25
ROOT
HETATM    1  C1  UNL     1      -2.015   0.729  11.177  1.00  0.00     0.103 C
HETATM    2  C2  UNL     1      -2.009   1.917  11.485  1.00  0.00    -0.141 C
HETATM    3  C3  UNL     1      -2.015   3.299  11.873  1.00  0.00     0.094 A
HETATM    4  C4  UNL     1      -1.309   4.215  11.139  1.00  0.00     0.127 A
HETATM    5  N2  UNL     1      -1.331   5.519  11.540  1.00  0.00    -0.322 N
ATOM      6  H2  UNL     1      -0.811   6.214  11.004  1.00  0.00     0.169 HD
HETATM    7  C9  UNL     1      -2.024   5.909  12.626  1.00  0.00     0.147 A
HETATM    8  N3  UNL     1      -2.703   4.992  13.322  1.00  0.00    -0.321 N
ATOM      9  H3  UNL     1      -3.224   5.304  14.142  1.00  0.00     0.169 HD
HETATM   10  C11 UNL     1      -2.742   3.691  13.010  1.00  0.00     0.143 A
ENDROOT
BRANCH   4  11
HETATM   11  N1  UNL     1      -0.585   3.823  10.001  1.00  0.00    -0.362 N
HETATM   12  C5  UNL     1      -1.237   3.800   8.697  1.00  0.00     0.150 C
HETATM   13  C6  UNL     1      -0.384   4.617   7.733  1.00  0.00     0.187 C
HETATM   14  O1  UNL     1       0.835   3.925   7.629  1.00  0.00    -0.388 OA
HETATM   15  C7  UNL     1       1.536   4.104   8.816  1.00  0.00     0.187 C
HETATM   16  C8  UNL     1       0.814   3.428   9.992  1.00  0.00     0.150 C
ENDBRANCH   4  11
BRANCH  10  17
HETATM   17  N4  UNL     1      -3.390   2.798  13.667  1.00  0.00    -0.282 N
ATOM     18  H4  UNL     1      -2.843   2.098  14.167  1.00  0.00     0.188 HD
BRANCH  17  19
HETATM   19  N5  UNL     1      -4.756   2.708  13.751  1.00  0.00    -0.275 N
ATOM     20  H5  UNL     1      -5.289   2.309  12.979  1.00  0.00     0.189 HD
BRANCH  19  21
HETATM   21  C12 UNL     1      -5.433   3.173  14.923  1.00  0.00     0.188 C
HETATM   22  S2  UNL     1      -5.970   4.715  14.962  1.00  0.00    -0.039 SA
BRANCH  21  23
HETATM   23  N6  UNL     1      -5.649   2.332  16.042  1.00  0.00    -0.353 N
HETATM   24  C13 UNL     1      -6.730   2.620  16.954  1.00  0.00     0.151 C
HETATM   25  C14 UNL     1      -7.647   1.396  16.996  1.00  0.00     0.187 C
HETATM   26  O2  UNL     1      -6.942   0.213  16.896  1.00  0.00    -0.388 OA
HETATM   27  C15 UNL     1      -5.623   0.300  17.280  1.00  0.00     0.187 C
HETATM   28  C16 UNL     1      -4.816   1.176  16.313  1.00  0.00     0.151 C
ENDBRANCH  21  23
ENDBRANCH  19  21
ENDBRANCH  17  19
ENDBRANCH  10  17
BRANCH   7  29
HETATM   29  S1  UNL     1      -2.024   7.645  13.120  1.00  0.00    -0.098 SA
HETATM   30  C10 UNL     1      -2.654   7.780  14.805  1.00  0.00     0.099 C
ENDBRANCH   7  29
TORSDOF 6
ENDMDL