MODEL 5
REMARK VINA RESULT: -7.280413769      2.392      5.440
REMARK  4 active torsions:
REMARK  status: ('A' for Active; 'I' for Inactive)
REMARK    1  A    between atoms: C2_2  and  C3_3
REMARK    2  A    between atoms: C6_6  and  O1_7
REMARK    3  A    between atoms: C16_22  and  O6_23
REMARK    4  A    between atoms: C16_22  and  C17_25
ROOT
HETATM    1  C3  UNL     1      -4.049   5.405  14.875  1.00  0.00     0.040 C
HETATM    2  C4  UNL     1      -4.071   6.725  14.180  1.00  0.00     0.014 C
HETATM    3  C5  UNL     1      -3.420   6.486  12.838  1.00  0.00     0.042 C
HETATM    4  C6  UNL     1      -3.750   5.026  12.482  1.00  0.00     0.094 C
HETATM    5  C7  UNL     1      -3.616   4.398  13.836  1.00  0.00     0.174 C
HETATM    6  O2  UNL     1      -4.350   3.243  14.051  1.00  0.00    -0.310 OA
HETATM    7  C8  UNL     1      -4.567   2.080  13.352  1.00  0.00     0.291 C
HETATM    8  O3  UNL     1      -4.802   1.097  14.106  1.00  0.00    -0.262 OA
HETATM    9  C9  UNL     1      -4.568   1.807  11.908  1.00  0.00     0.255 C
HETATM   10  O4  UNL     1      -4.780   0.412  11.771  1.00  0.00    -0.338 OA
HETATM   11  C10 UNL     1      -3.600  -0.139  11.349  1.00  0.00     0.158 C
HETATM   12  C11 UNL     1      -3.674  -0.588   9.898  1.00  0.00     0.078 C
HETATM   13  C12 UNL     1      -3.185  -1.340  12.190  1.00  0.00     0.078 C
HETATM   14  O5  UNL     1      -2.620   0.812  11.471  1.00  0.00    -0.345 OA
HETATM   15  C13 UNL     1      -3.304   2.039  11.220  1.00  0.00     0.198 C
HETATM   16  C14 UNL     1      -2.372   3.088  11.614  1.00  0.00     0.264 C
HETATM   17  C15 UNL     1      -2.744   4.527  11.506  1.00  0.00     0.095 C
HETATM   18  C16 UNL     1      -2.990   4.725  10.078  1.00  0.00     0.096 C
HETATM   19  C20 UNL     1      -1.914   3.812   9.461  1.00  0.00     0.311 C
HETATM   20  N1  UNL     1      -1.362   3.042  10.528  1.00  0.00     0.095 N
HETATM   21  C21 UNL     1      -0.058   3.359  10.958  1.00  0.00     0.310 C
ENDROOT
BRANCH  18  22
HETATM   22  O6  UNL     1      -4.265   4.273   9.749  1.00  0.00    -0.387 OA
ATOM     23  H6  UNL     1      -4.895   4.978   9.853  1.00  0.00     0.210 HD
ENDBRANCH  18  22
BRANCH  18  24
HETATM   24  C17 UNL     1      -2.830   6.056   9.471  1.00  0.00     0.014 C
HETATM   25  C18 UNL     1      -3.068   5.894   7.958  1.00  0.00     0.012 C
HETATM   26  C19 UNL     1      -1.526   6.734   9.642  1.00  0.00     0.012 C
ENDBRANCH  18  24
BRANCH   4  27
HETATM   27  O1  UNL     1      -5.004   5.045  11.946  1.00  0.00    -0.387 OA
ATOM     28  H1  UNL     1      -5.281   4.137  11.898  1.00  0.00     0.210 HD
ENDBRANCH   4  27
BRANCH   1  29
HETATM   29  C2  UNL     1      -5.391   5.052  15.440  1.00  0.00    -0.030 C
HETATM   30  C1  UNL     1      -6.318   5.951  15.595  1.00  0.00     0.007 C
ENDBRANCH   1  29
TORSDOF 4
ENDMDL