MODEL 3
REMARK VINA RESULT: -6.736504101      2.030      2.523
REMARK  5 active torsions:
REMARK  status: ('A' for Active; 'I' for Inactive)
REMARK    1  A    between atoms: C2_2  and  N1_3
REMARK    2  A    between atoms: N1_3  and  C3_4
REMARK    3  A    between atoms: N1_3  and  C5_6
REMARK    4  A    between atoms: C5_6  and  N2_8
REMARK       I    between atoms: N2_8  and  C6_10
REMARK       I    between atoms: C6_10  and  N4_16
REMARK       I    between atoms: N3_11  and  C7_13
REMARK    5  A    between atoms: N4_16  and  N5_18
ROOT
HETATM    1  N2  UNL     1      -4.379   3.925  12.802  1.00  0.00    -0.165 N
ATOM      2  H2  UNL     1      -5.029   4.332  12.129  1.00  0.00     0.186 HD
HETATM    3  C6  UNL     1      -3.317   3.071  12.368  1.00  0.00     0.697 C
HETATM    4  N3  UNL     1      -3.548   1.959  11.843  1.00  0.00    -0.159 N
ATOM      5  H3  UNL     1      -2.706   1.448  11.577  1.00  0.00     0.187 HD
HETATM    6  C7  UNL     1      -4.721   1.288  11.552  1.00  0.00     0.232 C
HETATM    7  C8  UNL     1      -4.712  -0.213  11.438  1.00  0.00     0.118 C
HETATM    8  O1  UNL     1      -5.801   1.902  11.380  1.00  0.00    -0.273 OA
HETATM    9  N4  UNL     1      -1.997   3.588  12.591  1.00  0.00    -0.151 N
ATOM     10  H4  UNL     1      -1.380   3.172  13.288  1.00  0.00     0.199 HD
ENDROOT
BRANCH   1  11
HETATM   11  C5  UNL     1      -4.508   4.193  14.177  1.00  0.00     0.188 C
HETATM   12  S1  UNL     1      -3.985   5.673  14.738  1.00  0.00    -0.040 SA
BRANCH  11  13
HETATM   13  N1  UNL     1      -5.051   3.294  15.126  1.00  0.00    -0.358 N
BRANCH  13  14
HETATM   14  C2  UNL     1      -6.492   3.372  15.438  1.00  0.00     0.120 C
HETATM   15  C1  UNL     1      -6.752   3.020  16.875  1.00  0.00     0.026 C
ENDBRANCH  13  14
BRANCH  13  16
HETATM   16  C3  UNL     1      -4.244   2.307  15.792  1.00  0.00     0.120 C
HETATM   17  C4  UNL     1      -4.490   0.914  15.248  1.00  0.00     0.026 C
ENDBRANCH  13  16
ENDBRANCH  11  13
ENDBRANCH   1  11
BRANCH   9  18
HETATM   18  N5  UNL     1      -1.588   4.671  11.831  1.00  0.00    -0.213 NA
HETATM   19  C9  UNL     1      -0.708   5.490  12.579  1.00  0.00     0.140 C
HETATM   20  C10 UNL     1      -0.425   6.845  12.016  1.00  0.00     0.183 C
HETATM   21  O2  UNL     1      -0.166   6.898  10.676  1.00  0.00    -0.388 OA
HETATM   22  C11 UNL     1       1.026   7.522  10.357  1.00  0.00     0.193 C
HETATM   23  C12 UNL     1       2.246   6.767  10.793  1.00  0.00     0.193 C
HETATM   24  O3  UNL     1       2.745   5.968   9.751  1.00  0.00    -0.387 OA
HETATM   25  C13 UNL     1       2.976   4.670  10.127  1.00  0.00     0.193 C
HETATM   26  C14 UNL     1       2.177   3.691   9.311  1.00  0.00     0.193 C
HETATM   27  O4  UNL     1       0.827   3.943   9.279  1.00  0.00    -0.388 OA
HETATM   28  C15 UNL     1       0.203   3.625  10.495  1.00  0.00     0.183 C
HETATM   29  C16 UNL     1      -1.154   4.218  10.553  1.00  0.00     0.140 C
ENDBRANCH   9  18
TORSDOF 5
ENDMDL