MODEL 3
REMARK VINA RESULT: -8.042633800      2.130      2.964
REMARK  3 active torsions:
REMARK  status: ('A' for Active; 'I' for Inactive)
REMARK    1  A    between atoms: C2_2  and  N1_3
REMARK    2  A    between atoms: N2_6  and  C5_7
REMARK    3  A    between atoms: C7_16  and  N6_17
REMARK       I    between atoms: N8_29  and  C17_30
ROOT
HETATM    1  C5  UNL     1      -3.267   2.623  11.969  1.00  0.00     0.709 A
HETATM    2  N3  UNL     1      -3.353   1.327  11.570  1.00  0.00    -0.022 N
ATOM      3  H3  UNL     1      -2.940   1.059  10.677  1.00  0.00     0.203 HD
HETATM    4  C6  UNL     1      -3.962   0.391  12.308  1.00  0.00     0.705 A
HETATM    5  N4  UNL     1      -4.075  -0.832  11.970  1.00  0.00    -0.234 N
ATOM      6  H41 UNL     1      -4.538  -1.545  12.533  1.00  0.00     0.174 HD
ATOM      7  H42 UNL     1      -3.681  -1.159  11.087  1.00  0.00     0.174 HD
HETATM    8  N5  UNL     1      -4.490   0.830  13.492  1.00  0.00    -0.022 N
ATOM      9  H5  UNL     1      -4.963   0.150  14.086  1.00  0.00     0.203 HD
HETATM   10  C7  UNL     1      -4.423   2.083  13.910  1.00  0.00     0.709 A
HETATM   11  N7  UNL     1      -3.803   2.987  13.136  1.00  0.00    -0.021 N
ATOM     12  H7  UNL     1      -3.741   3.958  13.442  1.00  0.00     0.203 HD
ENDROOT
BRANCH   1  13
HETATM   13  N2  UNL     1      -2.595   3.518  11.079  1.00  0.00    -0.214 N
HETATM   14  C4  UNL     1      -3.490   4.082  10.084  1.00  0.00     0.161 C
HETATM   15  C3  UNL     1      -2.632   4.968   9.201  1.00  0.00     0.147 C
HETATM   16  N1  UNL     1      -2.268   6.182   9.827  1.00  0.00    -0.372 N
HETATM   17  C15 UNL     1      -1.540   6.158  11.015  1.00  0.00     0.077 C
HETATM   18  C14 UNL     1      -0.598   4.992  11.092  1.00  0.00     0.041 C
HETATM   19  C13 UNL     1      -1.208   3.667  11.346  1.00  0.00     0.159 C
HETATM   20  C16 UNL     1       0.465   5.279  12.149  1.00  0.00     0.144 C
HETATM   21  C19 UNL     1       0.537   4.996  10.097  1.00  0.00     0.144 C
HETATM   22  N8  UNL     1       1.513   5.004  11.175  1.00  0.00    -0.350 N
HETATM   23  C17 UNL     1       2.908   4.837  11.303  1.00  0.00     0.215 C
HETATM   24  C18 UNL     1       3.553   4.941  12.628  1.00  0.00     0.117 C
HETATM   25  O1  UNL     1       3.600   4.599  10.290  1.00  0.00    -0.274 OA
BRANCH  16  26
HETATM   26  C2  UNL     1      -2.693   7.374   9.242  1.00  0.00     0.059 C
HETATM   27  C1  UNL     1      -4.122   7.757   9.359  1.00  0.00     0.055 C
ENDBRANCH  16  26
ENDBRANCH   1  13
BRANCH  10  28
HETATM   28  N6  UNL     1      -4.995   2.424  15.147  1.00  0.00    -0.217 N
HETATM   29  C8  UNL     1      -4.467   1.804  16.378  1.00  0.00     0.141 C
HETATM   30  C9  UNL     1      -5.566   0.816  16.787  1.00  0.00     0.020 C
HETATM   31  C10 UNL     1      -6.806   1.628  17.078  1.00  0.00     0.003 C
HETATM   32  C11 UNL     1      -6.692   3.072  16.715  1.00  0.00     0.020 C
HETATM   33  C12 UNL     1      -6.092   3.338  15.358  1.00  0.00     0.141 C
ENDBRANCH  10  28
TORSDOF 3
ENDMDL