MODEL 1
REMARK VINA RESULT: -7.005983918      0.000      0.000
REMARK  7 active torsions:
REMARK  status: ('A' for Active; 'I' for Inactive)
REMARK    1  A    between atoms: C2_3  and  C3_4
REMARK    2  A    between atoms: C11_13  and  N2_14
REMARK    3  A    between atoms: N3_17  and  C14_18
REMARK    4  A    between atoms: C14_18  and  C15_19
REMARK    5  A    between atoms: C15_19  and  O1_20
REMARK    6  A    between atoms: C15_19  and  C16_22
REMARK    7  A    between atoms: C16_22  and  O2_23
ROOT
HETATM    1  C1  UNL     1      -4.301   9.305  10.890  1.00  0.00     0.147 C
HETATM    2  N1  UNL     1      -5.678   9.186  10.442  1.00  0.00    -0.378 N
HETATM    3  C2  UNL     1      -5.903   9.475   9.112  1.00  0.00     0.098 C
HETATM    4  C7  UNL     1      -6.416   8.362   8.285  1.00  0.00     0.104 C
HETATM    5  S1  UNL     1      -6.676   7.019   9.511  1.00  0.00    -0.114 SA
HETATM    6  C8  UNL     1      -6.291   8.037  10.955  1.00  0.00     0.154 C
HETATM    7  C9  UNL     1      -7.431   8.213  11.882  1.00  0.00     0.073 C
HETATM    8  C10 UNL     1      -7.381   6.918  12.699  1.00  0.00     0.081 C
HETATM    9  C11 UNL     1      -5.901   6.678  12.717  1.00  0.00     0.077 C
HETATM   10  N4  UNL     1      -5.324   7.295  11.761  1.00  0.00    -0.345 N
ATOM     11  H4  UNL     1      -4.320   7.272  11.583  1.00  0.00     0.164 HD
ENDROOT
BRANCH   9  12
HETATM   12  N2  UNL     1      -5.280   5.869  13.690  1.00  0.00    -0.367 N
HETATM   13  C12 UNL     1      -3.911   5.442  13.503  1.00  0.00     0.154 C
HETATM   14  C13 UNL     1      -3.768   4.044  14.063  1.00  0.00     0.292 C
HETATM   15  N3  UNL     1      -5.027   3.316  14.016  1.00  0.00     0.094 N
HETATM   16  C17 UNL     1      -6.021   3.909  14.880  1.00  0.00     0.292 C
HETATM   17  C18 UNL     1      -5.934   5.419  14.903  1.00  0.00     0.154 C
BRANCH  15  18
HETATM   18  C14 UNL     1      -4.734   1.995  14.522  1.00  0.00     0.306 C
BRANCH  18  19
HETATM   19  C15 UNL     1      -4.507   1.901  15.986  1.00  0.00     0.170 C
BRANCH  19  20
HETATM   20  O1  UNL     1      -3.243   1.588  16.401  1.00  0.00    -0.392 OA
ATOM     21  H1  UNL     1      -3.140   1.311  17.304  1.00  0.00     0.210 HD
ENDBRANCH  19  20
BRANCH  19  22
HETATM   22  C16 UNL     1      -5.434   0.791  16.503  1.00  0.00     0.197 C
BRANCH  22  23
HETATM   23  O2  UNL     1      -5.076  -0.453  16.013  1.00  0.00    -0.398 OA
ATOM     24  H2  UNL     1      -5.721  -0.795  15.406  1.00  0.00     0.209 HD
ENDBRANCH  22  23
ENDBRANCH  19  22
ENDBRANCH  18  19
ENDBRANCH  15  18
ENDBRANCH   9  12
BRANCH   3  25
HETATM   25  C3  UNL     1      -6.768  10.706   8.838  1.00  0.00    -0.030 C
HETATM   26  C4  UNL     1      -8.158  10.392   8.422  1.00  0.00     0.016 C
HETATM   27  C5  UNL     1      -6.789  11.651  10.001  1.00  0.00     0.016 C
HETATM   28  C6  UNL     1      -6.104  11.454   7.673  1.00  0.00     0.016 C
ENDBRANCH   3  25
TORSDOF 7
ENDMDL