MODEL 4
REMARK VINA RESULT: -6.799972484      3.725      7.560
REMARK  3 active torsions:
REMARK  status: ('A' for Active; 'I' for Inactive)
REMARK    1  A    between atoms: C4_4  and  C5_5
REMARK    2  A    between atoms: C11_15  and  C12_16
REMARK       I    between atoms: C12_16  and  N1_18
REMARK    3  A    between atoms: N1_18  and  C13_20
ROOT
HETATM    1  C5  UNL     1      -4.637   3.977  13.740  1.00  0.00     0.210 C
HETATM    2  O1  UNL     1      -5.167   4.390  12.522  1.00  0.00    -0.334 OA
HETATM    3  C6  UNL     1      -4.506   5.535  12.128  1.00  0.00     0.255 C
HETATM    4  O2  UNL     1      -3.208   5.309  12.645  1.00  0.00    -0.309 OA
HETATM    5  C7  UNL     1      -3.517   4.950  13.976  1.00  0.00     0.193 C
HETATM    6  C8  UNL     1      -2.326   4.317  14.656  1.00  0.00     0.082 C
HETATM    7  O3  UNL     1      -3.883   6.072  14.667  1.00  0.00    -0.350 OA
HETATM    8  C9  UNL     1      -3.991   7.182  13.829  1.00  0.00     0.209 C
HETATM    9  C10 UNL     1      -5.018   6.776  12.759  1.00  0.00     0.217 C
HETATM   10  O4  UNL     1      -5.366   7.800  11.955  1.00  0.00    -0.332 OA
HETATM   11  C11 UNL     1      -5.038   7.734  10.640  1.00  0.00     0.333 C
HETATM   12  C17 UNL     1      -6.061   6.863   9.935  1.00  0.00     0.250 C
HETATM   13  O6  UNL     1      -5.562   5.562  10.023  1.00  0.00    -0.345 OA
HETATM   14  C18 UNL     1      -4.328   5.620  10.628  1.00  0.00     0.286 C
HETATM   15  C19 UNL     1      -3.384   4.584  10.108  1.00  0.00     0.085 C
HETATM   16  N2  UNL     1      -3.819   6.980  10.378  1.00  0.00     0.006 N
ATOM     17  H21 UNL     1      -2.994   7.258  10.910  1.00  0.00     0.285 HD
ATOM     18  H22 UNL     1      -3.378   7.138   9.472  1.00  0.00     0.285 HD
ENDROOT
BRANCH  11  19
HETATM   19  C12 UNL     1      -4.969   9.097  10.080  1.00  0.00     0.284 C
HETATM   20  O5  UNL     1      -4.102   9.325   9.195  1.00  0.00    -0.268 OA
HETATM   21  N1  UNL     1      -5.816  10.154  10.479  1.00  0.00    -0.349 N
ATOM     22  H1  UNL     1      -6.516   9.963  11.196  1.00  0.00     0.163 HD
BRANCH  21  23
HETATM   23  C13 UNL     1      -5.753  11.484   9.935  1.00  0.00     0.022 C
HETATM   24  C14 UNL     1      -4.462  12.138  10.373  1.00  0.00     0.037 C
HETATM   25  C15 UNL     1      -6.880  12.363  10.446  1.00  0.00     0.037 C
HETATM   26  C16 UNL     1      -5.865  11.475   8.426  1.00  0.00     0.037 C
ENDBRANCH  21  23
ENDBRANCH  11  19
BRANCH   1  27
HETATM   27  C4  UNL     1      -5.638   3.956  14.834  1.00  0.00     0.012 C
HETATM   28  C2  UNL     1      -5.765   2.926  15.626  1.00  0.00    -0.089 C
HETATM   29  C1  UNL     1      -4.894   1.745  15.437  1.00  0.00     0.042 C
HETATM   30  C3  UNL     1      -6.775   2.923  16.719  1.00  0.00     0.042 C
ENDBRANCH   1  27
TORSDOF 3
ENDMDL