MODEL 4
REMARK VINA RESULT: -6.680747347      2.321      3.348
REMARK  7 active torsions:
REMARK  status: ('A' for Active; 'I' for Inactive)
REMARK    1  A    between atoms: C2_2  and  O2_4
REMARK    2  A    between atoms: O2_4  and  C3_5
REMARK    3  A    between atoms: C10_13  and  O3_14
REMARK    4  A    between atoms: C13_18  and  O4_19
REMARK    5  A    between atoms: C14_21  and  O5_22
REMARK    6  A    between atoms: O5_22  and  C15_23
REMARK    7  A    between atoms: C15_23  and  C16_25
ROOT
HETATM    1  C3  UNL     1      -4.541   2.210  12.697  1.00  0.00     0.159 C
HETATM    2  C4  UNL     1      -3.530   3.027  11.883  1.00  0.00     0.075 C
HETATM    3  C5  UNL     1      -2.997   4.028  12.803  1.00  0.00     0.260 C
HETATM    4  N1  UNL     1      -1.777   4.701  12.688  1.00  0.00     0.092 N
HETATM    5  C6  UNL     1      -0.642   3.934  12.287  1.00  0.00     0.310 C
HETATM    6  C7  UNL     1      -1.609   5.301  14.036  1.00  0.00     0.273 C
HETATM    7  C8  UNL     1      -2.755   5.227  14.937  1.00  0.00     0.052 C
HETATM    8  C9  UNL     1      -4.174   5.087  14.401  1.00  0.00     0.069 C
HETATM    9  C10 UNL     1      -4.905   6.343  14.640  1.00  0.00     0.136 C
HETATM   10  C11 UNL     1      -4.041   7.302  13.796  1.00  0.00     0.036 C
HETATM   11  C12 UNL     1      -3.694   6.492  12.542  1.00  0.00     0.044 C
HETATM   12  C13 UNL     1      -4.024   5.093  12.902  1.00  0.00     0.105 C
HETATM   13  C14 UNL     1      -4.824   3.794  14.753  1.00  0.00     0.070 C
HETATM   14  C20 UNL     1      -5.296   2.834  13.761  1.00  0.00     0.039 C
ENDROOT
BRANCH  13  15
HETATM   15  O5  UNL     1      -4.118   3.100  15.787  1.00  0.00    -0.282 OA
BRANCH  15  16
HETATM   16  C15 UNL     1      -4.461   1.886  16.300  1.00  0.00     0.268 C
HETATM   17  O6  UNL     1      -3.541   1.065  16.550  1.00  0.00    -0.264 OA
BRANCH  16  18
HETATM   18  C16 UNL     1      -5.853   1.455  16.590  1.00  0.00     0.086 C
HETATM   19  C17 UNL     1      -5.998   0.610  17.829  1.00  0.00     0.014 C
HETATM   20  C18 UNL     1      -6.445   1.816  18.649  1.00  0.00     0.002 C
HETATM   21  C19 UNL     1      -6.645   2.540  17.312  1.00  0.00     0.014 C
ENDBRANCH  16  18
ENDBRANCH  15  16
ENDBRANCH  13  15
BRANCH   9  22
HETATM   22  O3  UNL     1      -4.841   6.787  15.956  1.00  0.00    -0.394 OA
ATOM     23  H3  UNL     1      -5.550   6.469  16.503  1.00  0.00     0.210 HD
ENDBRANCH   9  22
BRANCH  12  24
HETATM   24  O4  UNL     1      -5.197   4.822  12.198  1.00  0.00    -0.386 OA
ATOM     25  H4  UNL     1      -5.880   4.417  12.720  1.00  0.00     0.210 HD
ENDBRANCH  12  24
BRANCH   1  26
HETATM   26  O2  UNL     1      -5.459   1.551  11.846  1.00  0.00    -0.312 OA
BRANCH  26  27
HETATM   27  C2  UNL     1      -5.230   0.355  11.239  1.00  0.00     0.255 C
HETATM   28  C1  UNL     1      -4.758  -0.873  11.918  1.00  0.00     0.126 C
HETATM   29  O1  UNL     1      -5.440   0.315  10.009  1.00  0.00    -0.266 OA
ENDBRANCH  26  27
ENDBRANCH   1  26
TORSDOF 7
ENDMDL