MODEL 4
REMARK VINA RESULT: -6.218599828      2.113      6.923
REMARK  5 active torsions:
REMARK  status: ('A' for Active; 'I' for Inactive)
REMARK    1  A    between atoms: O1_2  and  C2_3
REMARK    2  A    between atoms: C2_3  and  C3_5
REMARK    3  A    between atoms: C3_5  and  C4_6
REMARK    4  A    between atoms: C3_5  and  N5_25
REMARK    5  A    between atoms: C8_12  and  N2_13
ROOT
HETATM    1  C4  UNL     1      -4.747   6.867  12.592  1.00  0.00     0.129 A
HETATM    2  N1  UNL     1      -3.880   6.654  11.593  1.00  0.00    -0.340 N
ATOM      3  H1  UNL     1      -2.879   6.519  11.734  1.00  0.00     0.167 HD
HETATM    4  C5  UNL     1      -4.459   6.638  10.410  1.00  0.00     0.085 A
HETATM    5  C6  UNL     1      -3.983   6.460   9.144  1.00  0.00    -0.018 A
HETATM    6  C7  UNL     1      -4.877   6.502   8.101  1.00  0.00    -0.006 A
HETATM    7  C8  UNL     1      -6.214   6.720   8.350  1.00  0.00     0.107 A
HETATM    8  N3  UNL     1      -6.658   6.893   9.599  1.00  0.00    -0.327 N
ATOM      9  H3  UNL     1      -7.653   7.053   9.757  1.00  0.00     0.169 HD
HETATM   10  C9  UNL     1      -5.822   6.860  10.650  1.00  0.00     0.138 A
HETATM   11  N4  UNL     1      -5.942   6.991  11.980  1.00  0.00    -0.323 N
HETATM   12  C10 UNL     1      -7.244   7.235  12.597  1.00  0.00     0.159 C
HETATM   13  C11 UNL     1      -4.344   6.309   6.726  1.00  0.00     0.043 C
HETATM   14  C12 UNL     1      -3.306   5.228   6.651  1.00  0.00     0.005 C
HETATM   15  C13 UNL     1      -2.558   4.993   7.911  1.00  0.00     0.005 C
HETATM   16  C14 UNL     1      -2.562   6.217   8.836  1.00  0.00     0.042 C
ENDROOT
BRANCH   1  17
HETATM   17  C3  UNL     1      -4.547   6.962  14.040  1.00  0.00     0.388 C
BRANCH  17  18
HETATM   18  C2  UNL     1      -3.326   7.781  14.369  1.00  0.00     0.300 C
HETATM   19  O2  UNL     1      -2.738   8.384  13.443  1.00  0.00    -0.262 OA
BRANCH  18  20
HETATM   20  O1  UNL     1      -2.822   7.896  15.647  1.00  0.00    -0.324 OA
HETATM   21  C1  UNL     1      -1.813   8.882  15.909  1.00  0.00     0.213 C
ENDBRANCH  18  20
ENDBRANCH  17  18
BRANCH  17  22
HETATM   22  N5  UNL     1      -4.422   5.750  14.754  1.00  0.00     0.111 N
HETATM   23  C15 UNL     1      -5.707   5.402  15.311  1.00  0.00     0.275 C
HETATM   24  C16 UNL     1      -6.336   4.270  14.516  1.00  0.00     0.050 C
HETATM   25  C17 UNL     1      -5.995   2.980  15.192  1.00  0.00     0.118 C
HETATM   26  N6  UNL     1      -4.682   2.510  14.903  1.00  0.00    -0.415 N
HETATM   27  C18 UNL     1      -4.536   1.733  13.715  1.00  0.00     0.143 C
HETATM   28  C19 UNL     1      -3.640   3.466  15.081  1.00  0.00     0.146 C
HETATM   29  C20 UNL     1      -3.738   4.670  14.140  1.00  0.00     0.293 C
ENDBRANCH  17  22
ENDBRANCH   1  17
BRANCH   7  30
HETATM   30  N2  UNL     1      -7.013   6.750   7.334  1.00  0.00    -0.385 N
ATOM     31  H22 UNL     1      -6.933   6.081   6.568  1.00  0.00     0.157 HD
ATOM     32  H21 UNL     1      -7.734   7.472   7.324  1.00  0.00     0.157 HD
ENDBRANCH   7  30
TORSDOF 5
ENDMDL