MODEL 3
REMARK VINA RESULT: -6.836375921      2.741      5.344
REMARK  3 active torsions:
REMARK  status: ('A' for Active; 'I' for Inactive)
REMARK    1  A    between atoms: O1_2  and  C2_3
REMARK    2  A    between atoms: C12_18  and  C13_19
REMARK    3  A    between atoms: C13_19  and  N4_20
ROOT
HETATM    1  C2  UNL     1      -2.555   7.634  14.598  1.00  0.00     0.158 C
HETATM    2  C3  UNL     1      -3.066   6.270  15.029  1.00  0.00     0.099 C
HETATM    3  C4  UNL     1      -3.242   5.609  13.653  1.00  0.00     0.244 C
HETATM    4  N1  UNL     1      -1.929   5.268  13.158  1.00  0.00    -0.346 N
ATOM      5  H1  UNL     1      -1.141   5.914  13.132  1.00  0.00     0.163 HD
HETATM    6  C5  UNL     1      -1.877   4.049  12.754  1.00  0.00     0.091 C
HETATM    7  N2  UNL     1      -0.723   3.437  12.219  1.00  0.00    -0.088 NA
HETATM    8  C6  UNL     1      -3.209   3.382  12.933  1.00  0.00     0.087 C
HETATM    9  C7  UNL     1      -3.951   4.329  13.867  1.00  0.00     0.025 C
HETATM   10  C8  UNL     1      -3.708   3.789  15.278  1.00  0.00     0.040 C
HETATM   11  C9  UNL     1      -4.476   2.512  15.501  1.00  0.00     0.168 C
HETATM   12  O2  UNL     1      -5.825   2.620  15.274  1.00  0.00    -0.391 OA
HETATM   13  C10 UNL     1      -6.202   3.877  14.866  1.00  0.00     0.168 C
HETATM   14  C11 UNL     1      -5.421   4.343  13.643  1.00  0.00     0.040 C
HETATM   15  N3  UNL     1      -3.921   6.620  12.933  1.00  0.00     0.131 N
HETATM   16  C12 UNL     1      -3.744   6.599  11.492  1.00  0.00     0.244 C
HETATM   17  C18 UNL     1      -2.604   7.496  11.192  1.00  0.00     0.040 C
HETATM   18  C19 UNL     1      -2.573   8.497  12.328  1.00  0.00     0.041 C
HETATM   19  C20 UNL     1      -3.444   7.898  13.391  1.00  0.00     0.255 C
ENDROOT
BRANCH   1  20
HETATM   20  O1  UNL     1      -2.682   8.583  15.579  1.00  0.00    -0.388 OA
HETATM   21  C1  UNL     1      -1.419   9.081  15.889  1.00  0.00     0.202 C
ENDBRANCH   1  20
BRANCH  16  22
HETATM   22  C13 UNL     1      -5.038   6.945  10.803  1.00  0.00     0.161 C
BRANCH  22  23
HETATM   23  N4  UNL     1      -5.153   6.489   9.458  1.00  0.00    -0.348 N
HETATM   24  C14 UNL     1      -4.519   5.382   8.842  1.00  0.00     0.186 C
HETATM   25  N5  UNL     1      -3.986   4.218   9.508  1.00  0.00    -0.064 NA
HETATM   26  N6  UNL     1      -4.466   5.550   7.565  1.00  0.00    -0.363 N
HETATM   27  C15 UNL     1      -5.067   6.806   7.207  1.00  0.00     0.147 C
ATOM     28  H6  UNL     1      -4.057   4.888   6.905  1.00  0.00     0.162 HD
HETATM   29  C16 UNL     1      -5.946   7.070   8.406  1.00  0.00     0.100 C
HETATM   30  C17 UNL     1      -7.231   6.291   8.165  1.00  0.00     0.034 C
ENDBRANCH  22  23
ENDBRANCH  16  22
TORSDOF 3
ENDMDL