MODEL 5
REMARK VINA RESULT: -5.549753545      1.777      3.727
REMARK  6 active torsions:
REMARK  status: ('A' for Active; 'I' for Inactive)
REMARK    1  A    between atoms: O1_2  and  C2_3
REMARK    2  A    between atoms: C2_3  and  C3_4
REMARK    3  A    between atoms: C4_6  and  C5_7
REMARK    4  A    between atoms: C5_7  and  C6_8
REMARK    5  A    between atoms: C6_8  and  O3_10
REMARK    6  A    between atoms: C10_14  and  O4_15
ROOT
HETATM    1  C3  UNL     1      -5.199   7.200  11.710  1.00  0.00     0.188 C
HETATM    2  O2  UNL     1      -4.989   6.190  10.815  1.00  0.00    -0.342 OA
HETATM    3  C4  UNL     1      -3.801   5.524  11.083  1.00  0.00     0.269 C
HETATM    4  C8  UNL     1      -4.069   4.298  11.823  1.00  0.00     0.065 C
HETATM    5  C9  UNL     1      -4.439   3.068  11.023  1.00  0.00     0.042 C
HETATM    6  C10 UNL     1      -4.868   2.192  12.230  1.00  0.00     0.119 C
HETATM    7  C11 UNL     1      -3.607   2.333  13.054  1.00  0.00     0.043 C
HETATM    8  C12 UNL     1      -3.071   3.754  12.776  1.00  0.00    -0.012 C
HETATM    9  C13 UNL     1      -1.689   3.596  12.269  1.00  0.00     0.018 C
HETATM   10  C14 UNL     1      -3.008   4.400  14.127  1.00  0.00     0.180 C
HETATM   11  O5  UNL     1      -2.337   5.587  14.203  1.00  0.00    -0.360 OA
HETATM   12  C15 UNL     1      -3.123   6.528  14.869  1.00  0.00     0.262 C
HETATM   13  C16 UNL     1      -4.428   6.774  14.102  1.00  0.00     0.106 C
HETATM   14  C17 UNL     1      -4.116   7.155  12.709  1.00  0.00     0.203 C
HETATM   15  C18 UNL     1      -3.185   8.354  12.741  1.00  0.00     0.080 C
HETATM   16  C19 UNL     1      -2.103   8.265  13.747  1.00  0.00     0.180 C
HETATM   17  O6  UNL     1      -2.490   7.738  14.968  1.00  0.00    -0.361 OA
HETATM   18  C20 UNL     1      -2.714   7.707  11.425  1.00  0.00     0.287 C
HETATM   19  N1  UNL     1      -3.096   6.443  12.025  1.00  0.00     0.137 N
ENDROOT
BRANCH   3  20
HETATM   20  C5  UNL     1      -3.002   5.497   9.842  1.00  0.00     0.103 C
BRANCH  20  21
HETATM   21  C6  UNL     1      -3.641   5.613   8.524  1.00  0.00     0.118 C
HETATM   22  C7  UNL     1      -2.535   5.263   7.493  1.00  0.00     0.039 C
BRANCH  21  23
HETATM   23  O3  UNL     1      -4.043   6.894   8.167  1.00  0.00    -0.396 OA
ATOM     24  H3  UNL     1      -4.096   7.518   8.880  1.00  0.00     0.210 HD
ENDBRANCH  21  23
ENDBRANCH  20  21
ENDBRANCH   3  20
BRANCH   1  25
HETATM   25  C2  UNL     1      -6.596   7.029  12.254  1.00  0.00     0.201 C
BRANCH  25  26
HETATM   26  O1  UNL     1      -7.486   7.991  11.886  1.00  0.00    -0.393 OA
HETATM   27  C1  UNL     1      -6.942   8.959  11.063  1.00  0.00     0.201 C
ENDBRANCH  25  26
ENDBRANCH   1  25
BRANCH   6  28
HETATM   28  O4  UNL     1      -5.159   0.910  11.857  1.00  0.00    -0.396 OA
ATOM     29  H4  UNL     1      -5.959   0.594  12.259  1.00  0.00     0.210 HD
ENDBRANCH   6  28
TORSDOF 6
ENDMDL