MODEL 4
REMARK VINA RESULT: -6.447261152      1.224      1.393
REMARK  7 active torsions:
REMARK  status: ('A' for Active; 'I' for Inactive)
REMARK    1  A    between atoms: C2_2  and  C3_3
REMARK    2  A    between atoms: C2_2  and  C4_6
REMARK    3  A    between atoms: C3_3  and  O1_4
REMARK    4  A    between atoms: C9_11  and  O2_12
REMARK    5  A    between atoms: C15_19  and  O4_20
REMARK    6  A    between atoms: C15_19  and  C16_22
REMARK    7  A    between atoms: C16_22  and  O6_24
ROOT
HETATM    1  C4  UNL     1      -5.314   3.417  14.040  1.00  0.00     0.023 C
HETATM    2  C5  UNL     1      -6.537   3.569  14.915  1.00  0.00     0.010 C
HETATM    3  C6  UNL     1      -6.259   4.749  15.778  1.00  0.00     0.006 C
HETATM    4  C7  UNL     1      -5.318   5.622  14.962  1.00  0.00    -0.005 C
HETATM    5  C8  UNL     1      -6.112   6.393  13.977  1.00  0.00     0.037 C
HETATM    6  C9  UNL     1      -5.264   6.868  12.776  1.00  0.00     0.132 C
HETATM    7  C11 UNL     1      -3.874   6.616  13.164  1.00  0.00     0.075 C
HETATM    8  C12 UNL     1      -2.787   6.954  12.252  1.00  0.00    -0.038 C
HETATM    9  C13 UNL     1      -2.500   7.714  11.222  1.00  0.00     0.005 C
HETATM   10  C14 UNL     1      -1.185   7.757  10.545  1.00  0.00     0.200 C
HETATM   11  O3  UNL     1      -0.210   7.153  11.263  1.00  0.00    -0.341 OA
HETATM   12  C15 UNL     1      -0.563   5.952  11.821  1.00  0.00     0.284 C
HETATM   13  C18 UNL     1      -1.690   6.054  12.792  1.00  0.00     0.224 C
HETATM   14  O7  UNL     1      -2.316   4.891  13.145  1.00  0.00    -0.369 OA
HETATM   15  C19 UNL     1      -3.672   5.091  13.188  1.00  0.00     0.138 C
HETATM   16  C20 UNL     1      -4.403   4.563  14.364  1.00  0.00     0.028 C
ENDROOT
BRANCH  12  17
HETATM   17  O4  UNL     1       0.569   5.555  12.591  1.00  0.00    -0.355 OA
ATOM     18  H4  UNL     1       0.871   4.750  12.187  1.00  0.00     0.213 HD
ENDBRANCH  12  17
BRANCH  12  19
HETATM   19  C16 UNL     1      -0.714   4.905  10.802  1.00  0.00     0.325 C
HETATM   20  O5  UNL     1       0.277   4.229  10.445  1.00  0.00    -0.259 OA
BRANCH  19  21
HETATM   21  O6  UNL     1      -1.920   4.589  10.173  1.00  0.00    -0.322 OA
HETATM   22  C17 UNL     1      -2.149   4.762   8.803  1.00  0.00     0.213 C
ENDBRANCH  19  21
ENDBRANCH  12  19
BRANCH   6  23
HETATM   23  O2  UNL     1      -5.751   6.128  11.706  1.00  0.00    -0.390 OA
HETATM   24  C10 UNL     1      -6.170   7.011  10.725  1.00  0.00     0.202 C
ENDBRANCH   6  23
BRANCH   1  25
HETATM   25  C2  UNL     1      -4.733   2.072  14.230  1.00  0.00    -0.061 C
HETATM   26  C1  UNL     1      -4.642   1.456  15.388  1.00  0.00     0.017 C
BRANCH  25  27
HETATM   27  C3  UNL     1      -4.216   1.360  13.016  1.00  0.00     0.198 C
BRANCH  27  28
HETATM   28  O1  UNL     1      -2.950   1.826  12.665  1.00  0.00    -0.397 OA
ATOM     29  H1  UNL     1      -2.983   2.327  11.858  1.00  0.00     0.209 HD
ENDBRANCH  27  28
ENDBRANCH  25  27
ENDBRANCH   1  25
TORSDOF 7
ENDMDL