MODEL 3
REMARK VINA RESULT: -7.062351138      1.698      1.926
REMARK  6 active torsions:
REMARK  status: ('A' for Active; 'I' for Inactive)
REMARK    1  A    between atoms: O1_2  and  C2_3
REMARK    2  A    between atoms: N1_6  and  N2_7
REMARK    3  A    between atoms: N1_6  and  O2_10
REMARK    4  A    between atoms: C6_15  and  O5_17
REMARK    5  A    between atoms: O5_17  and  C8_18
REMARK       I    between atoms: C8_18  and  N3_20
REMARK    6  A    between atoms: N3_20  and  C9_22
ROOT
HETATM    1  C2  UNL     1      -5.031   3.669  13.170  1.00  0.00     0.189 C
HETATM    2  C3  UNL     1      -4.681   3.188  14.553  1.00  0.00     0.105 C
HETATM    3  C4  UNL     1      -4.569   1.701  14.500  1.00  0.00     0.136 C
HETATM    4  N1  UNL     1      -4.520   1.076  15.626  1.00  0.00    -0.168 N
HETATM    5  C5  UNL     1      -4.515   0.948  13.260  1.00  0.00     0.312 C
HETATM    6  O3  UNL     1      -4.489  -0.326  13.249  1.00  0.00    -0.258 OA
HETATM    7  O4  UNL     1      -4.494   1.670  12.074  1.00  0.00    -0.275 OA
HETATM    8  C6  UNL     1      -4.053   3.038  12.204  1.00  0.00     0.206 C
HETATM    9  C7  UNL     1      -4.197   3.656  10.831  1.00  0.00     0.083 C
ENDROOT
BRANCH   8  10
HETATM   10  O5  UNL     1      -2.742   2.966  12.650  1.00  0.00    -0.263 OA
BRANCH  10  11
HETATM   11  C8  UNL     1      -1.762   3.910  12.624  1.00  0.00     0.363 C
HETATM   12  O6  UNL     1      -0.617   3.526  12.275  1.00  0.00    -0.238 OA
HETATM   13  N3  UNL     1      -1.989   5.290  12.971  1.00  0.00    -0.329 N
ATOM     14  H3  UNL     1      -2.931   5.565  13.247  1.00  0.00     0.165 HD
BRANCH  13  15
HETATM   15  C9  UNL     1      -0.982   6.291  12.951  1.00  0.00     0.119 C
HETATM   16  C10 UNL     1      -1.236   7.446  13.896  1.00  0.00     0.146 C
HETATM   17  C11 UNL     1      -0.221   8.431  13.279  1.00  0.00     0.042 C
HETATM   18  O7  UNL     1      -2.453   8.001  13.605  1.00  0.00    -0.373 OA
HETATM   19  C12 UNL     1      -0.980   8.479  11.937  1.00  0.00     0.028 C
HETATM   20  C13 UNL     1      -1.042   7.023  11.613  1.00  0.00     0.014 C
HETATM   21  C15 UNL     1      -2.322   8.868  12.529  1.00  0.00     0.058 C
HETATM   22  C14 UNL     1       0.036   6.556  10.678  1.00  0.00     0.012 C
HETATM   23  C16 UNL     1      -3.444   8.775  11.548  1.00  0.00     0.046 C
HETATM   24  C17 UNL     1      -2.238  10.281  13.103  1.00  0.00     0.046 C
ENDBRANCH  13  15
ENDBRANCH  10  11
ENDBRANCH   8  10
BRANCH   1  25
HETATM   25  O1  UNL     1      -5.165   5.025  13.048  1.00  0.00    -0.385 OA
HETATM   26  C1  UNL     1      -5.380   5.645  14.276  1.00  0.00     0.202 C
ENDBRANCH   1  25
BRANCH   4  27
HETATM   27  N2  UNL     1      -4.417  -0.311  15.650  1.00  0.00    -0.319 N
ATOM     28  H22 UNL     1      -3.982  -0.758  14.842  1.00  0.00     0.179 HD
ATOM     29  H21 UNL     1      -4.767  -0.836  16.451  1.00  0.00     0.179 HD
ENDBRANCH   4  27
BRANCH   4  30
HETATM   30  O2  UNL     1      -4.567   1.719  16.836  1.00  0.00    -0.268 OA
ATOM     31  H2  UNL     1      -5.382   1.975  17.252  1.00  0.00     0.247 HD
ENDBRANCH   4  30
TORSDOF 6
ENDMDL