MODEL 1
REMARK VINA RESULT: -6.813710570      0.000      0.000
REMARK  6 active torsions:
REMARK  status: ('A' for Active; 'I' for Inactive)
REMARK    1  A    between atoms: C2_2  and  O2_4
REMARK    2  A    between atoms: O2_4  and  C3_5
REMARK    3  A    between atoms: C8_12  and  C9_13
REMARK    4  A    between atoms: C8_12  and  C11_16
REMARK    5  A    between atoms: C13_18  and  O4_19
REMARK    6  A    between atoms: C13_18  and  O5_21
ROOT
HETATM    1  C9  UNL     1      -2.237   4.133  13.619  1.00  0.00     0.147 C
HETATM    2  C10 UNL     1      -1.173   4.832  13.032  1.00  0.00     0.060 C
HETATM    3  N2  UNL     1      -0.267   5.422  12.566  1.00  0.00    -0.197 NA
ENDROOT
BRANCH   1   4
HETATM    4  C8  UNL     1      -3.671   4.407  13.170  1.00  0.00     0.092 C
HETATM    5  C3  UNL     1      -4.618   3.792  14.048  1.00  0.00     0.101 C
HETATM    6  C4  UNL     1      -5.990   4.400  14.228  1.00  0.00     0.050 C
HETATM    7  C5  UNL     1      -4.906   2.390  13.589  1.00  0.00     0.165 C
HETATM    8  N1  UNL     1      -4.652   2.441  12.165  1.00  0.00    -0.353 N
HETATM    9  C6  UNL     1      -5.362   1.620  11.203  1.00  0.00     0.152 C
HETATM   10  C7  UNL     1      -3.645   3.389  11.997  1.00  0.00     0.232 C
HETATM   11  O3  UNL     1      -2.854   3.401  11.045  1.00  0.00    -0.272 OA
BRANCH   5  12
HETATM   12  O2  UNL     1      -4.064   3.533  15.379  1.00  0.00    -0.308 OA
BRANCH  12  13
HETATM   13  C2  UNL     1      -4.265   2.402  16.083  1.00  0.00     0.255 C
HETATM   14  C1  UNL     1      -5.587   2.066  16.704  1.00  0.00     0.126 C
HETATM   15  O1  UNL     1      -3.348   1.594  16.237  1.00  0.00    -0.266 OA
ENDBRANCH  12  13
ENDBRANCH   5  12
BRANCH   4  16
HETATM   16  C11 UNL     1      -3.861   5.681  12.408  1.00  0.00     0.046 C
HETATM   17  C12 UNL     1      -4.879   5.482  11.266  1.00  0.00     0.080 C
HETATM   18  C13 UNL     1      -5.380   6.716  10.618  1.00  0.00     0.191 C
HETATM   19  C14 UNL     1      -5.754   7.791  11.548  1.00  0.00     0.110 C
HETATM   20  C15 UNL     1      -7.236   7.565  11.937  1.00  0.00     0.051 C
HETATM   21  C16 UNL     1      -5.826   9.134  10.804  1.00  0.00     0.051 C
HETATM   22  O6  UNL     1      -5.076   7.773  12.658  1.00  0.00    -0.365 OA
HETATM   23  C17 UNL     1      -3.938   7.028  12.907  1.00  0.00     0.060 C
HETATM   24  C18 UNL     1      -3.743   7.382  14.358  1.00  0.00     0.046 C
HETATM   25  C19 UNL     1      -2.803   7.892  12.259  1.00  0.00     0.046 C
BRANCH  18  26
HETATM   26  O4  UNL     1      -4.589   7.139   9.522  1.00  0.00    -0.363 OA
ATOM     27  H4  UNL     1      -4.752   8.038   9.262  1.00  0.00     0.213 HD
ENDBRANCH  18  26
BRANCH  18  28
HETATM   28  O5  UNL     1      -6.572   6.339   9.933  1.00  0.00    -0.363 OA
ATOM     29  H5  UNL     1      -7.000   7.151   9.691  1.00  0.00     0.213 HD
ENDBRANCH  18  28
ENDBRANCH   4  16
ENDBRANCH   1   4
TORSDOF 6
ENDMDL