MODEL 3
REMARK VINA RESULT: -6.464033140      2.779      5.483
REMARK  6 active torsions:
REMARK  status: ('A' for Active; 'I' for Inactive)
REMARK    1  A    between atoms: C2_2  and  C3_3
REMARK    2  A    between atoms: C3_3  and  C4_4
REMARK    3  A    between atoms: C16_20  and  O1_21
REMARK    4  A    between atoms: C18_23  and  O2_24
REMARK    5  A    between atoms: C20_27  and  C21_28
REMARK    6  A    between atoms: C21_28  and  O4_30
ROOT
HETATM    1  C3  UNL     1      -5.483   4.935  14.694  1.00  0.00     0.199 A
HETATM    2  N1  UNL     1      -5.709   3.993  15.811  1.00  0.00    -0.028 N
ATOM      3  H11 UNL     1      -6.646   3.644  16.014  1.00  0.00     0.282 HD
ATOM      4  H12 UNL     1      -5.630   4.306  16.778  1.00  0.00     0.282 HD
HETATM    5  C6  UNL     1      -4.710   3.125  15.233  1.00  0.00     0.287 A
HETATM    6  C7  UNL     1      -5.198   1.839  14.621  1.00  0.00     0.055 C
HETATM    7  C8  UNL     1      -4.262   1.411  13.464  1.00  0.00     0.011 C
HETATM    8  C9  UNL     1      -4.272   2.526  12.488  1.00  0.00     0.024 C
HETATM    9  C10 UNL     1      -3.768   3.767  13.225  1.00  0.00     0.107 C
HETATM   10  C11 UNL     1      -3.397   4.653  12.082  1.00  0.00     0.125 C
HETATM   11  C12 UNL     1      -4.490   5.012  11.218  1.00  0.00     0.067 C
HETATM   12  N2  UNL     1      -5.397   5.313  10.529  1.00  0.00    -0.197 NA
HETATM   13  C13 UNL     1      -2.496   3.689  11.292  1.00  0.00    -0.007 C
HETATM   14  C14 UNL     1      -1.192   3.540  12.013  1.00  0.00     0.014 C
HETATM   15  C15 UNL     1       0.019   3.781  11.136  1.00  0.00     0.035 C
HETATM   16  C16 UNL     1      -0.125   5.174  10.585  1.00  0.00     0.149 C
HETATM   17  C18 UNL     1      -1.306   5.213   9.673  1.00  0.00     0.147 C
HETATM   18  C19 UNL     1      -2.318   4.134   9.875  1.00  0.00     0.046 C
HETATM   19  C20 UNL     1      -3.363   2.447  11.315  1.00  0.00     0.101 C
HETATM   20  N3  UNL     1      -4.504   4.160  14.248  1.00  0.00    -0.348 N
ENDROOT
BRANCH  19  21
HETATM   21  C21 UNL     1      -2.636   1.189  11.146  1.00  0.00     0.263 C
HETATM   22  O3  UNL     1      -1.597   0.822  11.742  1.00  0.00    -0.265 OA
BRANCH  21  23
HETATM   23  O4  UNL     1      -3.094   0.224  10.224  1.00  0.00    -0.326 OA
HETATM   24  C22 UNL     1      -4.435  -0.163  10.123  1.00  0.00     0.213 C
ENDBRANCH  21  23
ENDBRANCH  19  21
BRANCH   1  25
HETATM   25  C2  UNL     1      -6.803   5.166  14.035  1.00  0.00     0.057 C
HETATM   26  C1  UNL     1      -6.867   6.558  13.427  1.00  0.00     0.009 C
ENDBRANCH   1  25
BRANCH   1  27
HETATM   27  C4  UNL     1      -4.989   6.250  15.323  1.00  0.00     0.057 C
HETATM   28  C5  UNL     1      -3.611   6.610  14.911  1.00  0.00     0.009 C
ENDBRANCH   1  27
BRANCH  17  29
HETATM   29  O2  UNL     1      -0.839   5.153   8.360  1.00  0.00    -0.393 OA
ATOM     30  H2  UNL     1      -1.325   4.475   7.907  1.00  0.00     0.210 HD
ENDBRANCH  17  29
BRANCH  16  31
HETATM   31  O1  UNL     1      -0.160   6.065  11.624  1.00  0.00    -0.388 OA
HETATM   32  C17 UNL     1      -0.771   7.245  11.216  1.00  0.00     0.202 C
ENDBRANCH  16  31
TORSDOF 6
ENDMDL