MODEL 2
REMARK VINA RESULT: -7.036615459      1.321      1.748
REMARK  10 active torsions:
REMARK  status: ('A' for Active; 'I' for Inactive)
REMARK    1  A    between atoms: C2_2  and  N1_3
REMARK    2  A    between atoms: C2_2  and  N3_27
REMARK    3  A    between atoms: N1_3  and  C3_4
REMARK    4  A    between atoms: C3_4  and  O1_5
REMARK    5  A    between atoms: C3_4  and  C4_7
REMARK    6  A    between atoms: C4_7  and  C5_8
REMARK    7  A    between atoms: C6_10  and  C7_11
REMARK    8  A    between atoms: C13_19  and  O4_20
REMARK    9  A    between atoms: C15_23  and  C16_24
REMARK   10  A    between atoms: C16_24  and  O5_25
ROOT
HETATM    1  C4  UNL     1      -4.156   4.836  11.518  1.00  0.00     0.080 A
HETATM    2  C14 UNL     1      -4.513   6.039  12.345  1.00  0.00     0.031 A
HETATM    3  C15 UNL     1      -3.130   5.869  11.708  1.00  0.00     0.031 A
ENDROOT
BRANCH   1   4
HETATM    4  C3  UNL     1      -4.855   4.842  10.197  1.00  0.00     0.204 C
BRANCH   4   5
HETATM    5  N1  UNL     1      -5.752   5.635   9.656  1.00  0.00    -0.371 NA
BRANCH   5   6
HETATM    6  C2  UNL     1      -6.566   6.360   9.162  1.00  0.00     0.152 C
HETATM    7  C1  UNL     1      -7.661   5.737   8.291  1.00  0.00     0.106 C
BRANCH   6   8
HETATM    8  N3  UNL     1      -6.606   7.802   9.323  1.00  0.00    -0.356 N
HETATM    9  C17 UNL     1      -5.525   8.558   9.901  1.00  0.00     0.151 C
HETATM   10  C18 UNL     1      -6.180   9.777  10.554  1.00  0.00     0.187 C
HETATM   11  O6  UNL     1      -6.792  10.580   9.628  1.00  0.00    -0.388 OA
HETATM   12  C19 UNL     1      -7.562   9.956   8.686  1.00  0.00     0.187 C
HETATM   13  C20 UNL     1      -7.786   8.497   8.881  1.00  0.00     0.151 C
ENDBRANCH   6   8
ENDBRANCH   5   6
ENDBRANCH   4   5
BRANCH   4  14
HETATM   14  O1  UNL     1      -4.451   3.826   9.451  1.00  0.00    -0.338 OA
ATOM     15  H1  UNL     1      -3.966   4.051   8.666  1.00  0.00     0.220 HD
ENDBRANCH   4  14
ENDBRANCH   1   4
BRANCH   1  16
HETATM   16  C5  UNL     1      -4.197   3.546  12.294  1.00  0.00     0.126 C
HETATM   17  O2  UNL     1      -4.967   2.572  11.526  1.00  0.00    -0.351 OA
HETATM   18  C6  UNL     1      -4.123   1.561  11.859  1.00  0.00     0.169 C
HETATM   19  C10 UNL     1      -4.426   1.134  13.268  1.00  0.00     0.238 C
HETATM   20  C13 UNL     1      -3.035   2.632  12.076  1.00  0.00     0.199 C
HETATM   21  O3  UNL     1      -4.752   0.011  13.637  1.00  0.00    -0.276 OA
HETATM   22  N2  UNL     1      -4.298   2.189  14.202  1.00  0.00    -0.240 NA
HETATM   23  C11 UNL     1      -4.270   3.479  14.969  1.00  0.00     0.122 A
HETATM   24  C12 UNL     1      -4.793   3.534  13.649  1.00  0.00     0.118 A
BRANCH  18  25
HETATM   25  C7  UNL     1      -3.828   0.500  10.893  1.00  0.00     0.024 C
HETATM   26  C8  UNL     1      -5.105  -0.016  10.308  1.00  0.00     0.013 C
HETATM   27  C9  UNL     1      -2.962  -0.590  11.471  1.00  0.00     0.013 C
ENDBRANCH  18  25
BRANCH  20  28
HETATM   28  O4  UNL     1      -2.294   2.761  10.938  1.00  0.00    -0.389 OA
ATOM     29  H4  UNL     1      -1.346   2.757  11.001  1.00  0.00     0.210 HD
ENDBRANCH  20  28
ENDBRANCH   1  16
BRANCH   3  30
HETATM   30  C16 UNL     1      -2.034   5.902  12.694  1.00  0.00     0.170 C
BRANCH  30  31
HETATM   31  O5  UNL     1      -0.876   5.215  12.346  1.00  0.00    -0.400 OA
ATOM     32  H5  UNL     1      -0.610   4.518  12.934  1.00  0.00     0.209 HD
ENDBRANCH  30  31
ENDBRANCH   3  30
TORSDOF 10
ENDMDL