MODEL 4
REMARK VINA RESULT: -5.747452316      2.482      3.402
REMARK  5 active torsions:
REMARK  status: ('A' for Active; 'I' for Inactive)
REMARK    1  A    between atoms: N1_2  and  C3_4
REMARK    2  A    between atoms: C3_4  and  C4_5
REMARK       I    between atoms: C4_5  and  N2_7
REMARK    3  A    between atoms: N4_14  and  C8_15
REMARK    4  A    between atoms: C8_15  and  C11_18
REMARK    5  A    between atoms: C11_18  and  C12_19
ROOT
HETATM    1  C4  UNL     1      -4.433   3.379  13.745  1.00  0.00     0.248 C
HETATM    2  O1  UNL     1      -5.390   2.995  13.025  1.00  0.00    -0.271 OA
HETATM    3  N2  UNL     1      -3.236   3.914  13.203  1.00  0.00    -0.347 N
HETATM    4  C5  UNL     1      -3.143   4.010  11.759  1.00  0.00     0.145 C
HETATM    5  C6  UNL     1      -4.312   4.822  11.181  1.00  0.00     0.144 C
HETATM    6  N3  UNL     1      -3.797   5.633  10.124  1.00  0.00    -0.341 N
ATOM      7  H3  UNL     1      -2.788   5.623   9.975  1.00  0.00     0.164 HD
HETATM    8  C7  UNL     1      -4.586   6.462   9.252  1.00  0.00     0.319 C
HETATM    9  O2  UNL     1      -4.253   6.383   8.032  1.00  0.00    -0.247 OA
HETATM   10  N4  UNL     1      -5.641   7.301   9.665  1.00  0.00    -0.324 N
HETATM   11  C13 UNL     1      -5.527   8.105  10.887  1.00  0.00     0.154 C
HETATM   12  C14 UNL     1      -4.247   8.907  10.928  1.00  0.00     0.187 C
HETATM   13  O3  UNL     1      -3.161   8.263  11.442  1.00  0.00    -0.387 OA
HETATM   14  C15 UNL     1      -2.586   8.878  12.544  1.00  0.00     0.193 C
HETATM   15  C16 UNL     1      -1.883   7.861  13.441  1.00  0.00     0.193 C
HETATM   16  O4  UNL     1      -2.509   6.622  13.351  1.00  0.00    -0.387 OA
HETATM   17  C17 UNL     1      -2.195   5.799  14.399  1.00  0.00     0.187 C
HETATM   18  C18 UNL     1      -2.174   4.337  14.056  1.00  0.00     0.152 C
ENDROOT
BRANCH   1  19
HETATM   19  C3  UNL     1      -4.573   3.263  15.209  1.00  0.00     0.373 C
BRANCH  19  20
HETATM   20  N1  UNL     1      -5.415   2.128  15.568  1.00  0.00     0.088 N
HETATM   21  C1  UNL     1      -6.508   2.523  16.402  1.00  0.00     0.310 C
HETATM   22  C2  UNL     1      -4.654   1.102  16.253  1.00  0.00     0.310 C
ENDBRANCH  19  20
ENDBRANCH   1  19
BRANCH  10  23
HETATM   23  C8  UNL     1      -6.851   7.374   8.854  1.00  0.00     0.030 C
HETATM   24  C9  UNL     1      -7.290   5.979   8.429  1.00  0.00     0.038 C
HETATM   25  C10 UNL     1      -8.031   7.819   9.757  1.00  0.00     0.038 C
BRANCH  23  26
HETATM   26  C11 UNL     1      -6.759   8.251   7.665  1.00  0.00     0.041 C
BRANCH  26  27
HETATM   27  C12 UNL     1      -7.122   9.684   7.836  1.00  0.00     0.088 C
HETATM   28  S1  UNL     1      -8.469  10.281   6.804  1.00  0.00    -0.098 SA
ENDBRANCH  26  27
ENDBRANCH  23  26
ENDBRANCH  10  23
TORSDOF 5
ENDMDL