MODEL 1
REMARK VINA RESULT: -7.650253698      0.000      0.000
REMARK  7 active torsions:
REMARK  status: ('A' for Active; 'I' for Inactive)
REMARK    1  A    between atoms: C5_5  and  C6_6
REMARK    2  A    between atoms: C6_6  and  N1_7
REMARK    3  A    between atoms: N1_7  and  N2_9
REMARK       I    between atoms: N2_9  and  C7_11
REMARK    4  A    between atoms: C7_11  and  C8_13
REMARK    5  A    between atoms: C15_21  and  O2_22
REMARK    6  A    between atoms: C15_21  and  N4_24
REMARK    7  A    between atoms: C20_31  and  O5_32
ROOT
HETATM    1  C6  UNL     1      -4.689   3.046  14.047  1.00  0.00     0.105 C
HETATM    2  C15 UNL     1      -5.501   2.931  15.228  1.00  0.00     0.165 C
ENDROOT
BRANCH   1   3
HETATM    3  C5  UNL     1      -4.187   1.927  13.270  1.00  0.00     0.181 C
HETATM    4  C4  UNL     1      -5.143   1.400  12.212  1.00  0.00     0.052 C
HETATM    5  C2  UNL     1      -4.152   0.469  11.489  1.00  0.00     0.005 C
HETATM    6  C1  UNL     1      -4.020  -0.814  12.245  1.00  0.00     0.020 C
HETATM    7  C3  UNL     1      -4.631   0.188  10.085  1.00  0.00     0.020 C
HETATM    8  C20 UNL     1      -2.917   1.317  11.534  1.00  0.00     0.265 C
HETATM    9  O4  UNL     1      -3.032   2.238  12.531  1.00  0.00    -0.349 OA
BRANCH   8  10
HETATM   10  O5  UNL     1      -1.751   0.561  11.609  1.00  0.00    -0.370 OA
ATOM     11  H5  UNL     1      -1.743  -0.024  12.357  1.00  0.00     0.212 HD
ENDBRANCH   8  10
ENDBRANCH   1   3
BRANCH   1  12
HETATM   12  N1  UNL     1      -4.465   4.254  13.647  1.00  0.00    -0.295 N
ATOM     13  H1  UNL     1      -5.233   4.635  13.096  1.00  0.00     0.187 HD
BRANCH  12  14
HETATM   14  N2  UNL     1      -3.453   5.120  13.793  1.00  0.00    -0.269 N
HETATM   15  C7  UNL     1      -3.439   6.259  14.652  1.00  0.00     0.240 C
HETATM   16  O1  UNL     1      -4.481   6.458  15.343  1.00  0.00    -0.271 OA
ATOM     17  H2  UNL     1      -2.614   4.949  13.238  1.00  0.00     0.190 HD
BRANCH  15  18
HETATM   18  C8  UNL     1      -2.325   7.202  14.786  1.00  0.00     0.082 C
HETATM   19  C9  UNL     1      -1.880   7.799  13.493  1.00  0.00     0.042 C
HETATM   20  C10 UNL     1      -1.965   9.309  13.481  1.00  0.00     0.237 C
HETATM   21  N3  UNL     1      -1.171   9.914  14.511  1.00  0.00    -0.075 N
HETATM   22  C11 UNL     1      -1.552  11.332  14.586  1.00  0.00     0.272 C
HETATM   23  C12 UNL     1       0.252   9.898  14.226  1.00  0.00     0.272 C
HETATM   24  C13 UNL     1      -1.368   9.273  15.796  1.00  0.00     0.237 C
HETATM   25  C14 UNL     1      -2.544   8.307  15.786  1.00  0.00     0.042 C
ENDBRANCH  15  18
ENDBRANCH  12  14
ENDBRANCH   1  12
BRANCH   2  26
HETATM   26  O2  UNL     1      -5.943   4.103  15.644  1.00  0.00    -0.345 OA
ATOM     27  H2  UNL     1      -6.664   4.016  16.257  1.00  0.00     0.219 HD
ENDBRANCH   2  26
BRANCH   2  28
HETATM   28  N4  UNL     1      -5.915   1.886  16.019  1.00  0.00    -0.356 N
HETATM   29  C16 UNL     1      -5.329   0.597  16.240  1.00  0.00     0.151 C
HETATM   30  C17 UNL     1      -5.736   0.212  17.680  1.00  0.00     0.187 C
HETATM   31  O3  UNL     1      -5.727   1.291  18.521  1.00  0.00    -0.388 OA
HETATM   32  C18 UNL     1      -6.760   2.192  18.251  1.00  0.00     0.187 C
HETATM   33  C19 UNL     1      -7.191   2.061  16.787  1.00  0.00     0.151 C
ENDBRANCH   2  28
TORSDOF 7
ENDMDL