MODEL 3
REMARK VINA RESULT: -7.268907519      3.548      9.055
REMARK  7 active torsions:
REMARK  status: ('A' for Active; 'I' for Inactive)
REMARK    1  A    between atoms: N1_1  and  C1_5
REMARK    2  A    between atoms: C4_8  and  C5_9
REMARK    3  A    between atoms: C5_9  and  O1_10
REMARK    4  A    between atoms: C5_9  and  N2_12
REMARK    5  A    between atoms: N3_15  and  C8_16
REMARK    6  A    between atoms: C8_16  and  C9_17
REMARK       I    between atoms: C9_17  and  N4_19
REMARK    7  A    between atoms: N4_19  and  C10_21
ROOT
HETATM    1  N2  UNL     1      -7.878   8.987   7.711  1.00  0.00    -0.362 N
HETATM    2  C6  UNL     1      -8.418   8.118   8.706  1.00  0.00     0.154 C
HETATM    3  C7  UNL     1      -7.778   6.755   8.470  1.00  0.00     0.293 C
HETATM    4  N3  UNL     1      -6.377   6.853   8.883  1.00  0.00     0.100 N
HETATM    5  C18 UNL     1      -5.718   7.876   8.133  1.00  0.00     0.293 C
HETATM    6  C19 UNL     1      -6.573   8.643   7.183  1.00  0.00     0.154 C
ENDROOT
BRANCH   4   7
HETATM    7  C8  UNL     1      -5.732   5.551   8.710  1.00  0.00     0.374 C
BRANCH   7   8
HETATM    8  C9  UNL     1      -4.899   5.205   9.886  1.00  0.00     0.246 C
HETATM    9  O2  UNL     1      -4.594   6.097  10.736  1.00  0.00    -0.272 OA
HETATM   10  N4  UNL     1      -4.440   3.872  10.058  1.00  0.00    -0.353 N
ATOM     11  H4  UNL     1      -4.680   3.150   9.380  1.00  0.00     0.163 HD
BRANCH  10  12
HETATM   12  C10 UNL     1      -3.636   3.558  11.201  1.00  0.00     0.107 C
HETATM   13  C11 UNL     1      -2.200   3.213  10.831  1.00  0.00     0.015 A
HETATM   14  C12 UNL     1      -1.288   3.055  11.984  1.00  0.00     0.013 A
HETATM   15  C13 UNL     1      -2.257   1.983  11.763  1.00  0.00     0.012 A
HETATM   16  C14 UNL     1      -3.749   2.215  11.814  1.00  0.00     0.074 C
HETATM   17  C15 UNL     1      -4.316   2.150  13.213  1.00  0.00     0.049 C
HETATM   18  C17 UNL     1      -4.483   1.164  11.118  1.00  0.00     0.270 C
HETATM   19  C16 UNL     1      -4.515   0.647  13.360  1.00  0.00     0.180 C
HETATM   20  O3  UNL     1      -5.106   0.363  12.089  1.00  0.00    -0.321 OA
HETATM   21  O4  UNL     1      -4.631   0.887   9.892  1.00  0.00    -0.264 OA
ENDBRANCH  10  12
ENDBRANCH   7   8
ENDBRANCH   4   7
BRANCH   1  22
HETATM   22  C5  UNL     1      -8.540  10.127   7.236  1.00  0.00     0.117 C
BRANCH  22  23
HETATM   23  C4  UNL     1      -8.975  11.298   8.007  1.00  0.00     0.060 C
HETATM   24  C3  UNL     1      -9.688  12.269   7.097  1.00  0.00     0.015 C
HETATM   25  C2  UNL     1     -10.408  13.314   7.976  1.00  0.00     0.033 C
HETATM   26  C1  UNL     1      -9.460  13.915   8.968  1.00  0.00     0.183 C
HETATM   27  C21 UNL     1      -8.019  13.468   8.779  1.00  0.00     0.033 C
HETATM   28  C20 UNL     1      -7.932  11.951   8.849  1.00  0.00     0.015 C
BRANCH  26  29
HETATM   29  N1  UNL     1      -9.855  13.563  10.319  1.00  0.00    -0.075 N
ATOM     30  H13 UNL     1     -10.448  14.278  10.740  1.00  0.00     0.274 HD
ATOM     31  H12 UNL     1     -10.519  12.789  10.332  1.00  0.00     0.274 HD
ATOM     32  H11 UNL     1      -9.031  13.367  10.887  1.00  0.00     0.274 HD
ENDBRANCH  26  29
ENDBRANCH  22  23
BRANCH  22  33
HETATM   33  O1  UNL     1      -8.791  10.132   5.954  1.00  0.00    -0.349 OA
ATOM     34  H1  UNL     1      -8.774   9.295   5.507  1.00  0.00     0.219 HD
ENDBRANCH  22  33
ENDBRANCH   1  22
TORSDOF 7
ENDMDL