MODEL 3
REMARK VINA RESULT: -6.381664809      2.401      3.149
REMARK  8 active torsions:
REMARK  status: ('A' for Active; 'I' for Inactive)
REMARK    1  A    between atoms: C2_2  and  N1_3
REMARK    2  A    between atoms: C4_5  and  N2_6
REMARK    3  A    between atoms: N2_6  and  C5_8
REMARK    4  A    between atoms: C5_8  and  N3_10
REMARK    5  A    between atoms: C10_16  and  O2_17
REMARK    6  A    between atoms: C10_16  and  C11_19
REMARK    7  A    between atoms: C12_20  and  C13_21
REMARK    8  A    between atoms: C13_21  and  S2_22
ROOT
HETATM    1  N1  UNL     1      -1.563   6.799  10.584  1.00  0.00    -0.368 N
HETATM    2  C3  UNL     1      -2.731   6.049  10.989  1.00  0.00     0.153 C
HETATM    3  C4  UNL     1      -2.314   5.059  12.053  1.00  0.00     0.150 C
HETATM    4  C10 UNL     1      -1.202   4.159  11.641  1.00  0.00     0.165 C
HETATM    5  C15 UNL     1      -0.555   4.492  10.311  1.00  0.00     0.208 C
HETATM    6  C16 UNL     1       0.819   3.996  10.253  1.00  0.00     0.075 C
HETATM    7  N4  UNL     1       1.913   3.593  10.190  1.00  0.00    -0.196 NA
HETATM    8  C17 UNL     1      -0.504   5.951  10.084  1.00  0.00     0.095 C
HETATM    9  N5  UNL     1       0.472   6.459   9.444  1.00  0.00    -0.388 N
ATOM     10  H51 UNL     1       1.219   5.860   9.091  1.00  0.00     0.157 HD
ATOM     11  H52 UNL     1       0.507   7.466   9.287  1.00  0.00     0.157 HD
ENDROOT
BRANCH   4  12
HETATM   12  O2  UNL     1      -0.162   4.318  12.579  1.00  0.00    -0.373 OA
ATOM     13  H2  UNL     1       0.472   3.627  12.421  1.00  0.00     0.212 HD
ENDBRANCH   4  12
BRANCH   4  14
HETATM   14  C11 UNL     1      -1.604   2.756  11.530  1.00  0.00    -0.063 C
HETATM   15  C12 UNL     1      -1.953   1.583  11.459  1.00  0.00    -0.091 C
BRANCH  15  16
HETATM   16  C13 UNL     1      -2.395   0.189  11.365  1.00  0.00     0.202 C
BRANCH  16  17
HETATM   17  S2  UNL     1      -4.155   0.207  11.195  1.00  0.00     0.022 S
HETATM   18  C14 UNL     1      -4.906   1.544  12.052  1.00  0.00     0.128 C
HETATM   19  O3  UNL     1      -4.627   0.155   9.579  1.00  0.00    -0.258 OA
ENDBRANCH  16  17
ENDBRANCH  15  16
ENDBRANCH   4  14
BRANCH   3  20
HETATM   20  N2  UNL     1      -2.098   5.779  13.268  1.00  0.00    -0.357 N
ATOM     21  H2  UNL     1      -1.134   5.942  13.559  1.00  0.00     0.162 HD
BRANCH  20  22
HETATM   22  C5  UNL     1      -3.128   6.283  14.093  1.00  0.00     0.170 C
HETATM   23  S1  UNL     1      -2.905   7.571  15.061  1.00  0.00    -0.041 SA
BRANCH  22  24
HETATM   24  N3  UNL     1      -4.415   5.659  14.143  1.00  0.00    -0.354 N
HETATM   25  C6  UNL     1      -4.553   4.444  14.917  1.00  0.00     0.151 C
HETATM   26  C7  UNL     1      -5.953   3.941  15.024  1.00  0.00     0.187 C
HETATM   27  O1  UNL     1      -6.803   4.349  14.027  1.00  0.00    -0.388 OA
HETATM   28  C8  UNL     1      -6.850   5.743  14.061  1.00  0.00     0.187 C
HETATM   29  C9  UNL     1      -5.548   6.217  13.442  1.00  0.00     0.151 C
ENDBRANCH  22  24
ENDBRANCH  20  22
ENDBRANCH   3  20
BRANCH   1  30
HETATM   30  C2  UNL     1      -1.422   8.222  10.645  1.00  0.00     0.119 C
HETATM   31  C1  UNL     1      -2.571   8.891  11.385  1.00  0.00     0.026 C
ENDBRANCH   1  30
TORSDOF 8
ENDMDL