MODEL 1
REMARK VINA RESULT: -7.229753113      0.000      0.000
REMARK  4 active torsions:
REMARK  status: ('A' for Active; 'I' for Inactive)
REMARK       I    between atoms: N2_7  and  C5_8
REMARK    1  A    between atoms: C5_8  and  C6_10
REMARK    2  A    between atoms: C6_10  and  N3_11
REMARK       I    between atoms: C7_13  and  N4_14
REMARK       I    between atoms: C7_13  and  N6_18
REMARK    3  A    between atoms: N6_18  and  C9_20
REMARK    4  A    between atoms: C12_23  and  O3_24
ROOT
HETATM    1  N3  UNL     1      -2.113   6.025  11.689  1.00  0.00    -0.217 N
ATOM      2  H3  UNL     1      -2.089   6.016  10.670  1.00  0.00     0.178 HD
HETATM    3  C7  UNL     1      -2.866   6.865  12.299  1.00  0.00     0.683 C
HETATM    4  N4  UNL     1      -2.983   6.973  13.710  1.00  0.00    -0.126 N
ATOM      5  H4  UNL     1      -3.471   6.231  14.213  1.00  0.00     0.197 HD
HETATM    6  C8  UNL     1      -2.468   8.036  14.445  1.00  0.00     0.196 C
HETATM    7  N5  UNL     1      -2.043   8.915  15.051  1.00  0.00    -0.171 NA
HETATM    8  N6  UNL     1      -3.643   7.755  11.508  1.00  0.00    -0.218 N
ATOM      9  H6  UNL     1      -3.297   8.684  11.266  1.00  0.00     0.178 HD
ENDROOT
BRANCH   1  10
HETATM   10  C6  UNL     1      -1.313   5.109  12.415  1.00  0.00     0.240 C
BRANCH  10  11
HETATM   11  C5  UNL     1      -1.366   3.703  12.042  1.00  0.00     0.238 C
HETATM   12  N2  UNL     1      -2.339   2.738  12.257  1.00  0.00    -0.349 N
HETATM   13  C4  UNL     1      -3.529   3.126  12.965  1.00  0.00     0.128 C
HETATM   14  C18 UNL     1      -2.065   1.406  11.741  1.00  0.00     0.162 C
HETATM   15  C3  UNL     1      -4.470   1.913  13.142  1.00  0.00     0.056 C
HETATM   16  C2  UNL     1      -5.067   1.538  11.804  1.00  0.00     0.313 C
HETATM   17  N1  UNL     1      -4.275   0.434  11.285  1.00  0.00     0.011 N
HETATM   18  C1  UNL     1      -5.060  -0.208  10.258  1.00  0.00     0.356 C
HETATM   19  O1  UNL     1      -3.989  -0.443  12.277  1.00  0.00    -0.065 OA
HETATM   20  C19 UNL     1      -3.076   0.992  10.697  1.00  0.00     0.331 C
HETATM   21  O2  UNL     1      -0.315   3.291  11.398  1.00  0.00    -0.272 OA
ENDBRANCH  10  11
ENDBRANCH   1  10
BRANCH   8  22
HETATM   22  C9  UNL     1      -4.931   7.304  11.062  1.00  0.00     0.132 C
HETATM   23  C10 UNL     1      -6.053   8.237  11.414  1.00  0.00     0.014 C
HETATM   24  C11 UNL     1      -5.851   9.606  10.808  1.00  0.00     0.041 C
HETATM   25  C17 UNL     1      -7.353   7.610  10.965  1.00  0.00     0.014 C
HETATM   26  C12 UNL     1      -6.767   9.686   9.595  1.00  0.00     0.148 C
HETATM   27  C13 UNL     1      -6.538   8.417   8.800  1.00  0.00     0.155 C
HETATM   28  O4  UNL     1      -5.200   8.130   8.819  1.00  0.00    -0.376 OA
HETATM   29  C16 UNL     1      -7.275   7.295   9.484  1.00  0.00     0.020 C
HETATM   30  C14 UNL     1      -4.976   7.016   9.585  1.00  0.00     0.146 C
HETATM   31  C15 UNL     1      -6.237   6.169   9.353  1.00  0.00     0.041 C
BRANCH  26  32
HETATM   32  O3  UNL     1      -6.452  10.779   8.786  1.00  0.00    -0.393 OA
ATOM     33  H3  UNL     1      -7.215  11.099   8.319  1.00  0.00     0.210 HD
ENDBRANCH  26  32
ENDBRANCH   8  22
TORSDOF 4
ENDMDL