MODEL 1
REMARK VINA RESULT: -8.286021818      0.000      0.000
REMARK  7 active torsions:
REMARK  status: ('A' for Active; 'I' for Inactive)
REMARK    1  A    between atoms: N1_1  and  C1_5
REMARK    2  A    between atoms: C1_5  and  C2_6
REMARK    3  A    between atoms: C2_6  and  O1_7
REMARK    4  A    between atoms: C4_13  and  C5_14
REMARK       I    between atoms: C5_14  and  N4_16
REMARK    5  A    between atoms: C13_25  and  O5_26
REMARK    6  A    between atoms: C13_25  and  C14_28
REMARK    7  A    between atoms: C14_28  and  C15_29
ROOT
HETATM    1  C2  UNL     1      -4.573   0.091  10.706  1.00  0.00     0.148 C
HETATM    2  N2  UNL     1      -4.051   1.194  11.312  1.00  0.00    -0.272 N
HETATM    3  C3  UNL     1      -2.746   1.585  11.857  1.00  0.00     0.330 C
HETATM    4  O2  UNL     1      -1.673   0.962  11.709  1.00  0.00    -0.246 OA
HETATM    5  N3  UNL     1      -2.987   2.800  12.559  1.00  0.00    -0.286 N
HETATM    6  C4  UNL     1      -2.353   4.060  12.512  1.00  0.00     0.184 C
HETATM    7  C10 UNL     1      -3.356   4.681  11.468  1.00  0.00     0.037 C
HETATM    8  C11 UNL     1      -4.276   3.661  10.916  1.00  0.00     0.033 C
HETATM    9  C12 UNL     1      -4.801   2.494  11.616  1.00  0.00     0.152 C
HETATM   10  C13 UNL     1      -4.322   2.515  13.103  1.00  0.00     0.159 C
ENDROOT
BRANCH  10  11
HETATM   11  O5  UNL     1      -4.337   1.240  13.616  1.00  0.00    -0.368 OA
ATOM     12  H5  UNL     1      -5.201   1.055  13.966  1.00  0.00     0.212 HD
ENDBRANCH  10  11
BRANCH  10  13
HETATM   13  C14 UNL     1      -4.977   3.438  13.972  1.00  0.00     0.068 C
BRANCH  13  14
HETATM   14  C15 UNL     1      -5.747   2.787  15.097  1.00  0.00    -0.010 C
HETATM   15  C16 UNL     1      -6.743   3.577  15.820  1.00  0.00     0.005 C
HETATM   16  C17 UNL     1      -6.943   2.900  17.191  1.00  0.00     0.000 C
HETATM   17  C18 UNL     1      -6.736   1.418  17.086  1.00  0.00     0.000 C
HETATM   18  C19 UNL     1      -5.235   1.186  16.949  1.00  0.00     0.000 C
HETATM   19  C20 UNL     1      -4.687   2.350  16.129  1.00  0.00     0.005 C
ENDBRANCH  13  14
ENDBRANCH  10  13
BRANCH   6  20
HETATM   20  C5  UNL     1      -2.070   4.861  13.634  1.00  0.00     0.243 C
HETATM   21  O3  UNL     1      -1.888   4.271  14.775  1.00  0.00    -0.271 OA
HETATM   22  N4  UNL     1      -1.967   6.261  13.644  1.00  0.00    -0.346 N
HETATM   23  C6  UNL     1      -1.630   6.953  14.867  1.00  0.00     0.152 C
HETATM   24  C9  UNL     1      -2.215   7.039  12.465  1.00  0.00     0.152 C
HETATM   25  C7  UNL     1      -2.579   8.122  15.011  1.00  0.00     0.187 C
HETATM   26  O4  UNL     1      -2.285   8.971  13.935  1.00  0.00    -0.388 OA
HETATM   27  C8  UNL     1      -2.706   8.439  12.733  1.00  0.00     0.187 C
ENDBRANCH   6  20
BRANCH   1  28
HETATM   28  C1  UNL     1      -3.966  -1.189  10.388  1.00  0.00     0.313 C
BRANCH  28  29
HETATM   29  N1  UNL     1      -3.297  -1.922  11.394  1.00  0.00    -0.072 N
ATOM     30  H13 UNL     1      -2.382  -1.498  11.548  1.00  0.00     0.274 HD
ATOM     31  H12 UNL     1      -3.758  -1.741  12.285  1.00  0.00     0.274 HD
ATOM     32  H11 UNL     1      -3.174  -2.930  11.292  1.00  0.00     0.274 HD
ENDBRANCH  28  29
ENDBRANCH   1  28
BRANCH   1  33
HETATM   33  O1  UNL     1      -5.826   0.180  10.345  1.00  0.00    -0.348 OA
ATOM     34  H1  UNL     1      -6.277   0.929  10.717  1.00  0.00     0.219 HD
ENDBRANCH   1  33
TORSDOF 7
ENDMDL