MODEL 4
REMARK VINA RESULT: -7.206729962      2.790      4.007
REMARK  5 active torsions:
REMARK  status: ('A' for Active; 'I' for Inactive)
REMARK    1  A    between atoms: C3_5  and  C4_7
REMARK    2  A    between atoms: C10_13  and  N3_14
REMARK       I    between atoms: N3_14  and  C11_16
REMARK    3  A    between atoms: C11_16  and  C12_18
REMARK       I    between atoms: N4_23  and  C16_24
REMARK    4  A    between atoms: C16_24  and  O4_26
REMARK    5  A    between atoms: O4_26  and  C17_27
ROOT
HETATM    1  C1  UNL     1      -1.692   8.804  16.096  1.00  0.00     0.037 C
HETATM    2  C2  UNL     1      -1.988   8.128  15.138  1.00  0.00     0.000 C
HETATM    3  N1  UNL     1      -2.316   7.337  14.056  1.00  0.00    -0.307 N
ATOM      4  H1  UNL     1      -1.743   7.361  13.214  1.00  0.00     0.177 HD
HETATM    5  C3  UNL     1      -3.344   6.571  14.111  1.00  0.00     0.111 C
HETATM    6  N2  UNL     1      -4.124   6.556  15.294  1.00  0.00    -0.086 NA
ENDROOT
BRANCH   5   7
HETATM    7  C4  UNL     1      -3.734   5.693  12.951  1.00  0.00     0.035 C
HETATM    8  C5  UNL     1      -2.520   5.504  12.103  1.00  0.00     0.024 C
HETATM    9  C6  UNL     1      -2.798   4.996  10.734  1.00  0.00    -0.003 C
HETATM   10  C7  UNL     1      -2.646   3.467  10.776  1.00  0.00     0.031 C
HETATM   11  C9  UNL     1      -4.240   4.762  10.428  1.00  0.00     0.035 C
HETATM   12  C8  UNL     1      -4.147   3.451  11.099  1.00  0.00     0.096 C
HETATM   13  N4  UNL     1      -4.388   3.433  12.518  1.00  0.00    -0.322 N
HETATM   14  C16 UNL     1      -4.803   2.159  12.997  1.00  0.00     0.363 C
HETATM   15  C20 UNL     1      -4.294   4.436  13.534  1.00  0.00     0.145 C
HETATM   16  O3  UNL     1      -5.044   2.016  14.208  1.00  0.00    -0.238 OA
HETATM   17  C10 UNL     1      -5.214   5.736  10.932  1.00  0.00     0.092 C
HETATM   18  C15 UNL     1      -4.855   6.401  12.230  1.00  0.00     0.044 C
BRANCH  14  19
HETATM   19  O4  UNL     1      -4.951   1.062  12.154  1.00  0.00    -0.294 OA
BRANCH  19  20
HETATM   20  C17 UNL     1      -4.198  -0.106  12.412  1.00  0.00     0.181 C
HETATM   21  C18 UNL     1      -4.629  -1.243  11.516  1.00  0.00     0.202 C
HETATM   22  O5  UNL     1      -3.277  -1.563  11.354  1.00  0.00    -0.386 OA
HETATM   23  C19 UNL     1      -2.961  -0.242  11.554  1.00  0.00     0.202 C
ENDBRANCH  19  20
ENDBRANCH  14  19
BRANCH  17  24
HETATM   24  N3  UNL     1      -5.389   6.787   9.945  1.00  0.00    -0.356 N
HETATM   25  C11 UNL     1      -6.416   6.772   8.973  1.00  0.00     0.226 C
HETATM   26  O1  UNL     1      -7.213   5.800   8.968  1.00  0.00    -0.273 OA
ATOM     27  H3  UNL     1      -4.740   7.573   9.954  1.00  0.00     0.162 HD
BRANCH  25  28
HETATM   28  C12 UNL     1      -6.566   7.848   7.992  1.00  0.00     0.125 C
HETATM   29  C13 UNL     1      -7.882   8.591   8.028  1.00  0.00     0.183 C
HETATM   30  O2  UNL     1      -7.181   9.770   7.764  1.00  0.00    -0.389 OA
HETATM   31  C14 UNL     1      -6.086   9.197   8.443  1.00  0.00     0.183 C
ENDBRANCH  25  28
ENDBRANCH  17  24
ENDBRANCH   5   7
TORSDOF 5
ENDMDL