MODEL 2
REMARK VINA RESULT: -7.091738042      0.533      1.081
REMARK  6 active torsions:
REMARK  status: ('A' for Active; 'I' for Inactive)
REMARK    1  A    between atoms: C2_2  and  C3_3
REMARK    2  A    between atoms: C3_3  and  N1_4
REMARK    3  A    between atoms: C6_7  and  N2_8
REMARK    4  A    between atoms: N3_11  and  C9_12
REMARK    5  A    between atoms: C9_12  and  C10_13
REMARK    6  A    between atoms: C10_13  and  O1_14
ROOT
HETATM    1  N1  UNL     1      -5.082   6.300  10.779  1.00  0.00    -0.183 N
HETATM    2  C4  UNL     1      -4.663   5.892  11.995  1.00  0.00     0.040 A
HETATM    3  C5  UNL     1      -4.217   4.586  12.149  1.00  0.00     0.010 A
HETATM    4  C6  UNL     1      -4.187   3.693  11.101  1.00  0.00     0.127 A
HETATM    5  N4  UNL     1      -4.616   4.164   9.924  1.00  0.00    -0.176 N
ATOM      6  H4  UNL     1      -4.609   3.533   9.122  1.00  0.00     0.186 HD
HETATM    7  C13 UNL     1      -5.063   5.443   9.733  1.00  0.00     0.680 A
HETATM    8  N5  UNL     1      -5.444   5.794   8.562  1.00  0.00    -0.234 N
ATOM      9  H51 UNL     1      -5.429   5.147   7.774  1.00  0.00     0.174 HD
ATOM     10  H52 UNL     1      -5.777   6.747   8.420  1.00  0.00     0.174 HD
HETATM   11  C14 UNL     1      -3.814   4.191  13.515  1.00  0.00     0.045 C
HETATM   12  C15 UNL     1      -2.785   5.197  13.968  1.00  0.00     0.014 C
HETATM   13  C16 UNL     1      -3.395   6.556  14.058  1.00  0.00    -0.042 C
HETATM   14  C17 UNL     1      -2.352   7.555  13.611  1.00  0.00     0.015 C
HETATM   15  C18 UNL     1      -3.836   6.851  15.498  1.00  0.00     0.015 C
HETATM   16  C19 UNL     1      -4.621   6.753  13.191  1.00  0.00     0.067 C
ENDROOT
BRANCH   4  17
HETATM   17  N2  UNL     1      -3.703   2.357  11.248  1.00  0.00    -0.363 N
HETATM   18  C7  UNL     1      -2.396   2.024  10.769  1.00  0.00     0.154 C
HETATM   19  C8  UNL     1      -2.000   0.753  11.537  1.00  0.00     0.292 C
HETATM   20  N3  UNL     1      -2.935  -0.247  11.091  1.00  0.00     0.093 N
HETATM   21  C11 UNL     1      -4.214  -0.033  11.665  1.00  0.00     0.292 C
HETATM   22  C12 UNL     1      -4.554   1.394  11.887  1.00  0.00     0.154 C
BRANCH  20  23
HETATM   23  C9  UNL     1      -2.438  -1.582  11.202  1.00  0.00     0.298 C
BRANCH  23  24
HETATM   24  C10 UNL     1      -3.586  -2.501  11.555  1.00  0.00     0.194 C
BRANCH  24  25
HETATM   25  O1  UNL     1      -3.098  -3.804  11.545  1.00  0.00    -0.399 OA
ATOM     26  H1  UNL     1      -2.467  -3.878  12.252  1.00  0.00     0.209 HD
ENDBRANCH  24  25
ENDBRANCH  23  24
ENDBRANCH  20  23
ENDBRANCH   4  17
BRANCH   1  27
HETATM   27  C3  UNL     1      -5.566   7.664  10.667  1.00  0.00     0.174 C
BRANCH  27  28
HETATM   28  C2  UNL     1      -7.031   7.787  10.750  1.00  0.00    -0.016 C
HETATM   29  C1  UNL     1      -7.708   8.068  11.846  1.00  0.00     0.008 C
ENDBRANCH  27  28
ENDBRANCH   1  27
TORSDOF 6
ENDMDL