MODEL 3
REMARK VINA RESULT: -6.387304680      0.993      1.004
REMARK  9 active torsions:
REMARK  status: ('A' for Active; 'I' for Inactive)
REMARK    1  A    between atoms: C2_2  and  C4_4
REMARK    2  A    between atoms: C4_4  and  N2_9
REMARK    3  A    between atoms: N1_5  and  O1_7
REMARK    4  A    between atoms: N3_12  and  C7_13
REMARK    5  A    between atoms: C7_13  and  C8_14
REMARK    6  A    between atoms: N5_18  and  C10_19
REMARK    7  A    between atoms: C10_19  and  C11_20
REMARK    8  A    between atoms: C16_25  and  C17_26
REMARK    9  A    between atoms: C17_26  and  O2_27
ROOT
HETATM    1  N2  UNL     1      -5.091   6.743   9.946  1.00  0.00    -0.359 N
HETATM    2  C5  UNL     1      -5.646   7.497  11.074  1.00  0.00     0.155 C
HETATM    3  C6  UNL     1      -5.626   6.630  12.338  1.00  0.00     0.292 C
HETATM    4  N3  UNL     1      -4.466   5.803  12.395  1.00  0.00     0.096 N
HETATM    5  C15 UNL     1      -3.401   6.336  11.585  1.00  0.00     0.300 C
HETATM    6  C16 UNL     1      -3.792   6.147  10.132  1.00  0.00     0.137 C
ENDROOT
BRANCH   4   7
HETATM    7  C7  UNL     1      -4.042   5.404  13.702  1.00  0.00     0.314 C
BRANCH   7   8
HETATM    8  C8  UNL     1      -4.110   3.972  13.981  1.00  0.00     0.004 A
HETATM    9  C9  UNL     1      -3.792   2.956  13.115  1.00  0.00     0.117 A
HETATM   10  N4  UNL     1      -3.992   1.789  13.753  1.00  0.00    -0.309 N
HETATM   11  N5  UNL     1      -4.421   2.038  14.979  1.00  0.00    -0.303 N
ATOM     12  H4  UNL     1      -3.838   0.862  13.356  1.00  0.00     0.186 HD
HETATM   13  C14 UNL     1      -4.507   3.389  15.157  1.00  0.00     0.120 A
BRANCH  11  14
HETATM   14  C10 UNL     1      -4.734   0.995  15.934  1.00  0.00     0.152 C
BRANCH  14  15
HETATM   15  C11 UNL     1      -5.538   1.519  17.102  1.00  0.00     0.005 A
HETATM   16  C12 UNL     1      -6.235   0.442  17.916  1.00  0.00     0.007 A
HETATM   17  C13 UNL     1      -7.016   1.447  17.101  1.00  0.00     0.007 A
ENDBRANCH  14  15
ENDBRANCH  11  14
ENDBRANCH   7   8
ENDBRANCH   4   7
BRANCH   6  18
HETATM   18  C17 UNL     1      -3.904   4.653   9.892  1.00  0.00     0.191 C
BRANCH  18  19
HETATM   19  O2  UNL     1      -2.749   4.233   9.272  1.00  0.00    -0.399 OA
ATOM     20  H2  UNL     1      -2.794   4.494   8.359  1.00  0.00     0.209 HD
ENDBRANCH  18  19
ENDBRANCH   6  18
BRANCH   1  21
HETATM   21  C4  UNL     1      -5.836   6.628   8.732  1.00  0.00     0.103 C
HETATM   22  N1  UNL     1      -6.943   5.975   8.805  1.00  0.00    -0.257 N
ATOM     23  H1  UNL     1      -7.240   5.577   9.695  1.00  0.00     0.195 HD
BRANCH  21  24
HETATM   24  C2  UNL     1      -5.407   7.200   7.457  1.00  0.00     0.047 C
HETATM   25  C1  UNL     1      -4.670   8.511   7.621  1.00  0.00     0.017 C
HETATM   26  C3  UNL     1      -4.501   6.281   6.668  1.00  0.00     0.017 C
ENDBRANCH  21  24
BRANCH  22  27
HETATM   27  O1  UNL     1      -7.717   5.816   7.698  1.00  0.00    -0.288 OA
ATOM     28  H1  UNL     1      -8.307   5.075   7.631  1.00  0.00     0.244 HD
ENDBRANCH  22  27
ENDBRANCH   1  21
TORSDOF 9
ENDMDL