MODEL 4
REMARK VINA RESULT: -6.576162727      1.902      3.060
REMARK  7 active torsions:
REMARK  status: ('A' for Active; 'I' for Inactive)
REMARK    1  A    between atoms: O1_2  and  C2_3
REMARK    2  A    between atoms: C2_3  and  C3_4
REMARK    3  A    between atoms: C5_6  and  C6_7
REMARK    4  A    between atoms: C6_7  and  C7_9
REMARK    5  A    between atoms: C7_9  and  N1_10
REMARK    6  A    between atoms: C12_15  and  O3_16
REMARK    7  A    between atoms: C17_22  and  O4_23
ROOT
HETATM    1  C3  UNL     1      -4.891   2.238  12.848  1.00  0.00     0.003 C
HETATM    2  C4  UNL     1      -4.433   3.446  12.648  1.00  0.00    -0.063 C
HETATM    3  C5  UNL     1      -4.820   4.615  13.490  1.00  0.00     0.119 C
HETATM    4  C12 UNL     1      -3.594   5.097  14.218  1.00  0.00     0.134 C
HETATM    5  C13 UNL     1      -2.337   4.472  13.686  1.00  0.00     0.042 C
HETATM    6  C14 UNL     1      -2.225   4.426  12.201  1.00  0.00    -0.032 C
HETATM    7  C15 UNL     1      -0.961   3.618  11.895  1.00  0.00     0.016 C
HETATM    8  C16 UNL     1      -2.099   5.732  11.509  1.00  0.00     0.041 C
HETATM    9  C17 UNL     1      -2.670   5.414  10.126  1.00  0.00     0.119 C
HETATM   10  C18 UNL     1      -3.965   4.714  10.528  1.00  0.00     0.041 C
HETATM   11  C19 UNL     1      -3.460   3.749  11.585  1.00  0.00     0.026 C
ENDROOT
BRANCH   3  12
HETATM   12  C6  UNL     1      -5.928   4.427  14.399  1.00  0.00     0.175 C
HETATM   13  O2  UNL     1      -7.053   4.494  13.920  1.00  0.00    -0.291 OA
BRANCH  12  14
HETATM   14  C7  UNL     1      -5.887   4.161  15.858  1.00  0.00     0.136 C
BRANCH  14  15
HETATM   15  N1  UNL     1      -6.066   2.815  16.216  1.00  0.00    -0.387 N
HETATM   16  C8  UNL     1      -7.058   2.460  17.154  1.00  0.00     0.122 C
HETATM   17  C9  UNL     1      -6.892   0.930  17.206  1.00  0.00     0.021 C
HETATM   18  C10 UNL     1      -5.531   0.637  16.657  1.00  0.00     0.021 C
HETATM   19  C11 UNL     1      -4.915   2.003  16.423  1.00  0.00     0.122 C
ENDBRANCH  14  15
ENDBRANCH  12  14
ENDBRANCH   3  12
BRANCH   4  20
HETATM   20  O3  UNL     1      -3.525   6.496  14.259  1.00  0.00    -0.394 OA
ATOM     21  H3  UNL     1      -4.051   6.857  14.963  1.00  0.00     0.210 HD
ENDBRANCH   4  20
BRANCH   1  22
HETATM   22  C2  UNL     1      -4.527   1.078  12.031  1.00  0.00     0.194 C
BRANCH  22  23
HETATM   23  O1  UNL     1      -4.587  -0.126  12.773  1.00  0.00    -0.392 OA
HETATM   24  C1  UNL     1      -4.230  -1.127  11.842  1.00  0.00     0.201 C
ENDBRANCH  22  23
ENDBRANCH   1  22
BRANCH   9  25
HETATM   25  O4  UNL     1      -2.918   6.616   9.472  1.00  0.00    -0.396 OA
ATOM     26  H4  UNL     1      -2.097   6.933   9.114  1.00  0.00     0.210 HD
ENDBRANCH   9  25
TORSDOF 7
ENDMDL