MODEL 5
REMARK VINA RESULT: -6.782672624      1.902      7.361
REMARK  6 active torsions:
REMARK  status: ('A' for Active; 'I' for Inactive)
REMARK    1  A    between atoms: C2_2  and  C3_3
REMARK    2  A    between atoms: C3_3  and  N1_4
REMARK    3  A    between atoms: N1_4  and  C4_6
REMARK    4  A    between atoms: C5_9  and  C6_10
REMARK    5  A    between atoms: C8_14  and  C9_15
REMARK    6  A    between atoms: C11_21  and  N6_22
ROOT
HETATM    1  C4  UNL     1      -3.781   5.470  12.909  1.00  0.00     0.694 A
HETATM    2  N2  UNL     1      -2.540   5.970  12.805  1.00  0.00    -0.173 N
ATOM      3  H2  UNL     1      -2.376   6.957  13.005  1.00  0.00     0.186 HD
HETATM    4  C5  UNL     1      -1.514   5.191  12.443  1.00  0.00     0.164 A
HETATM    5  N5  UNL     1      -1.761   3.895  12.187  1.00  0.00    -0.173 N
ATOM      6  H5  UNL     1      -0.981   3.298  11.911  1.00  0.00     0.186 HD
HETATM    7  C11 UNL     1      -2.983   3.347  12.277  1.00  0.00     0.696 A
HETATM    8  N8  UNL     1      -3.983   4.170  12.644  1.00  0.00    -0.022 N
ATOM      9  H8  UNL     1      -4.927   3.791  12.724  1.00  0.00     0.203 HD
ENDROOT
BRANCH   4  10
HETATM   10  C6  UNL     1      -0.149   5.698  12.319  1.00  0.00     0.094 A
HETATM   11  C7  UNL     1       0.262   7.005  12.163  1.00  0.00     0.122 A
HETATM   12  N3  UNL     1       1.601   7.027  12.091  1.00  0.00    -0.353 N
HETATM   13  C8  UNL     1       2.069   5.781  12.197  1.00  0.00     0.081 A
ATOM     14  H3  UNL     1       2.172   7.864  11.974  1.00  0.00     0.166 HD
HETATM   15  N4  UNL     1       0.984   4.978  12.336  1.00  0.00    -0.342 N
ATOM     16  H4  UNL     1       1.025   3.963  12.439  1.00  0.00     0.167 HD
BRANCH  13  17
HETATM   17  C9  UNL     1       3.492   5.385  12.165  1.00  0.00     0.072 C
HETATM   18  C10 UNL     1       4.167   5.825  13.443  1.00  0.00     0.013 C
ENDBRANCH  13  17
ENDBRANCH   4  10
BRANCH   1  19
HETATM   19  N1  UNL     1      -4.798   6.183  13.254  1.00  0.00    -0.226 N
ATOM     20  H1  UNL     1      -4.689   7.197  13.235  1.00  0.00     0.177 HD
BRANCH  19  21
HETATM   21  C3  UNL     1      -6.068   5.663  13.662  1.00  0.00     0.137 C
BRANCH  21  22
HETATM   22  C2  UNL     1      -6.006   5.446  15.173  1.00  0.00     0.016 C
HETATM   23  C1  UNL     1      -6.383   3.988  15.419  1.00  0.00     0.006 C
ENDBRANCH  21  22
ENDBRANCH  19  21
ENDBRANCH   1  19
BRANCH   7  24
HETATM   24  N6  UNL     1      -3.203   1.949  11.992  1.00  0.00    -0.214 N
HETATM   25  C12 UNL     1      -4.343   1.329  12.588  1.00  0.00     0.160 C
HETATM   26  C13 UNL     1      -4.373  -0.158  12.524  1.00  0.00     0.136 C
HETATM   27  N7  UNL     1      -3.840  -0.739  11.342  1.00  0.00    -0.414 N
HETATM   28  C14 UNL     1      -3.165  -1.991  11.537  1.00  0.00     0.143 C
HETATM   29  C15 UNL     1      -3.183   0.153  10.449  1.00  0.00     0.136 C
HETATM   30  C16 UNL     1      -2.338   1.191  11.155  1.00  0.00     0.160 C
ENDBRANCH   7  24
TORSDOF 6
ENDMDL