MODEL 3
REMARK VINA RESULT: -6.658211366      1.444      1.554
REMARK  6 active torsions:
REMARK  status: ('A' for Active; 'I' for Inactive)
REMARK    1  A    between atoms: C5_9  and  N3_10
REMARK    2  A    between atoms: N3_10  and  C6_12
REMARK    3  A    between atoms: C7_15  and  C8_16
REMARK    4  A    between atoms: C8_16  and  N5_17
REMARK    5  A    between atoms: N6_20  and  C11_21
REMARK    6  A    between atoms: C11_21  and  C12_22
ROOT
HETATM    1  C6  UNL     1      -5.550   6.083   9.517  1.00  0.00     0.704 A
HETATM    2  N4  UNL     1      -4.979   4.975  10.018  1.00  0.00    -0.168 N
ATOM      3  H4  UNL     1      -5.115   4.031   9.657  1.00  0.00     0.186 HD
HETATM    4  C7  UNL     1      -4.201   5.298  11.066  1.00  0.00     0.190 A
HETATM    5  O1  UNL     1      -4.311   6.600  11.187  1.00  0.00    -0.207 OA
HETATM    6  N7  UNL     1      -5.102   7.092  10.285  1.00  0.00    -0.089 N
ATOM      7  H7  UNL     1      -5.344   8.077  10.176  1.00  0.00     0.213 HD
ENDROOT
BRANCH   1   8
HETATM    8  N3  UNL     1      -6.370   6.161   8.497  1.00  0.00    -0.186 N
ATOM      9  H3  UNL     1      -6.940   5.351   8.254  1.00  0.00     0.184 HD
BRANCH   8  10
HETATM   10  C5  UNL     1      -6.483   7.341   7.727  1.00  0.00     0.096 A
HETATM   11  C2  UNL     1      -7.527   8.266   7.816  1.00  0.00     0.051 A
HETATM   12  C1  UNL     1      -8.705   8.185   8.727  1.00  0.00     0.072 C
HETATM   13  N1  UNL     1      -7.220   9.213   6.911  1.00  0.00    -0.303 N
HETATM   14  N2  UNL     1      -6.088   8.925   6.300  1.00  0.00    -0.303 N
ATOM     15  H1  UNL     1      -7.786  10.041   6.723  1.00  0.00     0.186 HD
HETATM   16  C3  UNL     1      -5.581   7.767   6.769  1.00  0.00     0.051 A
ATOM     17  H2  UNL     1      -5.656   9.497   5.575  1.00  0.00     0.186 HD
HETATM   18  C4  UNL     1      -4.313   7.075   6.350  1.00  0.00     0.072 C
ENDBRANCH   8  10
ENDBRANCH   1   8
BRANCH   4  19
HETATM   19  C8  UNL     1      -3.387   4.354  11.907  1.00  0.00     0.359 C
BRANCH  19  20
HETATM   20  N5  UNL     1      -4.248   3.590  12.753  1.00  0.00     0.099 N
HETATM   21  C9  UNL     1      -4.489   4.294  13.972  1.00  0.00     0.303 C
HETATM   22  C10 UNL     1      -3.852   3.541  15.118  1.00  0.00     0.302 C
HETATM   23  N6  UNL     1      -4.410   2.222  15.299  1.00  0.00     0.092 N
HETATM   24  C15 UNL     1      -4.495   1.560  14.037  1.00  0.00     0.302 C
HETATM   25  C16 UNL     1      -3.682   2.294  12.982  1.00  0.00     0.303 C
BRANCH  23  26
HETATM   26  C11 UNL     1      -5.653   2.349  15.993  1.00  0.00     0.277 C
BRANCH  26  27
HETATM   27  C12 UNL     1      -5.905   1.235  16.977  1.00  0.00     0.014 A
HETATM   28  C13 UNL     1      -7.381   1.117  17.370  1.00  0.00     0.007 A
HETATM   29  C14 UNL     1      -6.298   1.473  18.363  1.00  0.00     0.007 A
ENDBRANCH  26  27
ENDBRANCH  23  26
ENDBRANCH  19  20
ENDBRANCH   4  19
TORSDOF 6
ENDMDL