MODEL 2
REMARK VINA RESULT: -6.989500367      3.210      5.499
REMARK  6 active torsions:
REMARK  status: ('A' for Active; 'I' for Inactive)
REMARK    1  A    between atoms: C7_9  and  O3_10
REMARK    2  A    between atoms: C7_9  and  C8_12
REMARK    3  A    between atoms: C8_12  and  N1_13
REMARK    4  A    between atoms: N1_13  and  C9_16
REMARK    5  A    between atoms: C9_16  and  C10_17
REMARK    6  A    between atoms: C10_17  and  N2_18
ROOT
HETATM    1  O1  UNL     1      -3.365  -2.199  11.150  1.00  0.00    -0.262 OA
HETATM    2  C1  UNL     1      -3.281  -1.010  11.550  1.00  0.00     0.289 C
HETATM    3  O2  UNL     1      -2.087  -0.256  11.443  1.00  0.00    -0.313 OA
HETATM    4  C2  UNL     1      -2.577   1.055  11.257  1.00  0.00     0.141 C
HETATM    5  C3  UNL     1      -1.584   2.134  11.518  1.00  0.00     0.038 C
HETATM    6  C4  UNL     1      -2.065   3.495  11.244  1.00  0.00    -0.005 C
HETATM    7  C5  UNL     1      -1.474   3.932   9.893  1.00  0.00     0.008 C
HETATM    8  C6  UNL     1      -2.143   5.297   9.768  1.00  0.00     0.040 C
HETATM    9  C7  UNL     1      -3.580   4.890  10.102  1.00  0.00     0.086 C
HETATM   10  C14 UNL     1      -3.489   3.816  11.172  1.00  0.00     0.028 C
HETATM   11  C15 UNL     1      -4.499   2.793  10.840  1.00  0.00     0.040 C
HETATM   12  C16 UNL     1      -4.817   1.756  11.866  1.00  0.00     0.132 C
HETATM   13  O4  UNL     1      -5.192   0.501  11.328  1.00  0.00    -0.369 OA
HETATM   14  C17 UNL     1      -4.328  -0.154  12.190  1.00  0.00     0.230 C
HETATM   15  C18 UNL     1      -3.596   1.127  12.374  1.00  0.00     0.083 C
ENDROOT
BRANCH   9  16
HETATM   16  O3  UNL     1      -4.066   4.275   8.943  1.00  0.00    -0.388 OA
ATOM     17  H3  UNL     1      -5.012   4.296   9.026  1.00  0.00     0.210 HD
ENDBRANCH   9  16
BRANCH   9  18
HETATM   18  C8  UNL     1      -4.337   6.108  10.474  1.00  0.00     0.270 C
BRANCH  18  19
HETATM   19  N1  UNL     1      -4.179   6.550  11.841  1.00  0.00    -0.071 N
ATOM     20  H12 UNL     1      -3.464   6.013  12.332  1.00  0.00     0.277 HD
ATOM     21  H11 UNL     1      -3.741   7.470  11.894  1.00  0.00     0.277 HD
BRANCH  19  22
HETATM   22  C9  UNL     1      -5.466   6.515  12.542  1.00  0.00     0.262 C
BRANCH  22  23
HETATM   23  C10 UNL     1      -5.301   6.002  13.931  1.00  0.00     0.299 C
BRANCH  23  24
HETATM   24  N2  UNL     1      -5.302   4.545  13.991  1.00  0.00     0.090 N
HETATM   25  C11 UNL     1      -6.316   4.036  14.925  1.00  0.00     0.274 C
HETATM   26  C12 UNL     1      -5.371   3.016  15.468  1.00  0.00     0.060 C
HETATM   27  C13 UNL     1      -4.307   3.947  14.861  1.00  0.00     0.274 C
ENDBRANCH  23  24
ENDBRANCH  22  23
ENDBRANCH  19  22
ENDBRANCH  18  19
ENDBRANCH   9  18
TORSDOF 6
ENDMDL