MODEL 2
REMARK VINA RESULT: -6.494742068      1.775      2.241
REMARK  5 active torsions:
REMARK  status: ('A' for Active; 'I' for Inactive)
REMARK    1  A    between atoms: C2_2  and  N1_3
REMARK    2  A    between atoms: N2_7  and  C6_8
REMARK    3  A    between atoms: C6_8  and  C7_9
REMARK    4  A    between atoms: N4_13  and  C9_14
REMARK    5  A    between atoms: C14_22  and  C15_23
ROOT
HETATM    1  C7  UNL     1      -3.225   3.306  12.172  1.00  0.00     0.022 A
HETATM    2  C8  UNL     1      -2.854   4.608  12.386  1.00  0.00     0.118 A
HETATM    3  N3  UNL     1      -1.645   4.799  11.871  1.00  0.00    -0.308 N
ATOM      4  H3  UNL     1      -1.118   5.673  11.884  1.00  0.00     0.186 HD
HETATM    5  N4  UNL     1      -1.237   3.637  11.329  1.00  0.00    -0.279 N
HETATM    6  C14 UNL     1      -2.159   2.695  11.486  1.00  0.00     0.137 A
ENDROOT
BRANCH   1   7
HETATM    7  C6  UNL     1      -4.459   2.611  12.577  1.00  0.00     0.315 C
BRANCH   7   8
HETATM    8  N2  UNL     1      -4.827   2.879  13.928  1.00  0.00     0.094 N
HETATM    9  C5  UNL     1      -6.018   3.641  14.085  1.00  0.00     0.274 C
HETATM   10  C4  UNL     1      -6.074   4.455  15.376  1.00  0.00     0.050 C
HETATM   11  C3  UNL     1      -6.835   3.629  16.386  1.00  0.00     0.123 C
HETATM   12  N1  UNL     1      -6.297   2.325  16.418  1.00  0.00    -0.392 N
HETATM   13  C17 UNL     1      -4.913   2.148  16.219  1.00  0.00     0.152 C
HETATM   14  C16 UNL     1      -4.713   1.720  14.763  1.00  0.00     0.292 C
BRANCH  12  15
HETATM   15  C2  UNL     1      -7.009   1.345  17.139  1.00  0.00     0.054 C
HETATM   16  C1  UNL     1      -6.159   0.358  17.895  1.00  0.00     0.054 C
ENDBRANCH  12  15
ENDBRANCH   7   8
ENDBRANCH   1   7
BRANCH   6  17
HETATM   17  C15 UNL     1      -2.107   1.302  11.064  1.00  0.00     0.229 C
HETATM   18  O1  UNL     1      -1.385   0.434  11.563  1.00  0.00    -0.643 OA
HETATM   19  O2  UNL     1      -2.935   0.889  10.006  1.00  0.00    -0.643 OA
ENDBRANCH   6  17
BRANCH   5  20
HETATM   20  C9  UNL     1       0.058   3.565  10.689  1.00  0.00     0.134 C
HETATM   21  C10 UNL     1       1.013   4.469  11.435  1.00  0.00     0.030 C
HETATM   22  C11 UNL     1       2.061   4.958  10.470  1.00  0.00     0.029 C
HETATM   23  C12 UNL     1       1.393   5.892   9.484  1.00  0.00     0.232 C
HETATM   24  N5  UNL     1       0.014   5.497   9.236  1.00  0.00    -0.073 N
HETATM   25  C13 UNL     1      -0.101   4.045   9.248  1.00  0.00     0.259 C
ATOM     26  H52 UNL     1      -0.633   5.936   9.892  1.00  0.00     0.277 HD
ATOM     27  H51 UNL     1      -0.350   5.901   8.373  1.00  0.00     0.277 HD
ENDBRANCH   5  20
TORSDOF 5
ENDMDL