MODEL 3
REMARK VINA RESULT: -7.613677508      1.407      2.017
REMARK  7 active torsions:
REMARK  status: ('A' for Active; 'I' for Inactive)
REMARK    1  A    between atoms: C2_2  and  C4_4
REMARK    2  A    between atoms: C5_5  and  C6_6
REMARK    3  A    between atoms: C6_6  and  C7_8
REMARK    4  A    between atoms: C14_17  and  C15_18
REMARK    5  A    between atoms: C15_18  and  O4_19
REMARK    6  A    between atoms: C15_18  and  C16_21
REMARK    7  A    between atoms: C16_21  and  O5_22
ROOT
HETATM    1  C7  UNL     1      -4.712   5.411  13.527  1.00  0.00     0.130 C
HETATM    2  C8  UNL     1      -3.967   5.164  12.260  1.00  0.00     0.023 C
HETATM    3  C9  UNL     1      -4.431   3.945  11.511  1.00  0.00     0.038 C
HETATM    4  C10 UNL     1      -3.420   2.831  11.815  1.00  0.00     0.057 C
HETATM    5  C11 UNL     1      -2.184   3.189  10.971  1.00  0.00     0.045 C
HETATM    6  C12 UNL     1      -3.914   1.513  11.353  1.00  0.00     0.045 C
HETATM    7  O2  UNL     1      -3.057   2.941  13.108  1.00  0.00    -0.350 OA
HETATM    8  C13 UNL     1      -3.668   2.189  14.039  1.00  0.00     0.275 C
HETATM    9  O3  UNL     1      -4.829   1.534  13.766  1.00  0.00    -0.351 OA
HETATM   10  C14 UNL     1      -5.306   1.863  15.025  1.00  0.00     0.171 C
HETATM   11  C17 UNL     1      -4.438   3.090  14.985  1.00  0.00     0.143 C
HETATM   12  C18 UNL     1      -5.078   4.198  14.269  1.00  0.00     0.149 C
HETATM   13  O6  UNL     1      -6.311   4.078  14.297  1.00  0.00    -0.296 OA
ENDROOT
BRANCH   1  14
HETATM   14  C6  UNL     1      -3.845   6.245  14.455  1.00  0.00     0.160 C
HETATM   15  O1  UNL     1      -4.369   6.671  15.498  1.00  0.00    -0.292 OA
BRANCH  14  16
HETATM   16  C5  UNL     1      -2.487   6.491  14.081  1.00  0.00     0.047 C
HETATM   17  C4  UNL     1      -1.847   7.605  14.236  1.00  0.00    -0.019 C
BRANCH  17  18
HETATM   18  C2  UNL     1      -2.298   8.855  14.803  1.00  0.00    -0.000 C
HETATM   19  C1  UNL     1      -1.768   9.072  16.222  1.00  0.00     0.013 C
HETATM   20  C3  UNL     1      -1.654  10.008  13.994  1.00  0.00     0.013 C
ENDBRANCH  17  18
ENDBRANCH  14  16
ENDBRANCH   1  14
BRANCH  10  21
HETATM   21  C15 UNL     1      -4.908   0.905  16.125  1.00  0.00     0.171 C
BRANCH  21  22
HETATM   22  O4  UNL     1      -4.946  -0.416  15.718  1.00  0.00    -0.391 OA
ATOM     23  H4  UNL     1      -5.556  -0.937  16.226  1.00  0.00     0.210 HD
ENDBRANCH  21  22
BRANCH  21  24
HETATM   24  C16 UNL     1      -5.906   1.084  17.267  1.00  0.00     0.198 C
BRANCH  24  25
HETATM   25  O5  UNL     1      -7.109   0.466  16.936  1.00  0.00    -0.398 OA
ATOM     26  H5  UNL     1      -7.751   0.634  17.616  1.00  0.00     0.209 HD
ENDBRANCH  24  25
ENDBRANCH  21  24
ENDBRANCH  10  21
TORSDOF 7
ENDMDL