MODEL 5
REMARK VINA RESULT: -6.674246987      2.262      3.422
REMARK  8 active torsions:
REMARK  status: ('A' for Active; 'I' for Inactive)
REMARK    1  A    between atoms: C2_2  and  C4_5
REMARK    2  A    between atoms: C5_6  and  C6_7
REMARK    3  A    between atoms: C8_9  and  O1_10
REMARK    4  A    between atoms: O1_10  and  C9_11
REMARK    5  A    between atoms: C12_15  and  C13_16
REMARK    6  A    between atoms: C12_15  and  C14_19
REMARK    7  A    between atoms: C13_16  and  O3_17
REMARK    8  A    between atoms: C14_19  and  O4_20
ROOT
HETATM    1  C1  UNL     1      -5.522   3.307  14.939  1.00  0.00     0.035 C
HETATM    2  C2  UNL     1      -4.252   3.107  15.362  1.00  0.00     0.035 C
HETATM    3  C3  UNL     1      -4.014   1.803  15.909  1.00  0.00     0.098 C
HETATM    4  N1  UNL     1      -3.855   0.737  16.360  1.00  0.00    -0.191 NA
ENDROOT
BRANCH   2   5
HETATM    5  C4  UNL     1      -3.351   4.195  15.240  1.00  0.00     0.018 C
HETATM    6  C5  UNL     1      -2.686   4.570  14.210  1.00  0.00    -0.019 C
BRANCH   6   7
HETATM    7  C6  UNL     1      -2.676   3.978  12.856  1.00  0.00     0.029 A
HETATM    8  C7  UNL     1      -3.725   4.436  11.927  1.00  0.00     0.037 A
HETATM    9  C8  UNL     1      -4.289   3.737  10.759  1.00  0.00     0.138 C
HETATM   10  C18 UNL     1      -2.330   4.705  11.730  1.00  0.00     0.021 A
HETATM   11  C11 UNL     1      -4.231   4.629   9.571  1.00  0.00     0.046 C
HETATM   12  C12 UNL     1      -4.249   6.085   9.789  1.00  0.00     0.007 C
HETATM   13  C15 UNL     1      -3.385   6.745  10.743  1.00  0.00     0.046 C
HETATM   14  C16 UNL     1      -2.164   6.043  11.260  1.00  0.00     0.134 A
HETATM   15  O5  UNL     1      -1.298   5.604  10.257  1.00  0.00    -0.384 OA
HETATM   16  C17 UNL     1      -1.354   4.298  10.739  1.00  0.00     0.181 A
BRANCH   9  17
HETATM   17  O1  UNL     1      -3.696   2.478  10.560  1.00  0.00    -0.316 OA
BRANCH  17  18
HETATM   18  C9  UNL     1      -4.267   1.288  10.912  1.00  0.00     0.255 C
HETATM   19  C10 UNL     1      -4.544   0.831  12.285  1.00  0.00     0.126 C
HETATM   20  O2  UNL     1      -4.581   0.519   9.949  1.00  0.00    -0.266 OA
ENDBRANCH  17  18
ENDBRANCH   9  17
BRANCH  12  21
HETATM   21  C13 UNL     1      -3.971   6.691   8.394  1.00  0.00     0.175 C
BRANCH  21  22
HETATM   22  O3  UNL     1      -4.242   5.819   7.374  1.00  0.00    -0.400 OA
ATOM     23  H3  UNL     1      -4.152   4.910   7.635  1.00  0.00     0.209 HD
ENDBRANCH  21  22
ENDBRANCH  12  21
BRANCH  12  24
HETATM   24  C14 UNL     1      -5.710   6.490  10.054  1.00  0.00     0.175 C
BRANCH  24  25
HETATM   25  O4  UNL     1      -6.567   5.779   9.192  1.00  0.00    -0.400 OA
ATOM     26  H4  UNL     1      -7.311   5.446   9.679  1.00  0.00     0.209 HD
ENDBRANCH  24  25
ENDBRANCH  12  24
ENDBRANCH   6   7
ENDBRANCH   2   5
TORSDOF 8
ENDMDL