MODEL 4
REMARK VINA RESULT: -5.294369679      2.503      5.390
REMARK  9 active torsions:
REMARK  status: ('A' for Active; 'I' for Inactive)
REMARK    1  A    between atoms: O1_2  and  C2_3
REMARK    2  A    between atoms: C2_3  and  C3_4
REMARK    3  A    between atoms: C3_4  and  N1_6
REMARK    4  A    between atoms: N1_6  and  C4_8
REMARK    5  A    between atoms: C4_8  and  C5_12
REMARK    6  A    between atoms: C5_12  and  C6_13
REMARK    7  A    between atoms: C6_13  and  S2_14
REMARK    8  A    between atoms: S2_14  and  C7_15
REMARK    9  A    between atoms: C7_15  and  N3_17
ROOT
HETATM    1  C5  UNL     1      -4.761   1.891  11.920  1.00  0.00     0.086 C
ENDROOT
BRANCH   1   2
HETATM    2  C4  UNL     1      -4.415   1.205  13.176  1.00  0.00     0.076 C
HETATM    3  N2  UNL     1      -4.406  -0.062  13.242  1.00  0.00    -0.389 N
ATOM      4  H22 UNL     1      -4.166  -0.537  14.111  1.00  0.00     0.157 HD
ATOM      5  H21 UNL     1      -4.641  -0.617  12.419  1.00  0.00     0.157 HD
BRANCH   2   6
HETATM    6  N1  UNL     1      -4.090   1.974  14.317  1.00  0.00    -0.339 N
ATOM      7  H1  UNL     1      -3.159   2.382  14.402  1.00  0.00     0.168 HD
BRANCH   6   8
HETATM    8  C3  UNL     1      -5.034   2.182  15.337  1.00  0.00     0.102 C
HETATM    9  S1  UNL     1      -6.024   3.490  15.226  1.00  0.00    -0.063 SA
BRANCH   8  10
HETATM   10  C2  UNL     1      -5.118   1.236  16.472  1.00  0.00     0.236 C
BRANCH  10  11
HETATM   11  O1  UNL     1      -6.283   0.513  16.521  1.00  0.00    -0.389 OA
HETATM   12  C1  UNL     1      -7.147   0.910  17.519  1.00  0.00     0.202 C
ENDBRANCH  10  11
ENDBRANCH   8  10
ENDBRANCH   6   8
ENDBRANCH   2   6
ENDBRANCH   1   2
BRANCH   1  13
HETATM   13  C6  UNL     1      -3.886   1.288  10.833  1.00  0.00     0.089 C
BRANCH  13  14
HETATM   14  S2  UNL     1      -2.167   1.739  11.052  1.00  0.00    -0.100 SA
BRANCH  14  15
HETATM   15  C7  UNL     1      -1.839   3.450  10.725  1.00  0.00     0.136 C
HETATM   16  S3  UNL     1      -1.201   3.879   9.301  1.00  0.00    -0.053 SA
BRANCH  15  17
HETATM   17  N3  UNL     1      -2.133   4.419  11.690  1.00  0.00    -0.363 N
HETATM   18  C8  UNL     1      -1.424   4.427  12.943  1.00  0.00     0.154 C
HETATM   19  C9  UNL     1      -1.911   5.648  13.710  1.00  0.00     0.291 C
HETATM   20  N4  UNL     1      -3.336   5.585  13.856  1.00  0.00     0.087 N
HETATM   21  C10 UNL     1      -3.745   6.778  14.611  1.00  0.00     0.310 C
HETATM   22  C11 UNL     1      -4.067   5.451  12.636  1.00  0.00     0.291 C
HETATM   23  C12 UNL     1      -3.138   5.428  11.464  1.00  0.00     0.154 C
ENDBRANCH  15  17
ENDBRANCH  14  15
ENDBRANCH  13  14
ENDBRANCH   1  13
TORSDOF 9
ENDMDL