MODEL 4
REMARK VINA RESULT: -6.410750770      2.473      2.973
REMARK  8 active torsions:
REMARK  status: ('A' for Active; 'I' for Inactive)
REMARK    1  A    between atoms: C1_2  and  C2_4
REMARK    2  A    between atoms: C3_5  and  C4_6
REMARK    3  A    between atoms: C4_6  and  S1_7
REMARK    4  A    between atoms: S1_7  and  C5_8
REMARK    5  A    between atoms: C6_10  and  C7_11
REMARK    6  A    between atoms: C7_11  and  N2_12
REMARK    7  A    between atoms: C7_11  and  O3_16
REMARK    8  A    between atoms: C8_20  and  C9_21
ROOT
HETATM    1  C5  UNL     1      13.071  53.412 -50.420  1.00  0.00     0.145 A
HETATM    2  O2  UNL     1      14.313  53.794 -50.468  1.00  0.00    -0.284 OA
HETATM    3  C6  UNL     1      14.906  53.702 -49.306  1.00  0.00     0.182 A
HETATM    4  N3  UNL     1      13.998  53.225 -48.421  1.00  0.00    -0.331 N
ATOM      5  H3  UNL     1      14.149  53.039 -47.429  1.00  0.00     0.168 HD
HETATM    6  C8  UNL     1      12.860  53.044 -49.110  1.00  0.00     0.122 A
ENDROOT
BRANCH   6   7
HETATM    7  C9  UNL     1      11.589  52.542 -48.572  1.00  0.00     0.167 A
HETATM    8  N4  UNL     1      10.427  53.181 -48.445  1.00  0.00    -0.267 N
HETATM    9  N5  UNL     1       9.547  52.361 -47.910  1.00  0.00    -0.227 N
ATOM     10  H4  UNL     1      10.248  54.147 -48.718  1.00  0.00     0.190 HD
HETATM   11  N6  UNL     1      10.130  51.198 -47.690  1.00  0.00    -0.227 N
ATOM     12  H5  UNL     1       8.575  52.587 -47.701  1.00  0.00     0.210 HD
HETATM   13  N7  UNL     1      11.385  51.285 -48.088  1.00  0.00    -0.267 N
ATOM     14  H6  UNL     1       9.688  50.374 -47.282  1.00  0.00     0.210 HD
ATOM     15  H7  UNL     1      12.080  50.541 -48.042  1.00  0.00     0.190 HD
ENDBRANCH   6   7
BRANCH   1  16
HETATM   16  S1  UNL     1      11.823  53.335 -51.698  1.00  0.00    -0.090 SA
BRANCH  16  17
HETATM   17  C4  UNL     1      12.414  54.137 -53.210  1.00  0.00     0.175 C
BRANCH  17  18
HETATM   18  C3  UNL     1      12.113  55.581 -53.156  1.00  0.00    -0.086 C
HETATM   19  C2  UNL     1      11.846  56.756 -53.110  1.00  0.00    -0.008 C
BRANCH  19  20
HETATM   20  C1  UNL     1      11.503  58.148 -53.058  1.00  0.00     0.309 C
HETATM   21  N1  UNL     1      10.160  58.508 -53.371  1.00  0.00    -0.049 NA
HETATM   22  O1  UNL     1      12.313  59.056 -52.755  1.00  0.00    -0.262 OA
ENDBRANCH  19  20
ENDBRANCH  17  18
ENDBRANCH  16  17
ENDBRANCH   1  16
BRANCH   3  23
HETATM   23  C7  UNL     1      16.325  54.048 -48.966  1.00  0.00     0.392 C
BRANCH  23  24
HETATM   24  N2  UNL     1      17.107  53.835 -50.173  1.00  0.00    -0.045 N
ATOM     25  H23 UNL     1      17.381  54.703 -50.634  1.00  0.00     0.277 HD
ATOM     26  H22 UNL     1      18.048  53.487 -49.987  1.00  0.00     0.277 HD
ATOM     27  H21 UNL     1      16.560  53.217 -50.772  1.00  0.00     0.277 HD
ENDBRANCH  23  24
BRANCH  23  28
HETATM   28  O3  UNL     1      16.426  55.378 -48.576  1.00  0.00    -0.364 OA
ATOM     29  H3  UNL     1      17.009  55.467 -47.832  1.00  0.00     0.212 HD
ENDBRANCH  23  28
ENDBRANCH   3  23
TORSDOF 8
ENDMDL