MODEL 1
REMARK VINA RESULT: -6.788957576      0.000      0.000
REMARK  6 active torsions:
REMARK  status: ('A' for Active; 'I' for Inactive)
REMARK    1  A    between atoms: C2_2  and  C3_3
REMARK    2  A    between atoms: C3_3  and  N1_4
REMARK    3  A    between atoms: C3_3  and  C4_8
REMARK       I    between atoms: C4_8  and  N2_10
REMARK    4  A    between atoms: N2_10  and  N3_11
REMARK       I    between atoms: N3_11  and  C5_13
REMARK    5  A    between atoms: C5_13  and  C6_15
REMARK    6  A    between atoms: C8_23  and  C9_24
ROOT
HETATM    1  C6  UNL     1      11.612  51.298 -48.003  1.00  0.00     0.143 A
HETATM    2  N4  UNL     1      10.275  51.381 -48.072  1.00  0.00    -0.253 N
ATOM      3  H4  UNL     1       9.735  52.041 -48.631  1.00  0.00     0.195 HD
HETATM    4  O3  UNL     1       9.803  50.465 -47.293  1.00  0.00    -0.219 OA
HETATM    5  C7  UNL     1      10.729  49.765 -46.699  1.00  0.00     0.180 A
HETATM    6  N5  UNL     1      10.612  48.783 -45.865  1.00  0.00    -0.377 N
ATOM      7  H51 UNL     1      11.336  48.235 -45.400  1.00  0.00     0.158 HD
ATOM      8  H52 UNL     1       9.716  48.412 -45.548  1.00  0.00     0.158 HD
HETATM    9  C8  UNL     1      11.939  50.266 -47.128  1.00  0.00     0.098 A
ENDROOT
BRANCH   1  10
HETATM   10  C5  UNL     1      12.574  52.079 -48.754  1.00  0.00     0.299 C
HETATM   11  N3  UNL     1      13.440  52.972 -48.058  1.00  0.00    -0.194 N
ATOM     12  H3  UNL     1      13.370  53.038 -47.042  1.00  0.00     0.205 HD
HETATM   13  O2  UNL     1      12.669  52.008 -50.005  1.00  0.00    -0.263 OA
BRANCH  11  14
HETATM   14  N2  UNL     1      14.340  53.728 -48.697  1.00  0.00    -0.282 NA
HETATM   15  C4  UNL     1      15.245  54.486 -49.333  1.00  0.00     0.342 C
HETATM   16  O1  UNL     1      16.117  55.216 -48.731  1.00  0.00    -0.253 OA
BRANCH  15  17
HETATM   17  C3  UNL     1      15.352  54.576 -50.849  1.00  0.00     0.291 C
BRANCH  17  18
HETATM   18  C2  UNL     1      16.133  53.405 -51.330  1.00  0.00     0.039 C
HETATM   19  C1  UNL     1      17.606  53.526 -51.408  1.00  0.00     0.007 C
ENDBRANCH  17  18
BRANCH  17  20
HETATM   20  N1  UNL     1      14.001  54.442 -51.411  1.00  0.00    -0.065 N
ATOM     21  H13 UNL     1      13.292  54.946 -50.879  1.00  0.00     0.275 HD
ATOM     22  H12 UNL     1      13.879  54.942 -52.292  1.00  0.00     0.275 HD
ATOM     23  H11 UNL     1      13.813  53.442 -51.485  1.00  0.00     0.275 HD
ENDBRANCH  17  20
ENDBRANCH  15  17
ENDBRANCH  11  14
ENDBRANCH   1  10
BRANCH   9  24
HETATM   24  C9  UNL     1      13.296  49.866 -46.754  1.00  0.00     0.156 A
HETATM   25  N6  UNL     1      13.929  50.149 -45.576  1.00  0.00    -0.268 N
HETATM   26  N7  UNL     1      15.140  49.661 -45.623  1.00  0.00    -0.226 N
ATOM     27  H6  UNL     1      13.522  50.658 -44.790  1.00  0.00     0.190 HD
HETATM   28  N8  UNL     1      15.295  49.078 -46.785  1.00  0.00    -0.225 N
ATOM     29  H7  UNL     1      15.841  49.724 -44.884  1.00  0.00     0.210 HD
HETATM   30  N9  UNL     1      14.169  49.187 -47.506  1.00  0.00    -0.263 N
ATOM     31  H8  UNL     1      16.146  48.609 -47.096  1.00  0.00     0.210 HD
HETATM   32  C10 UNL     1      13.996  48.670 -48.850  1.00  0.00     0.181 C
ENDBRANCH   9  24
TORSDOF 6
ENDMDL