MODEL 2
REMARK VINA RESULT: -6.138938857      3.476      5.572
REMARK  10 active torsions:
REMARK  status: ('A' for Active; 'I' for Inactive)
REMARK    1  A    between atoms: C2_2  and  C4_4
REMARK    2  A    between atoms: C4_4  and  O1_5
REMARK    3  A    between atoms: C4_4  and  C6_13
REMARK    4  A    between atoms: O1_5  and  C5_6
REMARK    5  A    between atoms: C5_6  and  N1_7
REMARK    6  A    between atoms: C5_6  and  O2_11
REMARK    7  A    between atoms: C6_13  and  N2_14
REMARK    8  A    between atoms: C6_13  and  C7_18
REMARK       I    between atoms: C7_18  and  N3_20
REMARK    9  A    between atoms: N3_20  and  C8_22
REMARK   10  A    between atoms: C11_31  and  N7_32
ROOT
HETATM    1  C8  UNL     1      11.954  51.478 -49.196  1.00  0.00     0.120 A
HETATM    2  C9  UNL     1      10.925  51.319 -48.291  1.00  0.00     0.167 A
HETATM    3  C10 UNL     1      10.695  50.096 -47.582  1.00  0.00     0.122 C
HETATM    4  N4  UNL     1      10.490  49.123 -46.999  1.00  0.00    -0.190 NA
HETATM    5  N5  UNL     1      10.105  52.390 -48.082  1.00  0.00    -0.229 N
ATOM      6  H5  UNL     1       9.338  52.295 -47.416  1.00  0.00     0.197 HD
HETATM    7  O4  UNL     1      10.260  53.522 -48.693  1.00  0.00    -0.154 OA
HETATM    8  N6  UNL     1      11.232  53.681 -49.550  1.00  0.00    -0.224 N
ATOM      9  H6  UNL     1      11.328  54.584 -50.014  1.00  0.00     0.198 HD
HETATM   10  C11 UNL     1      12.103  52.718 -49.848  1.00  0.00     0.151 A
ENDROOT
BRANCH   1  11
HETATM   11  N3  UNL     1      12.777  50.598 -49.490  1.00  0.00    -0.320 N
HETATM   12  C7  UNL     1      14.070  50.245 -49.185  1.00  0.00     0.255 C
HETATM   13  O3  UNL     1      15.052  50.758 -49.811  1.00  0.00    -0.271 OA
ATOM     14  H3  UNL     1      12.374  49.939 -50.156  1.00  0.00     0.169 HD
BRANCH  12  15
HETATM   15  C6  UNL     1      14.353  49.254 -48.121  1.00  0.00     0.304 C
BRANCH  15  16
HETATM   16  C4  UNL     1      15.753  49.352 -47.582  1.00  0.00     0.169 C
BRANCH  16  17
HETATM   17  C2  UNL     1      15.714  49.942 -46.201  1.00  0.00     0.009 C
HETATM   18  C1  UNL     1      16.696  49.341 -45.257  1.00  0.00     0.012 C
HETATM   19  C3  UNL     1      14.290  49.868 -45.703  1.00  0.00     0.012 C
ENDBRANCH  16  17
BRANCH  16  20
HETATM   20  O1  UNL     1      16.455  48.172 -47.652  1.00  0.00    -0.331 OA
BRANCH  20  21
HETATM   21  C5  UNL     1      17.409  48.144 -48.643  1.00  0.00     0.464 C
BRANCH  21  22
HETATM   22  N1  UNL     1      17.798  49.515 -48.922  1.00  0.00    -0.029 N
ATOM     23  H13 UNL     1      17.324  50.191 -48.322  1.00  0.00     0.280 HD
ATOM     24  H12 UNL     1      18.753  49.723 -48.630  1.00  0.00     0.280 HD
ATOM     25  H11 UNL     1      17.640  49.688 -49.915  1.00  0.00     0.280 HD
ENDBRANCH  21  22
BRANCH  21  26
HETATM   26  O2  UNL     1      16.936  47.608 -49.845  1.00  0.00    -0.350 OA
ATOM     27  H2  UNL     1      17.535  46.980 -50.234  1.00  0.00     0.214 HD
ENDBRANCH  21  26
ENDBRANCH  20  21
ENDBRANCH  16  20
ENDBRANCH  15  16
BRANCH  15  28
HETATM   28  N2  UNL     1      14.018  47.952 -48.592  1.00  0.00    -0.064 N
ATOM     29  H23 UNL     1      14.487  47.756 -49.476  1.00  0.00     0.275 HD
ATOM     30  H22 UNL     1      14.449  47.234 -48.010  1.00  0.00     0.275 HD
ATOM     31  H21 UNL     1      13.014  47.796 -48.674  1.00  0.00     0.275 HD
ENDBRANCH  15  28
ENDBRANCH  12  15
ENDBRANCH   1  11
BRANCH  10  32
HETATM   32  N7  UNL     1      13.030  52.952 -50.703  1.00  0.00    -0.382 N
ATOM     33  H72 UNL     1      13.537  52.170 -51.117  1.00  0.00     0.157 HD
ATOM     34  H71 UNL     1      13.293  53.893 -50.996  1.00  0.00     0.157 HD
ENDBRANCH  10  32
TORSDOF 10
ENDMDL