MODEL 4
REMARK VINA RESULT: -6.910559787      2.402      5.988
REMARK  5 active torsions:
REMARK  status: ('A' for Active; 'I' for Inactive)
REMARK    1  A    between atoms: C2_2  and  N1_3
REMARK    2  A    between atoms: C2_2  and  C12_22
REMARK    3  A    between atoms: C3_5  and  C4_6
REMARK    4  A    between atoms: C5_7  and  O1_8
REMARK    5  A    between atoms: C8_14  and  C9_15
REMARK       I    between atoms: C9_15  and  N4_17
ROOT
HETATM    1  C9  UNL     1      14.841  52.000 -51.914  1.00  0.00     0.344 C
HETATM    2  O2  UNL     1      15.706  51.890 -50.975  1.00  0.00    -0.250 OA
HETATM    3  N4  UNL     1      13.854  52.926 -52.018  1.00  0.00    -0.287 NA
HETATM    4  C10 UNL     1      12.905  53.815 -52.118  1.00  0.00     0.272 C
HETATM    5  N5  UNL     1      12.066  54.568 -52.241  1.00  0.00    -0.156 NA
ENDROOT
BRANCH   1   6
HETATM    6  C8  UNL     1      14.963  50.987 -52.986  1.00  0.00     0.139 A
HETATM    7  C7  UNL     1      14.374  49.729 -52.822  1.00  0.00     0.141 A
HETATM    8  N2  UNL     1      14.443  48.769 -53.752  1.00  0.00    -0.319 N
HETATM    9  N3  UNL     1      13.673  49.480 -51.603  1.00  0.00    -0.081 NA
HETATM   10  C5  UNL     1      15.105  48.986 -54.909  1.00  0.00     0.159 A
HETATM   11  C6  UNL     1      13.792  47.509 -53.478  1.00  0.00     0.159 C
HETATM   12  C4  UNL     1      15.704  50.196 -55.128  1.00  0.00     0.081 A
HETATM   13  C11 UNL     1      15.628  51.205 -54.150  1.00  0.00     0.208 A
HETATM   14  O3  UNL     1      16.196  52.289 -54.412  1.00  0.00    -0.286 OA
BRANCH  10  15
HETATM   15  O1  UNL     1      15.154  47.950 -55.857  1.00  0.00    -0.345 OA
ATOM     16  H1  UNL     1      14.555  47.914 -56.594  1.00  0.00     0.219 HD
ENDBRANCH  10  15
BRANCH  12  17
HETATM   17  C3  UNL     1      16.427  50.453 -56.360  1.00  0.00     0.103 C
HETATM   18  N1  UNL     1      15.958  51.298 -57.212  1.00  0.00    -0.384 N
ATOM     19  H1  UNL     1      15.079  51.770 -56.999  1.00  0.00     0.159 HD
BRANCH  18  20
HETATM   20  C2  UNL     1      16.617  51.601 -58.442  1.00  0.00     0.178 C
HETATM   21  C1  UNL     1      17.684  52.624 -58.125  1.00  0.00     0.043 C
BRANCH  20  22
HETATM   22  C12 UNL     1      15.653  52.087 -59.425  1.00  0.00     0.196 C
HETATM   23  O4  UNL     1      15.008  51.216 -60.102  1.00  0.00    -0.646 OA
HETATM   24  O5  UNL     1      15.380  53.408 -59.678  1.00  0.00    -0.646 OA
ENDBRANCH  20  22
ENDBRANCH  18  20
ENDBRANCH  12  17
ENDBRANCH   1   6
TORSDOF 5
ENDMDL