MODEL 1
REMARK VINA RESULT: -6.555080599      0.000      0.000
REMARK  9 active torsions:
REMARK  status: ('A' for Active; 'I' for Inactive)
REMARK    1  A    between atoms: C2_2  and  C3_3
REMARK    2  A    between atoms: C4_4  and  C5_5
REMARK    3  A    between atoms: C5_5  and  N1_6
REMARK    4  A    between atoms: N1_6  and  C6_8
REMARK    5  A    between atoms: C7_13  and  C8_14
REMARK    6  A    between atoms: C8_14  and  N4_16
REMARK    7  A    between atoms: N5_20  and  N6_21
REMARK    8  A    between atoms: C11_27  and  N8_28
REMARK    9  A    between atoms: N10_33  and  O1_34
ROOT
HETATM    1  C5  UNL     1      14.841  51.881 -49.021  1.00  0.00     0.197 C
ENDROOT
BRANCH   1   2
HETATM    2  C4  UNL     1      13.408  51.708 -48.665  1.00  0.00     0.054 A
HETATM    3  C3  UNL     1      12.933  50.666 -47.891  1.00  0.00     0.064 A
HETATM    4  N11 UNL     1      11.600  50.782 -47.740  1.00  0.00    -0.197 N
HETATM    5  C10 UNL     1      11.244  51.893 -48.419  1.00  0.00     0.177 A
HETATM    6  N10 UNL     1      10.496  50.255 -47.202  1.00  0.00    -0.084 N
HETATM    7  N7  UNL     1      12.340  52.448 -48.975  1.00  0.00    -0.338 N
HETATM    8  C11 UNL     1       9.874  52.017 -48.269  1.00  0.00     0.164 A
ATOM      9  H7  UNL     1      12.352  53.296 -49.540  1.00  0.00     0.167 HD
HETATM   10  N9  UNL     1       9.442  50.995 -47.515  1.00  0.00    -0.240 N
ATOM     11  H9  UNL     1       8.479  50.819 -47.233  1.00  0.00     0.193 HD
BRANCH   3  12
HETATM   12  C2  UNL     1      13.734  49.556 -47.292  1.00  0.00     0.057 C
HETATM   13  C1  UNL     1      14.254  49.941 -45.921  1.00  0.00     0.011 C
ENDBRANCH   3  12
BRANCH   8  14
HETATM   14  N8  UNL     1       9.177  52.979 -48.789  1.00  0.00    -0.381 N
ATOM     15  H82 UNL     1       9.290  53.984 -48.654  1.00  0.00     0.157 HD
ATOM     16  H81 UNL     1       8.396  52.830 -49.428  1.00  0.00     0.157 HD
ENDBRANCH   8  14
BRANCH   6  17
HETATM   17  O1  UNL     1      10.518  49.102 -46.440  1.00  0.00    -0.253 OA
ATOM     18  H1  UNL     1      11.274  48.684 -46.045  1.00  0.00     0.248 HD
ENDBRANCH   6  17
ENDBRANCH   1   2
BRANCH   1  19
HETATM   19  N1  UNL     1      15.083  51.746 -50.424  1.00  0.00    -0.217 N
ATOM     20  H1  UNL     1      15.263  52.608 -50.941  1.00  0.00     0.178 HD
BRANCH  19  21
HETATM   21  C6  UNL     1      15.100  50.659 -51.102  1.00  0.00     0.715 A
HETATM   22  N2  UNL     1      15.998  49.672 -51.146  1.00  0.00    -0.129 N
HETATM   23  N3  UNL     1      15.564  48.760 -52.008  1.00  0.00    -0.271 N
ATOM     24  H2  UNL     1      16.865  49.627 -50.612  1.00  0.00     0.205 HD
HETATM   25  C7  UNL     1      14.386  49.151 -52.524  1.00  0.00     0.166 A
ATOM     26  H3  UNL     1      16.050  47.895 -52.243  1.00  0.00     0.189 HD
HETATM   27  N5  UNL     1      14.104  50.331 -51.957  1.00  0.00    -0.076 N
BRANCH  25  28
HETATM   28  C8  UNL     1      13.526  48.436 -53.535  1.00  0.00     0.250 C
HETATM   29  C9  UNL     1      14.150  48.455 -54.900  1.00  0.00     0.048 C
BRANCH  28  30
HETATM   30  N4  UNL     1      13.287  47.105 -53.069  1.00  0.00    -0.068 N
ATOM     31  H43 UNL     1      14.103  46.501 -53.175  1.00  0.00     0.275 HD
ATOM     32  H42 UNL     1      13.207  47.054 -52.054  1.00  0.00     0.275 HD
ATOM     33  H41 UNL     1      12.464  46.737 -53.545  1.00  0.00     0.275 HD
ENDBRANCH  28  30
ENDBRANCH  25  28
BRANCH  27  34
HETATM   34  N6  UNL     1      12.942  51.068 -52.242  1.00  0.00    -0.323 N
ATOM     35  H62 UNL     1      12.865  52.074 -52.093  1.00  0.00     0.178 HD
ATOM     36  H61 UNL     1      12.061  50.719 -52.617  1.00  0.00     0.178 HD
ENDBRANCH  27  34
ENDBRANCH  19  21
ENDBRANCH   1  19
TORSDOF 9
ENDMDL