MODEL 4
REMARK VINA RESULT: -5.637878426      4.977      7.432
REMARK  9 active torsions:
REMARK  status: ('A' for Active; 'I' for Inactive)
REMARK    1  A    between atoms: C3_5  and  C4_6
REMARK       I    between atoms: C4_6  and  N2_8
REMARK    2  A    between atoms: N2_8  and  C5_10
REMARK    3  A    between atoms: C6_15  and  C7_16
REMARK    4  A    between atoms: C7_16  and  N5_17
REMARK    5  A    between atoms: C7_16  and  C8_21
REMARK    6  A    between atoms: C8_21  and  O2_22
REMARK    7  A    between atoms: N6_24  and  N7_25
REMARK    8  A    between atoms: C9_28  and  C10_29
REMARK    9  A    between atoms: C10_29  and  N8_30
ROOT
HETATM    1  C5  UNL     1      14.814  49.998 -51.953  1.00  0.00     0.722 A
HETATM    2  N3  UNL     1      14.813  48.672 -52.172  1.00  0.00    -0.129 N
ATOM      3  H3  UNL     1      14.536  47.974 -51.482  1.00  0.00     0.205 HD
HETATM    4  N4  UNL     1      15.215  48.395 -53.387  1.00  0.00    -0.271 N
ATOM      5  H4  UNL     1      15.305  47.467 -53.801  1.00  0.00     0.189 HD
HETATM    6  C6  UNL     1      15.492  49.583 -53.993  1.00  0.00     0.169 A
HETATM    7  N6  UNL     1      15.242  50.544 -53.110  1.00  0.00    -0.075 N
ENDROOT
BRANCH   1   8
HETATM    8  N2  UNL     1      14.492  50.671 -50.910  1.00  0.00    -0.151 N
HETATM    9  C4  UNL     1      13.409  50.267 -50.073  1.00  0.00     0.287 C
HETATM   10  O1  UNL     1      12.330  49.962 -50.594  1.00  0.00    -0.265 OA
ATOM     11  H2  UNL     1      15.021  51.510 -50.674  1.00  0.00     0.188 HD
BRANCH   9  12
HETATM   12  C3  UNL     1      13.544  50.203 -48.592  1.00  0.00     0.117 A
HETATM   13  N1  UNL     1      14.653  49.838 -48.020  1.00  0.00    -0.349 N
HETATM   14  C2  UNL     1      14.739  49.793 -46.707  1.00  0.00     0.048 A
ATOM     15  H1  UNL     1      15.459  49.586 -48.591  1.00  0.00     0.166 HD
HETATM   16  C1  UNL     1      15.924  49.399 -45.851  1.00  0.00     0.076 C
HETATM   17  S1  UNL     1      13.177  50.290 -46.218  1.00  0.00    -0.078 SA
HETATM   18  C9  UNL     1      12.497  50.530 -47.764  1.00  0.00     0.042 A
BRANCH  18  19
HETATM   19  C10 UNL     1      11.108  50.982 -48.141  1.00  0.00     0.278 C
BRANCH  19  20
HETATM   20  N8  UNL     1      10.165  50.439 -47.182  1.00  0.00    -0.075 N
ATOM     21  H83 UNL     1      10.490  50.531 -46.220  1.00  0.00     0.274 HD
ATOM     22  H82 UNL     1       9.321  51.005 -47.100  1.00  0.00     0.274 HD
ATOM     23  H81 UNL     1       9.964  49.471 -47.433  1.00  0.00     0.274 HD
ENDBRANCH  19  20
ENDBRANCH  18  19
ENDBRANCH   9  12
ENDBRANCH   1   8
BRANCH   7  24
HETATM   24  N7  UNL     1      15.401  51.919 -53.344  1.00  0.00    -0.323 N
ATOM     25  H72 UNL     1      14.648  52.607 -53.337  1.00  0.00     0.178 HD
ATOM     26  H71 UNL     1      16.287  52.381 -53.548  1.00  0.00     0.178 HD
ENDBRANCH   7  24
BRANCH   6  27
HETATM   27  C7  UNL     1      15.976  49.659 -55.391  1.00  0.00     0.277 C
BRANCH  27  28
HETATM   28  N5  UNL     1      17.394  49.833 -55.381  1.00  0.00    -0.066 N
ATOM     29  H53 UNL     1      17.821  49.502 -54.516  1.00  0.00     0.275 HD
ATOM     30  H52 UNL     1      17.868  49.200 -56.025  1.00  0.00     0.275 HD
ATOM     31  H51 UNL     1      17.609  50.813 -55.571  1.00  0.00     0.275 HD
ENDBRANCH  27  28
BRANCH  27  32
HETATM   32  C8  UNL     1      15.530  48.432 -56.158  1.00  0.00     0.205 C
BRANCH  32  33
HETATM   33  O2  UNL     1      14.196  48.468 -56.488  1.00  0.00    -0.398 OA
ATOM     34  H2  UNL     1      13.841  47.608 -56.675  1.00  0.00     0.209 HD
ENDBRANCH  32  33
ENDBRANCH  27  32
ENDBRANCH   6  27
TORSDOF 9
ENDMDL