MODEL 5
REMARK VINA RESULT: -6.647399470      3.309      4.775
REMARK  6 active torsions:
REMARK  status: ('A' for Active; 'I' for Inactive)
REMARK       I    between atoms: C2_2  and  N1_4
REMARK    1  A    between atoms: N1_4  and  C3_6
REMARK    2  A    between atoms: C3_6  and  C4_7
REMARK    3  A    between atoms: C4_7  and  N2_8
REMARK    4  A    between atoms: C5_9  and  N3_10
REMARK    5  A    between atoms: N3_10  and  C6_12
REMARK    6  A    between atoms: C8_22  and  N9_23
ROOT
HETATM    1  N2  UNL     1      13.274  52.069 -49.102  1.00  0.00    -0.164 N
HETATM    2  C5  UNL     1      12.631  53.067 -49.728  1.00  0.00     0.701 A
HETATM    3  N8  UNL     1      11.305  53.040 -49.402  1.00  0.00    -0.183 N
ATOM      4  H8  UNL     1      10.587  53.683 -49.735  1.00  0.00     0.184 HD
HETATM    5  C7  UNL     1      11.120  52.009 -48.560  1.00  0.00     0.137 A
HETATM    6  C8  UNL     1      10.014  51.516 -47.923  1.00  0.00     0.131 A
HETATM    7  N10 UNL     1      10.134  50.443 -47.119  1.00  0.00    -0.337 N
ATOM      8  H10 UNL     1       9.307  50.077 -46.646  1.00  0.00     0.168 HD
HETATM    9  C9  UNL     1      11.328  49.841 -46.926  1.00  0.00     0.183 A
HETATM   10  N11 UNL     1      12.413  50.337 -47.561  1.00  0.00    -0.336 N
ATOM     11  H11 UNL     1      13.314  49.881 -47.415  1.00  0.00     0.168 HD
HETATM   12  C10 UNL     1      12.360  51.405 -48.377  1.00  0.00     0.155 A
ENDROOT
BRANCH   2  13
HETATM   13  N3  UNL     1      13.252  54.014 -50.604  1.00  0.00    -0.020 N
ATOM     14  H3  UNL     1      14.145  54.432 -50.344  1.00  0.00     0.203 HD
BRANCH  13  15
HETATM   15  C6  UNL     1      12.694  54.343 -51.717  1.00  0.00     0.722 A
HETATM   16  N4  UNL     1      12.146  53.540 -52.661  1.00  0.00    -0.116 N
HETATM   17  N5  UNL     1      11.702  54.338 -53.619  1.00  0.00     0.006 NA
ATOM     18  H4  UNL     1      12.088  52.522 -52.639  1.00  0.00     0.202 HD
HETATM   19  N6  UNL     1      11.945  55.603 -53.316  1.00  0.00     0.006 NA
HETATM   20  N7  UNL     1      12.561  55.605 -52.137  1.00  0.00    -0.116 N
ATOM     21  H7  UNL     1      12.880  56.434 -51.635  1.00  0.00     0.202 HD
ENDBRANCH  13  15
ENDBRANCH   2  13
BRANCH   1  22
HETATM   22  C4  UNL     1      14.661  51.752 -49.175  1.00  0.00     0.169 C
BRANCH  22  23
HETATM   23  C3  UNL     1      14.906  50.539 -50.021  1.00  0.00     0.143 C
BRANCH  23  24
HETATM   24  N1  UNL     1      15.894  49.648 -49.501  1.00  0.00    -0.360 N
HETATM   25  C2  UNL     1      15.661  48.591 -48.617  1.00  0.00     0.213 C
HETATM   26  C1  UNL     1      16.759  47.723 -48.137  1.00  0.00     0.117 C
HETATM   27  O1  UNL     1      14.500  48.360 -48.210  1.00  0.00    -0.274 OA
ATOM     28  H1  UNL     1      16.857  49.797 -49.802  1.00  0.00     0.162 HD
ENDBRANCH  23  24
ENDBRANCH  22  23
ENDBRANCH   1  22
BRANCH   6  29
HETATM   29  N9  UNL     1       8.883  52.096 -48.112  1.00  0.00    -0.383 N
ATOM     30  H92 UNL     1       8.567  52.366 -49.044  1.00  0.00     0.157 HD
ATOM     31  H91 UNL     1       8.289  52.287 -47.305  1.00  0.00     0.157 HD
ENDBRANCH   6  29
TORSDOF 6
ENDMDL