MODEL 2
REMARK VINA RESULT: -6.871648091      2.055      2.486
REMARK  6 active torsions:
REMARK  status: ('A' for Active; 'I' for Inactive)
REMARK    1  A    between atoms: N1_1  and  C1_4
REMARK    2  A    between atoms: C3_9  and  C4_10
REMARK       I    between atoms: C4_10  and  N4_12
REMARK    3  A    between atoms: N4_12  and  N5_14
REMARK    4  A    between atoms: C5_16  and  C6_17
REMARK    5  A    between atoms: N8_23  and  O2_24
REMARK    6  A    between atoms: C8_28  and  N10_29
ROOT
HETATM    1  C4  UNL     1      13.494  50.337 -50.509  1.00  0.00     0.290 C
HETATM    2  O1  UNL     1      12.927  51.199 -51.226  1.00  0.00    -0.264 OA
HETATM    3  N4  UNL     1      14.266  49.341 -51.136  1.00  0.00    -0.265 N
ATOM      4  H4  UNL     1      14.735  48.631 -50.573  1.00  0.00     0.190 HD
ENDROOT
BRANCH   1   5
HETATM    5  C3  UNL     1      13.329  50.401 -49.062  1.00  0.00     0.145 A
HETATM    6  C2  UNL     1      14.400  50.765 -48.277  1.00  0.00     0.150 A
HETATM    7  N2  UNL     1      14.203  50.810 -46.948  1.00  0.00    -0.326 N
HETATM    8  N3  UNL     1      15.639  51.072 -48.886  1.00  0.00    -0.080 NA
HETATM    9  C1  UNL     1      13.024  50.516 -46.411  1.00  0.00     0.151 A
ATOM     10  H2  UNL     1      14.976  51.077 -46.339  1.00  0.00     0.168 HD
HETATM   11  C8  UNL     1      11.947  50.148 -47.207  1.00  0.00     0.218 A
HETATM   12  N9  UNL     1      12.127  50.097 -48.555  1.00  0.00    -0.327 N
ATOM     13  H9  UNL     1      11.358  49.831 -49.170  1.00  0.00     0.168 HD
BRANCH   9  14
HETATM   14  N1  UNL     1      12.806  50.550 -45.142  1.00  0.00    -0.382 N
ATOM     15  H12 UNL     1      12.387  49.713 -44.736  1.00  0.00     0.157 HD
ATOM     16  H11 UNL     1      13.033  51.359 -44.562  1.00  0.00     0.157 HD
ENDBRANCH   9  14
BRANCH  11  17
HETATM   17  N10 UNL     1      10.696  49.837 -46.627  1.00  0.00    -0.094 N
HETATM   18  O3  UNL     1      10.642  49.051 -45.675  1.00  0.00    -0.530 OA
HETATM   19  O4  UNL     1       9.555  50.397 -47.112  1.00  0.00    -0.530 OA
ENDBRANCH  11  17
ENDBRANCH   1   5
BRANCH   3  20
HETATM   20  N5  UNL     1      14.391  49.323 -52.513  1.00  0.00    -0.305 N
HETATM   21  C5  UNL     1      15.195  48.492 -53.059  1.00  0.00     0.159 C
ATOM     22  H5  UNL     1      13.846  49.966 -53.088  1.00  0.00     0.186 HD
BRANCH  21  23
HETATM   23  C6  UNL     1      15.327  48.472 -54.503  1.00  0.00     0.169 A
HETATM   24  N6  UNL     1      16.481  48.512 -55.172  1.00  0.00    -0.333 N
HETATM   25  C7  UNL     1      16.203  48.476 -56.484  1.00  0.00     0.201 A
ATOM     26  H6  UNL     1      17.412  48.562 -54.757  1.00  0.00     0.168 HD
HETATM   27  N7  UNL     1      14.859  48.414 -56.621  1.00  0.00    -0.268 N
HETATM   28  N8  UNL     1      14.330  48.412 -55.420  1.00  0.00    -0.144 N
ATOM     29  H7  UNL     1      14.347  48.375 -57.502  1.00  0.00     0.190 HD
BRANCH  28  30
HETATM   30  O2  UNL     1      12.996  48.358 -55.097  1.00  0.00    -0.266 OA
ATOM     31  H2  UNL     1      12.348  47.879 -55.601  1.00  0.00     0.247 HD
ENDBRANCH  28  30
ENDBRANCH  21  23
ENDBRANCH   3  20
TORSDOF 6
ENDMDL