MODEL 1
REMARK VINA RESULT: -7.349758774      0.000      0.000
REMARK  7 active torsions:
REMARK  status: ('A' for Active; 'I' for Inactive)
REMARK    1  A    between atoms: C3_9  and  N4_10
REMARK    2  A    between atoms: N4_10  and  C4_12
REMARK    3  A    between atoms: C4_12  and  C5_13
REMARK    4  A    between atoms: C5_13  and  N5_14
REMARK    5  A    between atoms: N5_14  and  C6_16
REMARK    6  A    between atoms: C6_16  and  C7_20
REMARK    7  A    between atoms: C9_25  and  N9_26
ROOT
HETATM    1  C6  UNL     1      13.763  49.700 -50.903  1.00  0.00     0.126 C
HETATM    2  N6  UNL     1      12.981  50.710 -50.721  1.00  0.00    -0.384 N
ATOM      3  H61 UNL     1      12.427  51.092 -51.488  1.00  0.00     0.157 HD
ATOM      4  H62 UNL     1      12.919  51.129 -49.793  1.00  0.00     0.157 HD
ENDROOT
BRANCH   1   5
HETATM    5  N5  UNL     1      14.532  49.171 -49.838  1.00  0.00    -0.373 N
ATOM      6  H5  UNL     1      15.541  49.050 -49.921  1.00  0.00     0.161 HD
BRANCH   5   7
HETATM    7  C5  UNL     1      13.828  48.807 -48.626  1.00  0.00     0.141 C
BRANCH   7   8
HETATM    8  C4  UNL     1      14.170  49.734 -47.480  1.00  0.00     0.157 C
BRANCH   8   9
HETATM    9  N4  UNL     1      13.010  49.877 -46.634  1.00  0.00    -0.223 N
ATOM     10  H4  UNL     1      13.063  49.528 -45.677  1.00  0.00     0.177 HD
BRANCH   9  11
HETATM   11  C3  UNL     1      11.908  50.424 -47.026  1.00  0.00     0.695 A
HETATM   12  N3  UNL     1      10.739  49.838 -46.713  1.00  0.00    -0.118 N
HETATM   13  N2  UNL     1       9.631  50.444 -47.142  1.00  0.00    -0.227 N
ATOM     14  H3  UNL     1      10.701  48.974 -46.174  1.00  0.00     0.207 HD
HETATM   15  N1  UNL     1       9.649  51.565 -47.843  1.00  0.00    -0.274 N
ATOM     16  H2  UNL     1       8.728  50.024 -46.920  1.00  0.00     0.209 HD
HETATM   17  C2  UNL     1      10.810  52.167 -48.166  1.00  0.00     0.109 A
ATOM     18  H1  UNL     1       8.768  51.982 -48.144  1.00  0.00     0.189 HD
HETATM   19  C1  UNL     1      10.857  53.436 -48.959  1.00  0.00     0.091 C
HETATM   20  N12 UNL     1      11.935  51.564 -47.739  1.00  0.00    -0.178 N
ATOM     21  H12 UNL     1      12.836  51.985 -47.963  1.00  0.00     0.185 HD
ENDBRANCH   9  11
ENDBRANCH   8   9
ENDBRANCH   7   8
ENDBRANCH   5   7
ENDBRANCH   1   5
BRANCH   1  22
HETATM   22  C7  UNL     1      13.851  49.103 -52.227  1.00  0.00     0.122 A
HETATM   23  N7  UNL     1      13.227  48.006 -52.701  1.00  0.00    -0.345 N
HETATM   24  C8  UNL     1      13.582  47.789 -53.988  1.00  0.00     0.209 A
ATOM     25  H7  UNL     1      12.581  47.424 -52.167  1.00  0.00     0.167 HD
HETATM   26  N8  UNL     1      14.446  48.753 -54.353  1.00  0.00    -0.126 N
HETATM   27  C9  UNL     1      15.104  49.023 -55.492  1.00  0.00     0.685 A
HETATM   28  C11 UNL     1      14.615  49.562 -53.279  1.00  0.00     0.161 A
HETATM   29  N10 UNL     1      15.932  50.083 -55.591  1.00  0.00    -0.188 N
HETATM   30  C10 UNL     1      16.112  50.894 -54.538  1.00  0.00     0.199 A
ATOM     31  H10 UNL     1      16.421  50.267 -56.467  1.00  0.00     0.185 HD
HETATM   32  N11 UNL     1      15.456  50.630 -53.395  1.00  0.00    -0.335 N
ATOM     33  H11 UNL     1      15.590  51.245 -52.592  1.00  0.00     0.168 HD
BRANCH  27  34
HETATM   34  N9  UNL     1      14.942  48.257 -56.505  1.00  0.00    -0.234 N
ATOM     35  H92 UNL     1      14.915  47.247 -56.368  1.00  0.00     0.174 HD
ATOM     36  H91 UNL     1      14.842  48.671 -57.431  1.00  0.00     0.174 HD
ENDBRANCH  27  34
ENDBRANCH   1  22
TORSDOF 7
ENDMDL