MODEL 5
REMARK VINA RESULT: -6.809070179      1.861      2.603
REMARK  7 active torsions:
REMARK  status: ('A' for Active; 'I' for Inactive)
REMARK    1  A    between atoms: N1_1  and  C1_4
REMARK    2  A    between atoms: C4_11  and  C5_12
REMARK    3  A    between atoms: C5_12  and  N4_13
REMARK    4  A    between atoms: N4_13  and  C6_15
REMARK    5  A    between atoms: C6_15  and  N5_17
REMARK    6  A    between atoms: N5_17  and  C7_19
REMARK    7  A    between atoms: C7_19  and  C8_20
ROOT
HETATM    1  C5  UNL     1      13.984  52.859 -51.616  1.00  0.00     0.184 C
ENDROOT
BRANCH   1   2
HETATM    2  C4  UNL     1      13.596  51.458 -51.845  1.00  0.00     0.091 A
HETATM    3  C3  UNL     1      14.247  50.553 -52.663  1.00  0.00     0.173 A
HETATM    4  N3  UNL     1      15.368  50.686 -53.425  1.00  0.00    -0.334 N
HETATM    5  N12 UNL     1      13.548  49.417 -52.590  1.00  0.00    -0.053 N
HETATM    6  C2  UNL     1      15.795  49.631 -54.135  1.00  0.00     0.199 A
ATOM      7  H3  UNL     1      15.874  51.572 -53.455  1.00  0.00     0.168 HD
HETATM    8  N2  UNL     1      15.108  48.481 -54.077  1.00  0.00    -0.186 N
HETATM    9  C1  UNL     1      14.012  48.372 -53.324  1.00  0.00     0.701 A
ATOM     10  H2  UNL     1      15.429  47.677 -54.616  1.00  0.00     0.185 HD
HETATM   11  N11 UNL     1      12.543  49.607 -51.788  1.00  0.00    -0.220 N
HETATM   12  N10 UNL     1      12.553  50.830 -51.329  1.00  0.00    -0.284 N
ATOM     13  H11 UNL     1      11.845  48.902 -51.552  1.00  0.00     0.209 HD
ATOM     14  H10 UNL     1      11.872  51.233 -50.683  1.00  0.00     0.188 HD
BRANCH   9  15
HETATM   15  N1  UNL     1      13.357  47.263 -53.273  1.00  0.00    -0.233 N
ATOM     16  H12 UNL     1      13.526  46.576 -54.008  1.00  0.00     0.174 HD
ATOM     17  H11 UNL     1      12.694  47.084 -52.519  1.00  0.00     0.174 HD
ENDBRANCH   9  15
ENDBRANCH   1   2
BRANCH   1  18
HETATM   18  N4  UNL     1      13.307  53.378 -50.460  1.00  0.00    -0.361 N
ATOM     19  H4  UNL     1      12.345  53.708 -50.538  1.00  0.00     0.162 HD
BRANCH  18  20
HETATM   20  C6  UNL     1      13.977  53.430 -49.211  1.00  0.00     0.168 C
HETATM   21  S1  UNL     1      15.384  54.241 -49.106  1.00  0.00    -0.041 SA
BRANCH  20  22
HETATM   22  N5  UNL     1      13.415  52.809 -48.068  1.00  0.00    -0.360 N
ATOM     23  H5  UNL     1      12.985  53.400 -47.356  1.00  0.00     0.162 HD
BRANCH  22  24
HETATM   24  C7  UNL     1      13.422  51.396 -47.863  1.00  0.00     0.201 C
BRANCH  24  25
HETATM   25  C8  UNL     1      12.157  50.852 -47.306  1.00  0.00     0.131 A
HETATM   26  N6  UNL     1      10.905  50.890 -47.771  1.00  0.00    -0.271 N
HETATM   27  N7  UNL     1      10.147  50.257 -46.900  1.00  0.00    -0.227 N
ATOM     28  H6  UNL     1      10.594  51.327 -48.640  1.00  0.00     0.190 HD
HETATM   29  N8  UNL     1      10.878  49.820 -45.900  1.00  0.00    -0.227 N
ATOM     30  H7  UNL     1       9.139  50.126 -46.988  1.00  0.00     0.210 HD
HETATM   31  N9  UNL     1      12.117  50.184 -46.145  1.00  0.00    -0.271 N
ATOM     32  H8  UNL     1      10.548  49.299 -45.088  1.00  0.00     0.210 HD
ATOM     33  H9  UNL     1      12.920  49.988 -45.547  1.00  0.00     0.190 HD
ENDBRANCH  24  25
ENDBRANCH  22  24
ENDBRANCH  20  22
ENDBRANCH  18  20
ENDBRANCH   1  18
TORSDOF 7
ENDMDL