MODEL 5
REMARK VINA RESULT: -6.442226273      2.406      3.116
REMARK  7 active torsions:
REMARK  status: ('A' for Active; 'I' for Inactive)
REMARK    1  A    between atoms: N1_1  and  C1_4
REMARK    2  A    between atoms: C3_8  and  C4_9
REMARK    3  A    between atoms: C4_9  and  C5_10
REMARK    4  A    between atoms: C5_10  and  C6_11
REMARK    5  A    between atoms: C6_11  and  N3_12
REMARK    6  A    between atoms: N3_12  and  C7_15
REMARK    7  A    between atoms: C7_15  and  C8_16
ROOT
HETATM    1  C7  UNL     1       7.419  -6.426  35.114  1.00  0.00     0.265 C
ENDROOT
BRANCH   1   2
HETATM    2  N3  UNL     1       7.413  -6.420  33.674  1.00  0.00    -0.073 N
ATOM      3  H32 UNL     1       8.308  -6.085  33.316  1.00  0.00     0.277 HD
ATOM      4  H31 UNL     1       6.797  -5.685  33.325  1.00  0.00     0.277 HD
BRANCH   2   5
HETATM    5  C6  UNL     1       7.076  -7.680  33.073  1.00  0.00     0.232 C
BRANCH   5   6
HETATM    6  C5  UNL     1       6.412  -8.517  34.167  1.00  0.00     0.032 C
BRANCH   6   7
HETATM    7  C4  UNL     1       6.600  -9.976  33.926  1.00  0.00     0.043 C
BRANCH   7   8
HETATM    8  C3  UNL     1       7.384 -10.533  35.047  1.00  0.00    -0.026 A
HETATM    9  C2  UNL     1       7.299 -11.875  35.370  1.00  0.00     0.114 A
HETATM   10  N2  UNL     1       8.020 -12.356  36.396  1.00  0.00    -0.202 N
HETATM   11  C1  UNL     1       8.818 -11.528  37.099  1.00  0.00     0.675 A
ATOM     12  H2  UNL     1       7.964 -13.344  36.641  1.00  0.00     0.183 HD
HETATM   13  N7  UNL     1       8.936 -10.211  36.824  1.00  0.00    -0.202 N
HETATM   14  C17 UNL     1       8.201  -9.720  35.778  1.00  0.00     0.114 A
ATOM     15  H7  UNL     1       9.548  -9.607  37.373  1.00  0.00     0.183 HD
BRANCH  11  16
HETATM   16  N1  UNL     1       9.493 -12.033  38.072  1.00  0.00    -0.234 N
ATOM     17  H12 UNL     1       9.671 -13.037  38.088  1.00  0.00     0.174 HD
ATOM     18  H11 UNL     1       9.824 -11.397  38.798  1.00  0.00     0.174 HD
ENDBRANCH  11  16
ENDBRANCH   7   8
ENDBRANCH   6   7
ENDBRANCH   5   6
ENDBRANCH   2   5
ENDBRANCH   1   2
BRANCH   1  19
HETATM   19  C8  UNL     1       6.806  -5.175  35.624  1.00  0.00     0.174 C
HETATM   20  C9  UNL     1       5.965  -4.559  34.520  1.00  0.00     0.265 C
HETATM   21  N4  UNL     1       4.599  -4.522  34.919  1.00  0.00    -0.070 N
HETATM   22  C10 UNL     1       4.227  -5.841  35.403  1.00  0.00     0.276 C
ATOM     23  H42 UNL     1       4.409  -3.787  35.600  1.00  0.00     0.277 HD
ATOM     24  H41 UNL     1       3.982  -4.188  34.179  1.00  0.00     0.277 HD
HETATM   25  C11 UNL     1       4.918  -5.972  36.768  1.00  0.00     0.130 C
HETATM   26  C12 UNL     1       5.155  -7.400  37.104  1.00  0.00     0.047 C
HETATM   27  C16 UNL     1       3.959  -5.306  37.723  1.00  0.00     0.086 A
HETATM   28  O1  UNL     1       6.110  -5.307  36.807  1.00  0.00    -0.363 OA
HETATM   29  C13 UNL     1       4.552  -7.904  38.372  1.00  0.00     0.010 C
HETATM   30  C14 UNL     1       4.572  -6.879  39.490  1.00  0.00     0.061 C
HETATM   31  C15 UNL     1       3.786  -5.725  39.025  1.00  0.00     0.053 A
HETATM   32  N5  UNL     1       2.884  -4.764  39.246  1.00  0.00    -0.302 N
HETATM   33  N6  UNL     1       3.032  -4.351  38.010  1.00  0.00    -0.300 N
ATOM     34  H5  UNL     1       2.316  -4.474  40.042  1.00  0.00     0.186 HD
ATOM     35  H6  UNL     1       2.612  -3.596  37.468  1.00  0.00     0.186 HD
ENDBRANCH   1  19
TORSDOF 7
ENDMDL