MODEL 1
REMARK VINA RESULT: -7.043059768      0.000      0.000
REMARK  7 active torsions:
REMARK  status: ('A' for Active; 'I' for Inactive)
REMARK    1  A    between atoms: C3_10  and  C4_11
REMARK    2  A    between atoms: C4_11  and  C5_12
REMARK    3  A    between atoms: C5_12  and  N4_13
REMARK    4  A    between atoms: N4_13  and  C6_16
REMARK    5  A    between atoms: C6_16  and  C7_17
REMARK    6  A    between atoms: C7_17  and  C8_18
REMARK    7  A    between atoms: C8_18  and  O1_19
ROOT
HETATM    1  N4  UNL     1       8.216  -6.106  36.879  1.00  0.00    -0.075 N
ATOM      2  H41 UNL     1       8.007  -6.750  37.641  1.00  0.00     0.277 HD
ATOM      3  H42 UNL     1       9.190  -5.903  37.105  1.00  0.00     0.277 HD
ENDROOT
BRANCH   1   4
HETATM    4  C5  UNL     1       7.400  -4.919  36.955  1.00  0.00     0.239 C
BRANCH   4   5
HETATM    5  C4  UNL     1       6.499  -4.943  35.711  1.00  0.00     0.104 C
BRANCH   5   6
HETATM    6  C3  UNL     1       5.106  -4.761  36.214  1.00  0.00     0.099 A
HETATM    7  N3  UNL     1       4.193  -4.397  35.295  1.00  0.00    -0.341 N
HETATM    8  C2  UNL     1       2.910  -4.206  35.634  1.00  0.00     0.199 A
ATOM      9  H3  UNL     1       4.482  -4.263  34.326  1.00  0.00     0.167 HD
HETATM   10  N2  UNL     1       2.540  -4.384  36.922  1.00  0.00    -0.188 N
HETATM   11  C1  UNL     1       3.468  -4.747  37.817  1.00  0.00     0.678 A
ATOM     12  H2  UNL     1       1.570  -4.245  37.208  1.00  0.00     0.185 HD
HETATM   13  N1  UNL     1       3.144  -4.925  39.063  1.00  0.00    -0.234 N
HETATM   14  N6  UNL     1       4.746  -4.939  37.481  1.00  0.00    -0.181 N
ATOM     15  H12 UNL     1       2.168  -4.779  39.320  1.00  0.00     0.174 HD
ATOM     16  H11 UNL     1       3.851  -5.202  39.745  1.00  0.00     0.174 HD
ATOM     17  H6  UNL     1       5.432  -5.216  38.183  1.00  0.00     0.185 HD
ENDBRANCH   5   6
ENDBRANCH   4   5
ENDBRANCH   1   4
BRANCH   1  18
HETATM   18  C6  UNL     1       8.097  -6.767  35.569  1.00  0.00     0.235 C
BRANCH  18  19
HETATM   19  C7  UNL     1       8.443  -8.180  35.682  1.00  0.00     0.069 C
BRANCH  19  20
HETATM   20  C8  UNL     1       7.456  -9.199  35.137  1.00  0.00     0.078 C
HETATM   21  C9  UNL     1       7.756 -10.473  35.726  1.00  0.00     0.042 C
HETATM   22  C10 UNL     1       7.379 -11.763  34.949  1.00  0.00     0.003 C
HETATM   23  C11 UNL     1       5.975 -11.880  35.266  1.00  0.00     0.000 C
HETATM   24  C12 UNL     1       5.006 -12.941  34.998  1.00  0.00     0.000 C
HETATM   25  C13 UNL     1       3.717 -12.258  35.561  1.00  0.00     0.005 C
HETATM   26  C14 UNL     1       3.314 -11.040  34.821  1.00  0.00     0.044 C
HETATM   27  C15 UNL     1       3.321  -9.712  35.453  1.00  0.00     0.060 C
HETATM   28  N5  UNL     1       4.088  -9.331  36.523  1.00  0.00    -0.379 N
HETATM   29  C16 UNL     1       5.312  -8.642  36.468  1.00  0.00     0.086 C
ATOM     30  H5  UNL     1       3.738  -9.571  37.450  1.00  0.00     0.164 HD
HETATM   31  C17 UNL     1       6.114  -8.560  35.257  1.00  0.00     0.027 C
BRANCH  20  32
HETATM   32  O1  UNL     1       7.701  -9.224  33.740  1.00  0.00    -0.386 OA
ATOM     33  H1  UNL     1       6.843  -9.128  33.344  1.00  0.00     0.211 HD
ENDBRANCH  20  32
ENDBRANCH  19  20
ENDBRANCH  18  19
ENDBRANCH   1  18
TORSDOF 7
ENDMDL