MODEL 2
REMARK VINA RESULT: -6.843430437      4.357      5.552
REMARK  6 active torsions:
REMARK  status: ('A' for Active; 'I' for Inactive)
REMARK       I    between atoms: C1_4  and  N3_6
REMARK    1  A    between atoms: N3_6  and  C2_8
REMARK    2  A    between atoms: C3_11  and  C4_12
REMARK    3  A    between atoms: C4_12  and  C5_13
REMARK    4  A    between atoms: C8_16  and  N6_17
REMARK    5  A    between atoms: C16_26  and  C17_27
REMARK    6  A    between atoms: C17_27  and  N7_28
ROOT
HETATM    1  C2  UNL     1       4.873  -6.493  36.843  1.00  0.00     0.225 C
HETATM    2  N4  UNL     1       6.226  -6.063  37.134  1.00  0.00    -0.118 NA
HETATM    3  N5  UNL     1       7.141  -6.867  36.491  1.00  0.00    -0.114 NA
HETATM    4  C3  UNL     1       6.641  -8.191  36.279  1.00  0.00     0.235 C
HETATM    5  O1  UNL     1       5.883  -8.594  37.363  1.00  0.00    -0.358 OA
HETATM    6  C16 UNL     1       4.705  -7.863  37.459  1.00  0.00     0.189 C
ENDROOT
BRANCH   4   7
HETATM    7  C4  UNL     1       7.671  -9.196  35.873  1.00  0.00     0.089 C
BRANCH   7   8
HETATM    8  C5  UNL     1       7.155 -10.388  35.197  1.00  0.00    -0.054 A
HETATM    9  C6  UNL     1       7.802 -11.610  35.298  1.00  0.00     0.009 A
HETATM   10  C7  UNL     1       7.330 -12.740  34.673  1.00  0.00     0.030 A
HETATM   11  C8  UNL     1       6.182 -12.715  33.909  1.00  0.00     0.030 A
HETATM   12  C14 UNL     1       5.526 -11.531  33.793  1.00  0.00     0.030 A
HETATM   13  C15 UNL     1       6.009 -10.380  34.431  1.00  0.00     0.009 A
BRANCH  11  14
HETATM   14  N6  UNL     1       5.728 -13.883  33.278  1.00  0.00    -0.381 N
HETATM   15  C9  UNL     1       4.474 -14.513  33.732  1.00  0.00     0.123 C
HETATM   16  C10 UNL     1       4.451 -15.921  33.181  1.00  0.00     0.020 C
HETATM   17  C11 UNL     1       5.778 -16.624  33.330  1.00  0.00     0.003 C
HETATM   18  C12 UNL     1       6.879 -15.923  32.598  1.00  0.00     0.020 C
HETATM   19  C13 UNL     1       6.390 -14.550  32.183  1.00  0.00     0.123 C
ENDBRANCH  11  14
ENDBRANCH   7   8
ENDBRANCH   4   7
BRANCH   6  20
HETATM   20  C17 UNL     1       4.429  -7.727  38.956  1.00  0.00     0.265 C
BRANCH  20  21
HETATM   21  N7  UNL     1       5.639  -7.818  39.727  1.00  0.00    -0.077 N
ATOM     22  H73 UNL     1       6.288  -8.493  39.324  1.00  0.00     0.274 HD
ATOM     23  H72 UNL     1       6.205  -6.976  39.630  1.00  0.00     0.274 HD
ATOM     24  H71 UNL     1       5.445  -8.025  40.707  1.00  0.00     0.274 HD
ENDBRANCH  20  21
ENDBRANCH   6  20
BRANCH   1  25
HETATM   25  N3  UNL     1       3.895  -5.540  37.333  1.00  0.00    -0.343 N
HETATM   26  C1  UNL     1       3.424  -4.518  36.467  1.00  0.00     0.183 C
HETATM   27  N1  UNL     1       4.138  -4.164  35.454  1.00  0.00    -0.374 N
HETATM   28  N2  UNL     1       2.184  -3.859  36.673  1.00  0.00    -0.064 NA
ATOM     29  H12 UNL     1       3.799  -3.430  34.831  1.00  0.00     0.158 HD
ATOM     30  H11 UNL     1       5.029  -4.638  35.306  1.00  0.00     0.158 HD
ATOM     31  H3  UNL     1       3.549  -5.603  38.291  1.00  0.00     0.164 HD
ENDBRANCH   1  25
TORSDOF 6
ENDMDL