MODEL 3
REMARK VINA RESULT: -6.912639631      1.220      1.923
REMARK  8 active torsions:
REMARK  status: ('A' for Active; 'I' for Inactive)
REMARK    1  A    between atoms: N1_2  and  N2_4
REMARK    2  A    between atoms: N3_6  and  O1_7
REMARK    3  A    between atoms: N3_6  and  N4_9
REMARK       I    between atoms: N4_9  and  C2_11
REMARK       I    between atoms: C2_11  and  N6_15
REMARK    4  A    between atoms: N6_15  and  C3_17
REMARK    5  A    between atoms: C3_17  and  C4_18
REMARK    6  A    between atoms: C7_21  and  C8_22
REMARK    7  A    between atoms: N7_24  and  N8_26
REMARK    8  A    between atoms: N8_26  and  C10_28
ROOT
HETATM    1  C4  UNL     1       3.400  -9.018  39.172  1.00  0.00    -0.040 A
HETATM    2  C5  UNL     1       2.305  -9.096  39.999  1.00  0.00     0.010 A
HETATM    3  C6  UNL     1       1.154  -9.804  39.642  1.00  0.00     0.014 A
HETATM    4  C7  UNL     1       1.097 -10.452  38.419  1.00  0.00    -0.013 A
HETATM    5  C14 UNL     1       2.182 -10.382  37.582  1.00  0.00     0.014 A
HETATM    6  C15 UNL     1       3.299  -9.679  37.963  1.00  0.00     0.010 A
ENDROOT
BRANCH   1   7
HETATM    7  C3  UNL     1       4.647  -8.301  39.463  1.00  0.00     0.176 C
BRANCH   7   8
HETATM    8  N6  UNL     1       4.590  -6.884  39.410  1.00  0.00    -0.221 N
HETATM    9  C2  UNL     1       5.065  -6.263  38.202  1.00  0.00     0.689 C
HETATM   10  N4  UNL     1       4.197  -5.544  37.335  1.00  0.00    -0.089 N
HETATM   11  N5  UNL     1       6.314  -6.336  37.853  1.00  0.00    -0.233 N
ATOM     12  H4  UNL     1       4.244  -5.746  36.337  1.00  0.00     0.210 HD
ATOM     13  H52 UNL     1       6.652  -5.895  36.996  1.00  0.00     0.174 HD
ATOM     14  H51 UNL     1       6.937  -6.851  38.474  1.00  0.00     0.174 HD
ATOM     15  H6  UNL     1       4.230  -6.333  40.189  1.00  0.00     0.178 HD
BRANCH  10  16
HETATM   16  N3  UNL     1       3.290  -4.584  37.763  1.00  0.00    -0.065 N
HETATM   17  N2  UNL     1       2.667  -3.837  36.965  1.00  0.00    -0.201 N
ATOM     18  H2  UNL     1       2.021  -3.161  37.375  1.00  0.00     0.212 HD
BRANCH  17  19
HETATM   19  N1  UNL     1       2.773  -3.844  35.591  1.00  0.00    -0.304 N
HETATM   20  C1  UNL     1       2.770  -4.953  34.942  1.00  0.00     0.140 C
ATOM     21  H1  UNL     1       2.855  -2.962  35.085  1.00  0.00     0.186 HD
ENDBRANCH  17  19
BRANCH  16  22
HETATM   22  O1  UNL     1       3.072  -4.451  39.102  1.00  0.00    -0.252 OA
ATOM     23  H1  UNL     1       2.195  -4.255  39.410  1.00  0.00     0.248 HD
ENDBRANCH  16  22
ENDBRANCH  10  16
ENDBRANCH   7   8
ENDBRANCH   1   7
BRANCH   4  24
HETATM   24  C8  UNL     1      -0.075 -11.197  38.003  1.00  0.00     0.032 C
HETATM   25  C9  UNL     1      -0.396 -11.273  36.560  1.00  0.00     0.070 C
HETATM   26  N7  UNL     1      -0.804 -11.769  38.889  1.00  0.00    -0.290 N
ATOM     27  H7  UNL     1      -0.518 -11.671  39.863  1.00  0.00     0.187 HD
BRANCH  26  28
HETATM   28  N8  UNL     1      -1.946 -12.508  38.637  1.00  0.00    -0.132 N
ATOM     29  H8  UNL     1      -2.806 -12.008  38.412  1.00  0.00     0.205 HD
BRANCH  28  30
HETATM   30  C10 UNL     1      -1.983 -13.944  38.674  1.00  0.00     0.688 C
HETATM   31  N9  UNL     1      -2.931 -14.572  39.273  1.00  0.00    -0.225 N
HETATM   32  C11 UNL     1      -3.069 -16.003  39.373  1.00  0.00     0.139 C
ATOM     33  H9  UNL     1      -3.652 -14.005  39.718  1.00  0.00     0.177 HD
HETATM   34  C12 UNL     1      -1.925 -16.786  38.825  1.00  0.00     0.040 C
HETATM   35  C13 UNL     1      -1.236 -16.073  37.673  1.00  0.00     0.139 C
HETATM   36  N10 UNL     1      -0.961 -14.701  38.043  1.00  0.00    -0.225 N
ATOM     37  H10 UNL     1      -0.049 -14.286  37.855  1.00  0.00     0.177 HD
ENDBRANCH  28  30
ENDBRANCH  26  28
ENDBRANCH   4  24
TORSDOF 8
ENDMDL