MODEL 5
REMARK VINA RESULT: -6.104903440      2.142      3.017
REMARK  10 active torsions:
REMARK  status: ('A' for Active; 'I' for Inactive)
REMARK    1  A    between atoms: C2_2  and  N1_3
REMARK    2  A    between atoms: C4_8  and  C5_9
REMARK    3  A    between atoms: C5_9  and  N2_10
REMARK    4  A    between atoms: N2_10  and  C6_13
REMARK    5  A    between atoms: C6_13  and  C7_14
REMARK    6  A    between atoms: C13_20  and  C14_21
REMARK    7  A    between atoms: C13_20  and  N3_24
REMARK    8  A    between atoms: C14_21  and  O1_22
REMARK    9  A    between atoms: C17_27  and  N4_28
REMARK   10  A    between atoms: C18_33  and  N6_34
ROOT
HETATM    1  C1  UNL     1       6.953  -4.885  36.046  1.00  0.00     0.049 C
HETATM    2  C2  UNL     1       6.758  -6.390  36.195  1.00  0.00     0.149 C
HETATM    3  C3  UNL     1       6.864  -6.960  34.765  1.00  0.00     0.050 C
HETATM    4  C4  UNL     1       5.742  -7.906  35.145  1.00  0.00     0.048 C
HETATM    5  C13 UNL     1       5.399  -6.885  36.240  1.00  0.00     0.113 C
ENDROOT
BRANCH   5   6
HETATM    6  C14 UNL     1       4.426  -5.873  35.580  1.00  0.00     0.199 C
BRANCH   6   7
HETATM    7  O1  UNL     1       3.439  -5.508  36.494  1.00  0.00    -0.398 OA
ATOM      8  H1  UNL     1       3.655  -4.667  36.879  1.00  0.00     0.209 HD
ENDBRANCH   6   7
ENDBRANCH   5   6
BRANCH   5   9
HETATM    9  N3  UNL     1       4.754  -7.518  37.315  1.00  0.00    -0.179 N
HETATM   10  C15 UNL     1       4.003  -8.611  37.038  1.00  0.00     0.114 A
HETATM   11  C16 UNL     1       3.319  -9.307  38.031  1.00  0.00     0.066 A
HETATM   12  C17 UNL     1       3.401  -8.880  39.339  1.00  0.00     0.116 A
HETATM   13  N5  UNL     1       4.142  -7.808  39.579  1.00  0.00    -0.177 N
HETATM   14  C18 UNL     1       4.798  -7.147  38.602  1.00  0.00     0.680 A
ATOM     15  H5  UNL     1       4.220  -7.469  40.538  1.00  0.00     0.185 HD
BRANCH  12  16
HETATM   16  N4  UNL     1       2.782  -9.491  40.317  1.00  0.00    -0.385 N
ATOM     17  H42 UNL     1       1.895  -9.133  40.671  1.00  0.00     0.157 HD
ATOM     18  H41 UNL     1       3.153 -10.333  40.757  1.00  0.00     0.157 HD
ENDBRANCH  12  16
BRANCH  14  19
HETATM   19  N6  UNL     1       5.453  -6.125  38.943  1.00  0.00    -0.234 N
ATOM     20  H62 UNL     1       5.512  -5.925  39.941  1.00  0.00     0.174 HD
ATOM     21  H61 UNL     1       5.877  -5.530  38.231  1.00  0.00     0.174 HD
ENDBRANCH  14  19
ENDBRANCH   5   9
BRANCH   2  22
HETATM   22  N1  UNL     1       7.832  -6.934  36.950  1.00  0.00    -0.068 N
ATOM     23  H13 UNL     1       8.571  -7.308  36.355  1.00  0.00     0.275 HD
ATOM     24  H12 UNL     1       8.377  -6.212  37.422  1.00  0.00     0.275 HD
ATOM     25  H11 UNL     1       7.471  -7.632  37.601  1.00  0.00     0.275 HD
ENDBRANCH   2  22
BRANCH   4  26
HETATM   26  C5  UNL     1       6.329  -9.202  35.561  1.00  0.00     0.239 C
BRANCH  26  27
HETATM   27  N2  UNL     1       6.100 -10.137  34.429  1.00  0.00    -0.071 N
ATOM     28  H22 UNL     1       5.419  -9.775  33.761  1.00  0.00     0.277 HD
ATOM     29  H21 UNL     1       6.904 -10.190  33.803  1.00  0.00     0.277 HD
BRANCH  27  30
HETATM   30  C6  UNL     1       5.720 -11.445  34.950  1.00  0.00     0.270 C
BRANCH  30  31
HETATM   31  C7  UNL     1       4.243 -11.498  34.934  1.00  0.00    -0.033 A
HETATM   32  C8  UNL     1       3.494 -10.788  34.029  1.00  0.00     0.009 A
HETATM   33  C9  UNL     1       2.101 -10.853  34.031  1.00  0.00     0.001 A
HETATM   34  C10 UNL     1       1.463 -11.650  34.966  1.00  0.00     0.000 A
HETATM   35  C11 UNL     1       2.200 -12.362  35.872  1.00  0.00     0.001 A
HETATM   36  C12 UNL     1       3.590 -12.283  35.853  1.00  0.00     0.009 A
ENDBRANCH  30  31
ENDBRANCH  27  30
ENDBRANCH  26  27
ENDBRANCH   4  26
TORSDOF 10
ENDMDL