MODEL 2
REMARK VINA RESULT: -6.069035139      1.094      1.522
REMARK  12 active torsions:
REMARK  status: ('A' for Active; 'I' for Inactive)
REMARK    1  A    between atoms: C2_2  and  O1_4
REMARK    2  A    between atoms: C2_2  and  C4_6
REMARK    3  A    between atoms: C4_6  and  N1_7
REMARK    4  A    between atoms: N1_7  and  C5_10
REMARK    5  A    between atoms: C5_10  and  C7_12
REMARK    6  A    between atoms: C5_10  and  C13_20
REMARK    7  A    between atoms: C8_13  and  C9_14
REMARK    8  A    between atoms: C9_14  and  C12_17
REMARK    9  A    between atoms: C12_17  and  O2_18
REMARK   10  A    between atoms: C13_20  and  S1_21
REMARK   11  A    between atoms: S1_21  and  C14_22
REMARK   12  A    between atoms: C15_25  and  N3_26
ROOT
HETATM    1  C5  UNL     1       7.341  -6.874  34.903  1.00  0.00     0.193 C
HETATM    2  C6  UNL     1       6.876  -5.776  34.000  1.00  0.00     0.061 C
ENDROOT
BRANCH   1   3
HETATM    3  N1  UNL     1       8.477  -7.511  34.297  1.00  0.00    -0.052 N
ATOM      4  H12 UNL     1       8.849  -6.934  33.543  1.00  0.00     0.279 HD
ATOM      5  H11 UNL     1       8.183  -8.329  33.762  1.00  0.00     0.279 HD
BRANCH   3   6
HETATM    6  C4  UNL     1       9.508  -7.859  35.210  1.00  0.00     0.271 C
BRANCH   6   7
HETATM    7  C2  UNL     1       9.710  -9.365  35.304  1.00  0.00     0.074 C
HETATM    8  C1  UNL     1       8.920  -9.961  36.440  1.00  0.00     0.047 C
HETATM    9  C3  UNL     1       9.233  -9.960  33.997  1.00  0.00     0.047 C
BRANCH   7  10
HETATM   10  O1  UNL     1      11.060  -9.680  35.443  1.00  0.00    -0.389 OA
ATOM     11  H1  UNL     1      11.417  -9.258  36.216  1.00  0.00     0.210 HD
ENDBRANCH   7  10
ENDBRANCH   6   7
ENDBRANCH   3   6
ENDBRANCH   1   3
BRANCH   1  12
HETATM   12  C7  UNL     1       6.280  -7.939  34.994  1.00  0.00    -0.066 C
HETATM   13  C8  UNL     1       5.446  -8.805  35.078  1.00  0.00    -0.092 C
BRANCH  13  14
HETATM   14  C9  UNL     1       4.450  -9.871  35.192  1.00  0.00     0.037 C
HETATM   15  C10 UNL     1       3.688  -9.628  36.475  1.00  0.00     0.031 C
HETATM   16  C11 UNL     1       5.190 -11.189  35.282  1.00  0.00     0.031 C
BRANCH  14  17
HETATM   17  C12 UNL     1       3.539  -9.917  33.985  1.00  0.00     0.185 C
BRANCH  17  18
HETATM   18  O2  UNL     1       2.502  -9.023  34.049  1.00  0.00    -0.399 OA
ATOM     19  H2  UNL     1       2.519  -8.479  34.828  1.00  0.00     0.209 HD
ENDBRANCH  17  18
ENDBRANCH  14  17
ENDBRANCH  13  14
ENDBRANCH   1  12
BRANCH   1  20
HETATM   20  C13 UNL     1       7.571  -6.394  36.282  1.00  0.00     0.134 C
BRANCH  20  21
HETATM   21  S1  UNL     1       6.897  -4.814  36.652  1.00  0.00    -0.089 SA
BRANCH  21  22
HETATM   22  C14 UNL     1       5.200  -4.738  37.124  1.00  0.00     0.174 A
HETATM   23  N2  UNL     1       4.721  -5.056  38.377  1.00  0.00    -0.168 N
HETATM   24  C15 UNL     1       3.396  -4.914  38.395  1.00  0.00     0.692 A
ATOM     25  H2  UNL     1       5.291  -5.354  39.169  1.00  0.00     0.186 HD
HETATM   26  N4  UNL     1       3.011  -4.514  37.191  1.00  0.00    -0.130 N
HETATM   27  N5  UNL     1       4.097  -4.414  36.444  1.00  0.00    -0.265 N
ATOM     28  H4  UNL     1       2.054  -4.321  36.896  1.00  0.00     0.205 HD
ATOM     29  H5  UNL     1       4.093  -4.124  35.465  1.00  0.00     0.189 HD
BRANCH  24  30
HETATM   30  N3  UNL     1       2.581  -5.121  39.397  1.00  0.00    -0.233 N
ATOM     31  H32 UNL     1       2.745  -4.790  40.348  1.00  0.00     0.174 HD
ATOM     32  H31 UNL     1       1.692  -5.622  39.386  1.00  0.00     0.174 HD
ENDBRANCH  24  30
ENDBRANCH  21  22
ENDBRANCH  20  21
ENDBRANCH   1  20
TORSDOF 12
ENDMDL