MODEL 5
REMARK VINA RESULT: -6.537954768      2.426      6.504
REMARK  8 active torsions:
REMARK  status: ('A' for Active; 'I' for Inactive)
REMARK    1  A    between atoms: C8_14  and  C9_15
REMARK    2  A    between atoms: C9_15  and  S1_16
REMARK    3  A    between atoms: S1_16  and  C10_17
REMARK    4  A    between atoms: C10_17  and  C11_18
REMARK    5  A    between atoms: C11_18  and  C12_19
REMARK    6  A    between atoms: C12_19  and  N4_20
REMARK    7  A    between atoms: C12_19  and  C13_24
REMARK    8  A    between atoms: C14_27  and  N6_28
ROOT
HETATM    1  N1  UNL     1       3.285  -3.754  38.923  1.00  0.00    -0.388 N
ATOM      2  H11 UNL     1       3.922  -3.664  39.715  1.00  0.00     0.157 HD
ATOM      3  H12 UNL     1       2.473  -3.203  39.200  1.00  0.00     0.157 HD
HETATM    4  C1  UNL     1       3.423  -4.390  37.818  1.00  0.00     0.092 C
HETATM    5  N2  UNL     1       2.534  -4.515  36.713  1.00  0.00    -0.293 N
ATOM      6  H2  UNL     1       1.573  -4.174  36.687  1.00  0.00     0.183 HD
HETATM    7  N3  UNL     1       3.196  -5.190  35.653  1.00  0.00    -0.134 NA
HETATM    8  C2  UNL     1       4.569  -4.867  35.941  1.00  0.00     0.117 C
HETATM    9  C3  UNL     1       4.603  -5.191  37.416  1.00  0.00     0.075 C
HETATM   10  C4  UNL     1       5.896  -4.734  37.949  1.00  0.00     0.014 C
HETATM   11  C5  UNL     1       7.003  -5.437  37.195  1.00  0.00     0.006 C
HETATM   12  C6  UNL     1       6.961  -5.291  35.730  1.00  0.00    -0.006 C
HETATM   13  C7  UNL     1       7.796  -6.418  35.090  1.00  0.00     0.012 C
HETATM   14  C8  UNL     1       6.920  -7.117  34.123  1.00  0.00     0.026 C
HETATM   15  C14 UNL     1       5.517  -6.903  34.781  1.00  0.00     0.194 C
HETATM   16  C15 UNL     1       5.606  -5.470  35.110  1.00  0.00     0.042 C
ENDROOT
BRANCH  14  17
HETATM   17  C9  UNL     1       7.120  -8.530  33.833  1.00  0.00     0.080 C
BRANCH  17  18
HETATM   18  S1  UNL     1       8.281  -9.453  34.740  1.00  0.00    -0.169 SA
BRANCH  18  19
HETATM   19  C10 UNL     1       7.829 -10.984  35.467  1.00  0.00     0.076 C
BRANCH  19  20
HETATM   20  C11 UNL     1       6.970 -11.884  34.611  1.00  0.00     0.052 C
BRANCH  20  21
HETATM   21  C12 UNL     1       5.716 -12.307  35.389  1.00  0.00     0.272 C
BRANCH  21  22
HETATM   22  N4  UNL     1       5.273 -13.540  34.758  1.00  0.00    -0.067 N
ATOM     23  H43 UNL     1       4.552 -13.405  34.049  1.00  0.00     0.275 HD
ATOM     24  H42 UNL     1       5.968 -13.959  34.140  1.00  0.00     0.275 HD
ATOM     25  H41 UNL     1       4.987 -14.147  35.526  1.00  0.00     0.275 HD
ENDBRANCH  21  22
BRANCH  21  26
HETATM   26  C13 UNL     1       4.736 -11.228  35.402  1.00  0.00     0.261 C
HETATM   27  N5  UNL     1       4.061 -10.802  36.562  1.00  0.00    -0.060 NA
HETATM   28  O1  UNL     1       4.446 -10.617  34.323  1.00  0.00    -0.275 OA
ENDBRANCH  21  26
ENDBRANCH  20  21
ENDBRANCH  19  20
ENDBRANCH  18  19
ENDBRANCH  17  18
ENDBRANCH  14  17
BRANCH  15  29
HETATM   29  N6  UNL     1       5.338  -7.831  35.827  1.00  0.00    -0.074 N
ATOM     30  H63 UNL     1       6.217  -8.262  36.113  1.00  0.00     0.274 HD
ATOM     31  H62 UNL     1       5.104  -7.376  36.709  1.00  0.00     0.274 HD
ATOM     32  H61 UNL     1       4.640  -8.523  35.555  1.00  0.00     0.274 HD
ENDBRANCH  15  29
TORSDOF 8
ENDMDL