MODEL 1
REMARK VINA RESULT: -6.762565508      0.000      0.000
REMARK  10 active torsions:
REMARK  status: ('A' for Active; 'I' for Inactive)
REMARK    1  A    between atoms: C2_2  and  C4_4
REMARK    2  A    between atoms: C4_4  and  C5_5
REMARK    3  A    between atoms: C5_5  and  C6_6
REMARK    4  A    between atoms: C6_6  and  C7_7
REMARK    5  A    between atoms: C8_8  and  O1_9
REMARK    6  A    between atoms: C9_11  and  O2_12
REMARK    7  A    between atoms: C13_17  and  S1_18
REMARK    8  A    between atoms: S1_18  and  C14_19
REMARK    9  A    between atoms: C15_23  and  N2_24
REMARK   10  A    between atoms: C16_28  and  O3_29
ROOT
HETATM    1  C7  UNL     1       4.994  -5.792  38.003  1.00  0.00     0.031 C
HETATM    2  C8  UNL     1       3.815  -4.888  38.000  1.00  0.00     0.152 C
HETATM    3  C9  UNL     1       3.094  -4.822  36.649  1.00  0.00     0.147 C
HETATM    4  C10 UNL     1       4.135  -4.822  35.586  1.00  0.00     0.039 C
HETATM    5  C11 UNL     1       4.693  -6.235  35.529  1.00  0.00    -0.002 C
HETATM    6  C12 UNL     1       3.665  -7.106  34.849  1.00  0.00     0.011 C
HETATM    7  C13 UNL     1       5.090  -6.770  36.884  1.00  0.00     0.061 C
ENDROOT
BRANCH   7   8
HETATM    8  S1  UNL     1       6.823  -7.331  36.687  1.00  0.00    -0.103 SA
BRANCH   8   9
HETATM    9  C14 UNL     1       7.062  -8.083  35.055  1.00  0.00     0.450 C
HETATM   10  N1  UNL     1       8.246  -7.582  34.415  1.00  0.00    -0.004 N
HETATM   11  C15 UNL     1       9.283  -8.499  34.775  1.00  0.00     0.439 C
ATOM     12  H12 UNL     1       8.146  -7.448  33.409  1.00  0.00     0.283 HD
ATOM     13  H11 UNL     1       8.458  -6.611  34.643  1.00  0.00     0.283 HD
HETATM   14  C16 UNL     1       8.611  -9.803  35.054  1.00  0.00     0.380 C
HETATM   15  N3  UNL     1       7.228  -9.492  35.111  1.00  0.00    -0.007 N
ATOM     16  H32 UNL     1       6.772  -9.903  35.925  1.00  0.00     0.283 HD
ATOM     17  H31 UNL     1       6.693  -9.974  34.388  1.00  0.00     0.283 HD
BRANCH  11  18
HETATM   18  N2  UNL     1      10.170  -8.698  33.631  1.00  0.00    -0.046 N
ATOM     19  H23 UNL     1       9.759  -9.308  32.925  1.00  0.00     0.277 HD
ATOM     20  H22 UNL     1      10.260  -7.857  33.061  1.00  0.00     0.277 HD
ATOM     21  H21 UNL     1      11.073  -9.041  33.960  1.00  0.00     0.277 HD
ENDBRANCH  11  18
BRANCH  14  22
HETATM   22  O3  UNL     1       8.804 -10.746  34.044  1.00  0.00    -0.367 OA
ATOM     23  H3  UNL     1       8.034 -10.876  33.503  1.00  0.00     0.212 HD
ENDBRANCH  14  22
ENDBRANCH   8   9
ENDBRANCH   7   8
BRANCH   1  24
HETATM   24  C6  UNL     1       5.053  -6.516  39.305  1.00  0.00     0.008 C
BRANCH  24  25
HETATM   25  C5  UNL     1       4.831  -7.986  39.264  1.00  0.00     0.001 C
BRANCH  25  26
HETATM   26  C4  UNL     1       3.567  -8.407  39.965  1.00  0.00     0.004 C
BRANCH  26  27
HETATM   27  C2  UNL     1       2.874  -9.584  39.345  1.00  0.00    -0.023 C
HETATM   28  C1  UNL     1       3.238  -9.550  37.853  1.00  0.00     0.009 C
HETATM   29  C3  UNL     1       1.394  -9.612  39.522  1.00  0.00     0.009 C
ENDBRANCH  26  27
ENDBRANCH  25  26
ENDBRANCH  24  25
ENDBRANCH   1  24
BRANCH   2  30
HETATM   30  O1  UNL     1       2.780  -5.309  38.871  1.00  0.00    -0.393 OA
ATOM     31  H1  UNL     1       2.709  -4.781  39.658  1.00  0.00     0.210 HD
ENDBRANCH   2  30
BRANCH   3  32
HETATM   32  O2  UNL     1       2.252  -3.735  36.635  1.00  0.00    -0.393 OA
ATOM     33  H2  UNL     1       1.636  -3.823  35.917  1.00  0.00     0.210 HD
ENDBRANCH   3  32
TORSDOF 10
ENDMDL