MODEL 2
REMARK VINA RESULT: -6.774508951      1.813      2.394
REMARK  8 active torsions:
REMARK  status: ('A' for Active; 'I' for Inactive)
REMARK    1  A    between atoms: C5_5  and  O1_6
REMARK    2  A    between atoms: C6_8  and  O2_9
REMARK    3  A    between atoms: C7_11  and  N1_12
REMARK    4  A    between atoms: N1_12  and  C8_14
REMARK    5  A    between atoms: C8_14  and  C9_15
REMARK    6  A    between atoms: C9_15  and  O3_16
REMARK    7  A    between atoms: O3_16  and  N2_17
REMARK    8  A    between atoms: N2_17  and  C10_19
ROOT
HETATM    1  N1  UNL     1       5.565  -6.161  38.223  1.00  0.00    -0.371 N
ATOM      2  H1  UNL     1       6.464  -6.632  38.324  1.00  0.00     0.160 HD
ENDROOT
BRANCH   1   3
HETATM    3  C7  UNL     1       5.492  -5.228  37.214  1.00  0.00     0.316 C
HETATM    4  C6  UNL     1       4.375  -5.236  36.217  1.00  0.00     0.197 C
HETATM    5  C5  UNL     1       4.468  -6.445  35.313  1.00  0.00     0.153 C
HETATM    6  C4  UNL     1       5.760  -7.193  35.482  1.00  0.00     0.072 C
HETATM    7  C2  UNL     1       6.909  -6.213  35.512  1.00  0.00     0.123 C
HETATM    8  C1  UNL     1       8.194  -6.942  35.893  1.00  0.00     0.046 C
HETATM    9  C3  UNL     1       7.109  -5.724  34.072  1.00  0.00     0.046 C
HETATM   10  N3  UNL     1       6.727  -5.129  36.419  1.00  0.00    -0.043 N
ATOM     11  H32 UNL     1       7.540  -5.027  37.027  1.00  0.00     0.280 HD
ATOM     12  H31 UNL     1       6.770  -4.237  35.927  1.00  0.00     0.280 HD
BRANCH   4  13
HETATM   13  O2  UNL     1       4.584  -4.052  35.434  1.00  0.00    -0.389 OA
ATOM     14  H2  UNL     1       5.427  -3.676  35.662  1.00  0.00     0.210 HD
ENDBRANCH   4  13
BRANCH   5  15
HETATM   15  O1  UNL     1       3.343  -7.250  35.436  1.00  0.00    -0.393 OA
ATOM     16  H1  UNL     1       3.518  -8.170  35.275  1.00  0.00     0.210 HD
ENDBRANCH   5  15
ENDBRANCH   1   3
BRANCH   1  17
HETATM   17  C8  UNL     1       4.591  -6.544  39.113  1.00  0.00     0.086 C
BRANCH  17  18
HETATM   18  C9  UNL     1       4.325  -8.007  39.308  1.00  0.00     0.244 C
BRANCH  18  19
HETATM   19  O3  UNL     1       4.345  -8.693  38.084  1.00  0.00    -0.280 OA
BRANCH  19  20
HETATM   20  N2  UNL     1       3.158  -9.100  37.677  1.00  0.00    -0.297 N
ATOM     21  H2  UNL     1       2.395  -8.439  37.530  1.00  0.00     0.188 HD
BRANCH  20  22
HETATM   22  C10 UNL     1       2.981 -10.493  37.449  1.00  0.00     0.114 C
HETATM   23  C11 UNL     1       3.259 -10.878  36.000  1.00  0.00     0.066 C
HETATM   24  C12 UNL     1       1.896 -10.940  35.422  1.00  0.00    -0.050 A
HETATM   25  C13 UNL     1       1.504 -10.934  34.083  1.00  0.00     0.007 A
HETATM   26  C17 UNL     1       0.928 -11.009  36.380  1.00  0.00    -0.050 A
HETATM   27  C14 UNL     1       0.171 -10.995  33.725  1.00  0.00     0.001 A
HETATM   28  C15 UNL     1      -0.818 -11.065  34.688  1.00  0.00     0.001 A
HETATM   29  C16 UNL     1      -0.420 -11.071  35.998  1.00  0.00     0.007 A
HETATM   30  C18 UNL     1       1.593 -11.001  37.709  1.00  0.00     0.066 C
ENDBRANCH  20  22
ENDBRANCH  19  20
ENDBRANCH  18  19
ENDBRANCH  17  18
ENDBRANCH   1  17
TORSDOF 8
ENDMDL