MODEL 5
REMARK VINA RESULT: -6.153035211      2.095      2.764
REMARK  8 active torsions:
REMARK  status: ('A' for Active; 'I' for Inactive)
REMARK       I    between atoms: N1_1  and  C1_4
REMARK       I    between atoms: C1_4  and  N2_5
REMARK       I    between atoms: C1_4  and  N4_13
REMARK    1  A    between atoms: N2_5  and  C2_7
REMARK    2  A    between atoms: N4_13  and  C5_15
REMARK    3  A    between atoms: C9_19  and  C10_20
REMARK    4  A    between atoms: C10_20  and  N5_21
REMARK    5  A    between atoms: N5_21  and  C11_24
REMARK    6  A    between atoms: C11_24  and  C12_25
REMARK    7  A    between atoms: C12_25  and  N6_26
REMARK    8  A    between atoms: N6_26  and  C13_28
ROOT
HETATM    1  C5  UNL     1       7.490  -9.732  34.678  1.00  0.00     0.049 A
HETATM    2  C6  UNL     1       8.888  -9.775  34.789  1.00  0.00     0.030 A
HETATM    3  C7  UNL     1       9.660  -8.685  35.135  1.00  0.00     0.003 A
HETATM    4  C8  UNL     1       9.089  -7.491  35.388  1.00  0.00     0.009 A
HETATM    5  C9  UNL     1       7.686  -7.383  35.289  1.00  0.00    -0.031 A
HETATM    6  C16 UNL     1       6.924  -8.460  34.946  1.00  0.00     0.038 A
ENDROOT
BRANCH   5   7
HETATM    7  C10 UNL     1       7.041  -6.099  35.651  1.00  0.00     0.270 C
BRANCH   7   8
HETATM    8  N5  UNL     1       7.621  -5.608  36.910  1.00  0.00    -0.070 N
ATOM      9  H52 UNL     1       7.882  -6.358  37.550  1.00  0.00     0.277 HD
ATOM     10  H51 UNL     1       8.551  -5.207  36.794  1.00  0.00     0.277 HD
BRANCH   8  11
HETATM   11  C11 UNL     1       6.654  -4.668  37.485  1.00  0.00     0.252 C
BRANCH  11  12
HETATM   12  C12 UNL     1       5.251  -4.829  37.030  1.00  0.00     0.150 C
BRANCH  12  13
HETATM   13  N6  UNL     1       4.327  -5.204  38.130  1.00  0.00    -0.361 N
ATOM     14  H6  UNL     1       3.560  -4.590  38.402  1.00  0.00     0.162 HD
BRANCH  13  15
HETATM   15  C13 UNL     1       4.544  -6.434  38.786  1.00  0.00     0.171 C
HETATM   16  N7  UNL     1       5.167  -6.686  39.862  1.00  0.00    -0.361 N
HETATM   17  C14 UNL     1       5.145  -8.128  40.167  1.00  0.00     0.142 C
ATOM     18  H7  UNL     1       5.625  -5.981  40.441  1.00  0.00     0.162 HD
HETATM   19  C15 UNL     1       3.824  -8.505  39.465  1.00  0.00     0.142 C
HETATM   20  N8  UNL     1       4.013  -7.691  38.252  1.00  0.00    -0.361 N
ATOM     21  H8  UNL     1       3.822  -7.940  37.281  1.00  0.00     0.162 HD
ENDBRANCH  13  15
ENDBRANCH  12  13
ENDBRANCH  11  12
ENDBRANCH   8  11
ENDBRANCH   7   8
ENDBRANCH   5   7
BRANCH   1  22
HETATM   22  N4  UNL     1       6.707 -10.826  34.252  1.00  0.00    -0.192 N
HETATM   23  C1  UNL     1       6.661 -12.066  34.936  1.00  0.00     0.679 C
HETATM   24  N1  UNL     1       7.361 -12.373  35.971  1.00  0.00    -0.234 N
HETATM   25  N2  UNL     1       5.814 -13.122  34.463  1.00  0.00    -0.155 N
ATOM     26  H12 UNL     1       7.327 -13.266  36.462  1.00  0.00     0.174 HD
ATOM     27  H11 UNL     1       7.963 -11.622  36.307  1.00  0.00     0.174 HD
ATOM     28  H2  UNL     1       6.164 -13.690  33.692  1.00  0.00     0.188 HD
ATOM     29  H4  UNL     1       6.145 -10.718  33.408  1.00  0.00     0.184 HD
BRANCH  25  30
HETATM   30  C2  UNL     1       4.675 -13.408  34.919  1.00  0.00     0.242 A
HETATM   31  N3  UNL     1       3.667 -13.973  34.253  1.00  0.00    -0.330 N
HETATM   32  C3  UNL     1       2.612 -14.090  35.118  1.00  0.00     0.116 A
ATOM     33  H3  UNL     1       3.681 -14.265  33.276  1.00  0.00     0.168 HD
HETATM   34  C4  UNL     1       3.045 -13.571  36.310  1.00  0.00     0.162 A
HETATM   35  O1  UNL     1       4.276 -13.168  36.175  1.00  0.00    -0.290 OA
ENDBRANCH  25  30
ENDBRANCH   1  22
TORSDOF 8
ENDMDL