MODEL 4
REMARK VINA RESULT: -7.388061983      1.727      4.617
REMARK  7 active torsions:
REMARK  status: ('A' for Active; 'I' for Inactive)
REMARK    1  A    between atoms: C3_3  and  C4_4
REMARK    2  A    between atoms: C4_4  and  O1_5
REMARK    3  A    between atoms: C6_8  and  C7_9
REMARK    4  A    between atoms: C7_9  and  C8_10
REMARK    5  A    between atoms: C13_18  and  O5_19
REMARK    6  A    between atoms: C14_21  and  O6_22
REMARK    7  A    between atoms: C15_24  and  O7_25
ROOT
HETATM    1  C1  UNL     1      -1.020   7.578   8.419  1.00  0.00     0.025 C
HETATM    2  C2  UNL     1      -0.652   6.415   8.001  1.00  0.00     0.002 C
HETATM    3  C3  UNL     1      -1.019   5.281   8.895  1.00  0.00    -0.025 C
HETATM    4  C5  UNL     1      -0.616   4.010   8.841  1.00  0.00     0.014 C
HETATM    5  C6  UNL     1       0.261   3.167   8.007  1.00  0.00     0.148 C
HETATM    6  O2  UNL     1       1.499   3.586   7.666  1.00  0.00    -0.349 OA
HETATM    7  C10 UNL     1       1.603   4.516   6.633  1.00  0.00     0.295 C
HETATM    8  O3  UNL     1       0.476   5.119   6.623  1.00  0.00    -0.318 OA
HETATM    9  C11 UNL     1       0.115   6.386   6.712  1.00  0.00     0.194 C
HETATM   10  C12 UNL     1       1.136   7.452   6.771  1.00  0.00     0.085 C
HETATM   11  O4  UNL     1      -0.657   6.450   5.542  1.00  0.00    -0.319 OA
HETATM   12  C13 UNL     1       0.277   6.010   4.557  1.00  0.00     0.292 C
HETATM   13  C14 UNL     1       0.462   4.572   4.372  1.00  0.00     0.206 C
HETATM   14  C15 UNL     1       1.585   3.913   5.212  1.00  0.00     0.207 C
ENDROOT
BRANCH   3  15
HETATM   15  C4  UNL     1      -1.945   5.654   9.957  1.00  0.00     0.203 C
BRANCH  15  16
HETATM   16  O1  UNL     1      -1.702   4.996  11.160  1.00  0.00    -0.396 OA
ATOM     17  H1  UNL     1      -2.083   5.432  11.913  1.00  0.00     0.209 HD
ENDBRANCH  15  16
ENDBRANCH   3  15
BRANCH   5  18
HETATM   18  C7  UNL     1       0.438   1.796   8.692  1.00  0.00     0.036 C
BRANCH  18  19
HETATM   19  C8  UNL     1       1.736   1.166   8.231  1.00  0.00    -0.002 C
HETATM   20  C9  UNL     1       2.528   0.745   9.421  1.00  0.00     0.005 C
ENDBRANCH  18  19
ENDBRANCH   5  18
BRANCH  12  21
HETATM   21  O5  UNL     1      -0.234   6.546   3.349  1.00  0.00    -0.368 OA
ATOM     22  H5  UNL     1       0.431   6.325   2.707  1.00  0.00     0.212 HD
ENDBRANCH  12  21
BRANCH  14  23
HETATM   23  O7  UNL     1       2.805   4.020   4.595  1.00  0.00    -0.388 OA
ATOM     24  H7  UNL     1       2.722   4.318   3.697  1.00  0.00     0.210 HD
ENDBRANCH  14  23
BRANCH  13  25
HETATM   25  O6  UNL     1       0.804   4.319   3.042  1.00  0.00    -0.388 OA
ATOM     26  H6  UNL     1       0.709   3.390   2.866  1.00  0.00     0.210 HD
ENDBRANCH  13  25
TORSDOF 7
ENDMDL