MODEL 1
REMARK VINA RESULT: -7.103486288      0.000      0.000
REMARK  8 active torsions:
REMARK  status: ('A' for Active; 'I' for Inactive)
REMARK    1  A    between atoms: O1_1  and  C1_3
REMARK    2  A    between atoms: C1_3  and  C2_4
REMARK    3  A    between atoms: C3_6  and  S1_7
REMARK    4  A    between atoms: S1_7  and  S2_8
REMARK    5  A    between atoms: S2_8  and  C4_9
REMARK    6  A    between atoms: C10_15  and  O3_16
REMARK    7  A    between atoms: C11_18  and  O4_19
REMARK    8  A    between atoms: C12_21  and  O5_22
ROOT
HETATM    1  C2  UNL     1       1.581  10.435  14.136  1.00  0.00     0.178 C
HETATM    2  O2  UNL     1       2.257   9.274  13.841  1.00  0.00    -0.362 OA
HETATM    3  C3  UNL     1       2.683   8.553  14.936  1.00  0.00     0.225 C
HETATM    4  C10 UNL     1       1.606   8.309  15.959  1.00  0.00     0.189 C
HETATM    5  C11 UNL     1       0.871   9.555  16.364  1.00  0.00     0.181 C
HETATM    6  C12 UNL     1       0.444  10.258  15.103  1.00  0.00     0.180 C
ENDROOT
BRANCH   3   7
HETATM    7  S1  UNL     1       3.163   6.912  14.293  1.00  0.00    -0.062 SA
BRANCH   7   8
HETATM    8  S2  UNL     1       5.292   6.947  14.100  1.00  0.00    -0.090 SA
BRANCH   8   9
HETATM    9  C4  UNL     1       5.955   6.272  15.632  1.00  0.00     0.058 C
HETATM   10  C5  UNL     1       5.594   4.798  15.767  1.00  0.00     0.016 C
HETATM   11  C6  UNL     1       6.654   4.215  16.696  1.00  0.00     0.001 C
HETATM   12  C7  UNL     1       6.702   5.099  17.923  1.00  0.00     0.000 C
HETATM   13  C8  UNL     1       5.523   6.026  18.026  1.00  0.00     0.001 C
HETATM   14  C9  UNL     1       5.461   6.979  16.862  1.00  0.00     0.016 C
ENDBRANCH   8   9
ENDBRANCH   7   8
ENDBRANCH   3   7
BRANCH   4  15
HETATM   15  O3  UNL     1       2.157   7.670  17.054  1.00  0.00    -0.389 OA
ATOM     16  H3  UNL     1       1.643   6.897  17.256  1.00  0.00     0.210 HD
ENDBRANCH   4  15
BRANCH   1  17
HETATM   17  C1  UNL     1       2.458  11.551  14.630  1.00  0.00     0.198 C
BRANCH  17  18
HETATM   18  O1  UNL     1       3.467  11.724  13.667  1.00  0.00    -0.398 OA
ATOM     19  H1  UNL     1       4.206  11.201  13.953  1.00  0.00     0.209 HD
ENDBRANCH  17  18
ENDBRANCH   1  17
BRANCH   5  20
HETATM   20  O4  UNL     1      -0.300   9.144  17.019  1.00  0.00    -0.390 OA
ATOM     21  H4  UNL     1      -0.799   9.930  17.212  1.00  0.00     0.210 HD
ENDBRANCH   5  20
BRANCH   6  22
HETATM   22  O5  UNL     1      -0.583   9.547  14.493  1.00  0.00    -0.390 OA
ATOM     23  H5  UNL     1      -1.025  10.101  13.862  1.00  0.00     0.210 HD
ENDBRANCH   6  22
TORSDOF 8
ENDMDL