MODEL 1
REMARK VINA RESULT: -6.307510446      0.000      0.000
REMARK  9 active torsions:
REMARK  status: ('A' for Active; 'I' for Inactive)
REMARK    1  A    between atoms: C2_2  and  S1_3
REMARK    2  A    between atoms: C2_2  and  C9_20
REMARK    3  A    between atoms: S1_3  and  S2_4
REMARK    4  A    between atoms: S2_4  and  C3_5
REMARK    5  A    between atoms: C4_7  and  C5_8
REMARK    6  A    between atoms: C5_8  and  O2_9
REMARK    7  A    between atoms: C6_11  and  O3_12
REMARK    8  A    between atoms: C7_14  and  O4_15
REMARK    9  A    between atoms: C8_17  and  O5_18
ROOT
HETATM    1  C3  UNL     1       0.568   2.695   8.285  1.00  0.00     0.225 C
HETATM    2  O1  UNL     1      -0.081   1.684   9.017  1.00  0.00    -0.362 OA
HETATM    3  C4  UNL     1       0.698   1.299  10.116  1.00  0.00     0.178 C
HETATM    4  C6  UNL     1       1.934   0.643   9.576  1.00  0.00     0.180 C
HETATM    5  C7  UNL     1       2.048   0.695   8.084  1.00  0.00     0.181 C
HETATM    6  C8  UNL     1       1.678   2.048   7.508  1.00  0.00     0.189 C
ENDROOT
BRANCH   1   7
HETATM    7  S2  UNL     1      -0.687   3.449   7.232  1.00  0.00    -0.062 SA
BRANCH   7   8
HETATM    8  S1  UNL     1      -2.019   4.694   8.264  1.00  0.00    -0.090 SA
BRANCH   8   9
HETATM    9  C2  UNL     1      -1.431   6.386   8.452  1.00  0.00     0.062 C
HETATM   10  C1  UNL     1      -2.371   7.288   7.683  1.00  0.00     0.023 C
BRANCH   9  11
HETATM   11  C9  UNL     1      -1.333   6.814   9.891  1.00  0.00    -0.038 C
HETATM   12  C10 UNL     1      -1.538   5.617  10.794  1.00  0.00     0.015 C
HETATM   13  C11 UNL     1      -2.302   7.883  10.259  1.00  0.00     0.015 C
HETATM   14  C12 UNL     1       0.087   7.321  10.160  1.00  0.00     0.015 C
ENDBRANCH   9  11
ENDBRANCH   8   9
ENDBRANCH   7   8
ENDBRANCH   1   7
BRANCH   6  15
HETATM   15  O5  UNL     1       2.816   2.847   7.535  1.00  0.00    -0.389 OA
ATOM     16  H5  UNL     1       3.473   2.507   6.940  1.00  0.00     0.210 HD
ENDBRANCH   6  15
BRANCH   3  17
HETATM   17  C5  UNL     1      -0.161   0.309  10.906  1.00  0.00     0.198 C
BRANCH  17  18
HETATM   18  O2  UNL     1       0.632  -0.451  11.764  1.00  0.00    -0.398 OA
ATOM     19  H2  UNL     1       0.131  -1.170  12.131  1.00  0.00     0.209 HD
ENDBRANCH  17  18
ENDBRANCH   3  17
BRANCH   5  20
HETATM   20  O4  UNL     1       3.406   0.486   7.766  1.00  0.00    -0.390 OA
ATOM     21  H4  UNL     1       3.673   1.204   7.203  1.00  0.00     0.210 HD
ENDBRANCH   5  20
BRANCH   4  22
HETATM   22  O3  UNL     1       3.044   1.169  10.228  1.00  0.00    -0.390 OA
ATOM     23  H3  UNL     1       2.803   1.999  10.622  1.00  0.00     0.210 HD
ENDBRANCH   4  22
TORSDOF 9
ENDMDL