MODEL 3
REMARK VINA RESULT: -5.888111443      3.161      3.919
REMARK  7 active torsions:
REMARK  status: ('A' for Active; 'I' for Inactive)
REMARK    1  A    between atoms: C5_5  and  O1_6
REMARK    2  A    between atoms: C6_8  and  O2_9
REMARK    3  A    between atoms: N1_11  and  C7_12
REMARK    4  A    between atoms: N2_14  and  C9_15
REMARK    5  A    between atoms: C9_15  and  C10_16
REMARK    6  A    between atoms: C10_16  and  O3_17
REMARK    7  A    between atoms: N3_21  and  C12_22
ROOT
HETATM    1  C7  UNL     1      -0.694   6.462   7.816  1.00  0.00     0.126 A
HETATM    2  C8  UNL     1      -1.780   6.808   8.604  1.00  0.00     0.142 A
HETATM    3  N2  UNL     1      -1.406   7.720   9.516  1.00  0.00    -0.328 N
HETATM    4  C11 UNL     1      -0.101   7.931   9.287  1.00  0.00     0.182 A
HETATM    5  S1  UNL     1       0.782   9.003  10.188  1.00  0.00    -0.040 SA
HETATM    6  N3  UNL     1       0.336   7.175   8.263  1.00  0.00    -0.304 N
ENDROOT
BRANCH   1   7
HETATM    7  N1  UNL     1      -0.793   5.526   6.759  1.00  0.00    -0.328 N
HETATM    8  C2  UNL     1      -1.083   4.120   6.941  1.00  0.00     0.032 C
HETATM    9  C1  UNL     1      -2.531   3.865   7.195  1.00  0.00     0.038 C
HETATM   10  C3  UNL     1      -0.301   3.542   8.113  1.00  0.00     0.038 C
HETATM   11  C4  UNL     1      -0.651   3.394   5.709  1.00  0.00     0.066 C
HETATM   12  C5  UNL     1       0.076   4.414   4.874  1.00  0.00     0.169 C
HETATM   13  C6  UNL     1      -0.620   5.707   5.328  1.00  0.00     0.251 C
BRANCH  12  14
HETATM   14  O1  UNL     1      -0.183   4.144   3.543  1.00  0.00    -0.391 OA
ATOM     15  H1  UNL     1      -0.326   4.970   3.096  1.00  0.00     0.210 HD
ENDBRANCH  12  14
BRANCH  13  16
HETATM   16  O2  UNL     1      -1.866   5.678   4.688  1.00  0.00    -0.374 OA
ATOM     17  H2  UNL     1      -2.082   6.592   4.544  1.00  0.00     0.212 HD
ENDBRANCH  13  16
ENDBRANCH   1   7
BRANCH   6  18
HETATM   18  C12 UNL     1       1.680   7.186   7.782  1.00  0.00     0.094 A
HETATM   19  C13 UNL     1       2.397   6.054   7.210  1.00  0.00     0.028 A
HETATM   20  C14 UNL     1       2.607   6.299   8.636  1.00  0.00     0.028 A
ENDBRANCH   6  18
BRANCH   3  21
HETATM   21  C9  UNL     1      -2.221   8.344  10.526  1.00  0.00     0.156 C
BRANCH  21  22
HETATM   22  C10 UNL     1      -3.149   9.393   9.953  1.00  0.00     0.184 C
BRANCH  22  23
HETATM   23  O3  UNL     1      -2.748  10.645  10.381  1.00  0.00    -0.399 OA
ATOM     24  H3  UNL     1      -3.330  10.944  11.070  1.00  0.00     0.209 HD
ENDBRANCH  22  23
ENDBRANCH  21  22
ENDBRANCH   3  21
TORSDOF 7
ENDMDL