MODEL 3
REMARK VINA RESULT: -6.701678074      1.134      1.179
REMARK  7 active torsions:
REMARK  status: ('A' for Active; 'I' for Inactive)
REMARK    1  A    between atoms: O1_1  and  C1_3
REMARK    2  A    between atoms: C1_3  and  O2_4
REMARK    3  A    between atoms: O2_4  and  C2_5
REMARK    4  A    between atoms: C3_6  and  O3_7
REMARK    5  A    between atoms: C6_12  and  C7_13
REMARK    6  A    between atoms: C7_13  and  C8_14
REMARK    7  A    between atoms: C8_14  and  C9_15
ROOT
HETATM    1  C2  UNL     1      -0.686   3.500   7.154  1.00  0.00     0.184 C
HETATM    2  C3  UNL     1       0.012   2.210   7.573  1.00  0.00     0.152 C
HETATM    3  C4  UNL     1       1.490   2.565   7.576  1.00  0.00     0.069 C
HETATM    4  C5  UNL     1       1.438   3.982   8.112  1.00  0.00     0.156 C
HETATM    5  O4  UNL     1       2.587   4.692   7.886  1.00  0.00    -0.376 OA
HETATM    6  C6  UNL     1       2.289   6.049   7.983  1.00  0.00     0.146 C
HETATM    7  C12 UNL     1       0.941   6.301   8.616  1.00  0.00     0.200 C
HETATM    8  O6  UNL     1      -0.103   5.722   7.902  1.00  0.00    -0.378 OA
HETATM    9  C13 UNL     1       0.347   4.585   7.250  1.00  0.00     0.182 C
ENDROOT
BRANCH   6  10
HETATM   10  C7  UNL     1       3.330   6.651   8.914  1.00  0.00     0.041 C
BRANCH  10  11
HETATM   11  C8  UNL     1       2.601   7.568   9.904  1.00  0.00     0.069 C
BRANCH  11  12
HETATM   12  C9  UNL     1       3.147   7.382  11.268  1.00  0.00     0.071 A
HETATM   13  C10 UNL     1       2.432   7.479  12.437  1.00  0.00     0.123 A
HETATM   14  N1  UNL     1       3.323   7.236  13.434  1.00  0.00    -0.335 N
HETATM   15  C11 UNL     1       4.504   7.011  12.827  1.00  0.00     0.219 A
ATOM     16  H1  UNL     1       3.137   7.226  14.437  1.00  0.00     0.168 HD
HETATM   17  S1  UNL     1       5.897   6.671  13.596  1.00  0.00    -0.033 SA
HETATM   18  O5  UNL     1       4.381   7.102  11.538  1.00  0.00    -0.287 OA
ENDBRANCH  11  12
ENDBRANCH  10  11
ENDBRANCH   6  10
BRANCH   2  19
HETATM   19  O3  UNL     1      -0.347   1.977   8.907  1.00  0.00    -0.393 OA
ATOM     20  H3  UNL     1      -1.265   1.732   8.902  1.00  0.00     0.210 HD
ENDBRANCH   2  19
BRANCH   1  21
HETATM   21  O2  UNL     1      -1.822   3.740   7.873  1.00  0.00    -0.357 OA
BRANCH  21  22
HETATM   22  C1  UNL     1      -2.889   3.952   7.002  1.00  0.00     0.335 C
BRANCH  22  23
HETATM   23  O1  UNL     1      -3.599   2.814   6.710  1.00  0.00    -0.377 OA
ATOM     24  H1  UNL     1      -3.139   2.213   6.136  1.00  0.00     0.212 HD
ENDBRANCH  22  23
ENDBRANCH  21  22
ENDBRANCH   1  21
TORSDOF 7
ENDMDL