MODEL 3
REMARK VINA RESULT: -6.548156874      1.215      2.066
REMARK  8 active torsions:
REMARK  status: ('A' for Active; 'I' for Inactive)
REMARK    1  A    between atoms: C2_2  and  C4_4
REMARK    2  A    between atoms: C4_4  and  S1_8
REMARK    3  A    between atoms: S1_8  and  S2_11
REMARK    4  A    between atoms: S2_11  and  C5_12
REMARK    5  A    between atoms: C5_12  and  C6_13
REMARK    6  A    between atoms: C6_13  and  O3_14
REMARK    7  A    between atoms: C8_17  and  O4_18
REMARK    8  A    between atoms: C11_22  and  O5_23
ROOT
HETATM    1  C5  UNL     1       0.675   4.025   6.244  1.00  0.00     0.072 C
HETATM    2  C7  UNL     1       1.132   4.083   4.777  1.00  0.00     0.058 C
HETATM    3  C8  UNL     1       0.226   5.012   4.035  1.00  0.00     0.120 C
HETATM    4  C9  UNL     1       0.211   6.402   4.582  1.00  0.00     0.034 C
HETATM    5  C10 UNL     1       0.179   6.472   6.072  1.00  0.00     0.036 C
HETATM    6  C11 UNL     1       0.968   5.437   6.782  1.00  0.00     0.140 C
ENDROOT
BRANCH   1   7
HETATM    7  S2  UNL     1       1.509   2.885   7.179  1.00  0.00    -0.016 SA
BRANCH   7   8
HETATM    8  S1  UNL     1       0.297   1.898   8.518  1.00  0.00     0.242 S
HETATM    9  O1  UNL     1      -0.551   0.790   8.010  1.00  0.00    -0.210 OA
HETATM   10  O2  UNL     1      -0.397   2.772   9.510  1.00  0.00    -0.210 OA
BRANCH   8  11
HETATM   11  C4  UNL     1       1.641   1.145   9.324  1.00  0.00     0.113 C
HETATM   12  N1  UNL     1       2.683   0.813   8.668  1.00  0.00    -0.392 N
ATOM     13  H12 UNL     1       3.471   0.371   9.141  1.00  0.00     0.156 HD
ATOM     14  H11 UNL     1       2.740   0.984   7.664  1.00  0.00     0.156 HD
BRANCH  11  15
HETATM   15  C2  UNL     1       1.558   0.894  10.793  1.00  0.00     0.040 C
HETATM   16  C1  UNL     1       0.419  -0.038  11.134  1.00  0.00     0.016 C
HETATM   17  C3  UNL     1       2.838   0.264  11.309  1.00  0.00     0.016 C
ENDBRANCH  11  15
ENDBRANCH   8  11
ENDBRANCH   7   8
ENDBRANCH   1   7
BRANCH   1  18
HETATM   18  C6  UNL     1      -0.827   3.850   6.287  1.00  0.00     0.188 C
BRANCH  18  19
HETATM   19  O3  UNL     1      -1.265   2.667   5.739  1.00  0.00    -0.399 OA
ATOM     20  H3  UNL     1      -1.285   2.668   4.789  1.00  0.00     0.209 HD
ENDBRANCH  18  19
ENDBRANCH   1  18
BRANCH   6  21
HETATM   21  O5  UNL     1       0.590   5.413   8.128  1.00  0.00    -0.394 OA
ATOM     22  H5  UNL     1       1.156   4.770   8.540  1.00  0.00     0.210 HD
ENDBRANCH   6  21
BRANCH   3  23
HETATM   23  O4  UNL     1       0.704   5.113   2.707  1.00  0.00    -0.396 OA
ATOM     24  H4  UNL     1       0.471   5.974   2.379  1.00  0.00     0.210 HD
ENDBRANCH   3  23
TORSDOF 8
ENDMDL