MODEL 3
REMARK VINA RESULT: -5.797493009      2.347      6.131
REMARK  7 active torsions:
REMARK  status: ('A' for Active; 'I' for Inactive)
REMARK    1  A    between atoms: C3_4  and  C4_5
REMARK    2  A    between atoms: C4_5  and  S1_6
REMARK    3  A    between atoms: S1_6  and  S2_7
REMARK    4  A    between atoms: S2_7  and  C5_8
REMARK    5  A    between atoms: C10_14  and  O2_15
REMARK    6  A    between atoms: N2_18  and  N3_19
REMARK    7  A    between atoms: C12_22  and  O3_23
ROOT
HETATM    1  C1  UNL     1      -2.422  10.397  10.686  1.00  0.00     0.044 C
HETATM    2  C2  UNL     1      -2.756   9.073  10.030  1.00  0.00     0.168 C
HETATM    3  O1  UNL     1      -2.278   9.119   8.736  1.00  0.00    -0.370 OA
HETATM    4  C3  UNL     1      -2.435   7.879   8.080  1.00  0.00     0.172 C
HETATM    5  C11 UNL     1      -1.494   6.932   8.761  1.00  0.00     0.118 C
HETATM    6  N2  UNL     1      -1.620   6.891  10.160  1.00  0.00    -0.279 N
HETATM    7  C12 UNL     1      -2.158   7.982  10.858  1.00  0.00     0.267 C
ENDROOT
BRANCH   4   8
HETATM    8  C4  UNL     1      -2.055   8.139   6.659  1.00  0.00     0.123 C
BRANCH   8   9
HETATM    9  S1  UNL     1      -2.330   6.814   5.508  1.00  0.00    -0.094 SA
BRANCH   9  10
HETATM   10  S2  UNL     1      -0.603   5.753   4.975  1.00  0.00    -0.089 SA
BRANCH  10  11
HETATM   11  C5  UNL     1       0.042   4.741   6.319  1.00  0.00     0.097 C
HETATM   12  C6  UNL     1       1.145   3.813   5.869  1.00  0.00     0.063 C
HETATM   13  C7  UNL     1       1.720   3.161   7.093  1.00  0.00     0.064 C
HETATM   14  N1  UNL     1       0.800   2.631   8.004  1.00  0.00    -0.376 N
HETATM   15  C8  UNL     1       0.844   1.238   8.264  1.00  0.00     0.154 C
HETATM   16  C9  UNL     1      -0.428   3.290   8.199  1.00  0.00     0.095 C
HETATM   17  C10 UNL     1      -1.030   3.866   6.934  1.00  0.00     0.171 C
BRANCH  17  18
HETATM   18  O2  UNL     1      -1.299   2.806   6.041  1.00  0.00    -0.389 OA
ATOM     19  H2  UNL     1      -1.108   3.103   5.160  1.00  0.00     0.210 HD
ENDBRANCH  17  18
ENDBRANCH  10  11
ENDBRANCH   9  10
ENDBRANCH   8   9
ENDBRANCH   4   8
BRANCH   6  20
HETATM   20  N3  UNL     1      -1.741   5.648  10.736  1.00  0.00    -0.341 N
ATOM     21  H32 UNL     1      -1.002   4.971  10.551  1.00  0.00     0.177 HD
ATOM     22  H31 UNL     1      -2.295   5.590  11.591  1.00  0.00     0.177 HD
ENDBRANCH   6  20
BRANCH   7  23
HETATM   23  O3  UNL     1      -1.150   8.512  11.700  1.00  0.00    -0.372 OA
ATOM     24  H3  UNL     1      -1.537   8.826  12.509  1.00  0.00     0.212 HD
ENDBRANCH   7  23
TORSDOF 7
ENDMDL