MODEL 3
REMARK VINA RESULT: -6.640465334      7.909      9.305
REMARK  8 active torsions:
REMARK  status: ('A' for Active; 'I' for Inactive)
REMARK    1  A    between atoms: C2_2  and  O1_4
REMARK    2  A    between atoms: C2_2  and  C4_6
REMARK    3  A    between atoms: C6_8  and  C7_9
REMARK    4  A    between atoms: C7_9  and  O2_10
REMARK    5  A    between atoms: C9_15  and  C10_16
REMARK    6  A    between atoms: C10_16  and  O4_17
REMARK    7  A    between atoms: C11_20  and  C12_21
REMARK    8  A    between atoms: C12_21  and  O5_22
ROOT
HETATM    1  C4  UNL     1      -1.486   6.055   7.540  1.00  0.00    -0.008 A
HETATM    2  C5  UNL     1      -0.978   5.020   8.239  1.00  0.00     0.031 A
HETATM    3  C6  UNL     1      -0.552   3.924   7.538  1.00  0.00     0.046 A
HETATM    4  S2  UNL     1      -0.872   4.369   5.923  1.00  0.00    -0.091 SA
HETATM    5  C11 UNL     1      -1.537   5.930   6.180  1.00  0.00     0.016 A
ENDROOT
BRANCH   3   6
HETATM    6  C7  UNL     1       0.023   2.661   7.991  1.00  0.00     0.213 C
HETATM    7  O3  UNL     1       0.156   2.640   9.372  1.00  0.00    -0.340 OA
HETATM    8  C8  UNL     1       0.349   1.283   9.729  1.00  0.00     0.246 C
HETATM    9  S1  UNL     1       1.685   0.849   8.536  1.00  0.00    -0.130 SA
HETATM   10  C9  UNL     1       1.347   2.272   7.398  1.00  0.00     0.141 C
BRANCH   6  11
HETATM   11  O2  UNL     1      -0.852   1.576   7.707  1.00  0.00    -0.360 OA
ATOM     12  H2  UNL     1      -0.633   0.818   8.236  1.00  0.00     0.213 HD
ENDBRANCH   6  11
BRANCH  10  13
HETATM   13  C10 UNL     1       2.458   3.232   7.565  1.00  0.00     0.185 C
BRANCH  13  14
HETATM   14  O4  UNL     1       2.745   3.912   6.416  1.00  0.00    -0.400 OA
ATOM     15  H4  UNL     1       2.887   4.840   6.563  1.00  0.00     0.209 HD
ENDBRANCH  13  14
ENDBRANCH  10  13
ENDBRANCH   3   6
BRANCH   1  16
HETATM   16  C2  UNL     1      -1.984   7.330   8.194  1.00  0.00     0.079 C
HETATM   17  C1  UNL     1      -2.142   7.150   9.667  1.00  0.00     0.051 C
HETATM   18  C3  UNL     1      -1.045   8.471   7.831  1.00  0.00     0.051 C
BRANCH  16  19
HETATM   19  O1  UNL     1      -3.240   7.658   7.686  1.00  0.00    -0.386 OA
ATOM     20  H1  UNL     1      -3.103   8.307   7.005  1.00  0.00     0.211 HD
ENDBRANCH  16  19
ENDBRANCH   1  16
BRANCH   5  21
HETATM   21  C12 UNL     1      -2.039   6.872   5.138  1.00  0.00     0.211 C
BRANCH  21  22
HETATM   22  O5  UNL     1      -3.295   6.423   4.743  1.00  0.00    -0.396 OA
ATOM     23  H5  UNL     1      -3.606   7.012   4.066  1.00  0.00     0.209 HD
ENDBRANCH  21  22
ENDBRANCH   5  21
TORSDOF 8
ENDMDL