MODEL 1
REMARK VINA RESULT: -7.232481203      0.000      0.000
REMARK  8 active torsions:
REMARK  status: ('A' for Active; 'I' for Inactive)
REMARK    1  A    between atoms: O1_1  and  C1_3
REMARK    2  A    between atoms: C3_5  and  N1_6
REMARK    3  A    between atoms: C9_12  and  O2_13
REMARK    4  A    between atoms: N2_15  and  C10_16
REMARK    5  A    between atoms: C10_16  and  C11_17
REMARK    6  A    between atoms: C11_17  and  N3_18
REMARK    7  A    between atoms: C14_21  and  O3_22
REMARK    8  A    between atoms: C15_24  and  O4_25
ROOT
HETATM    1  C1  UNL     1      -2.395   6.029   6.612  1.00  0.00     0.146 A
HETATM    2  C2  UNL     1      -2.417   7.163   7.393  1.00  0.00     0.089 A
HETATM    3  C3  UNL     1      -1.996   6.878   8.682  1.00  0.00     0.086 A
HETATM    4  C9  UNL     1      -1.714   5.513   8.654  1.00  0.00     0.171 A
HETATM    5  N2  UNL     1      -1.962   5.046   7.416  1.00  0.00    -0.305 N
ENDROOT
BRANCH   5   6
HETATM    6  C10 UNL     1      -1.763   3.638   7.057  1.00  0.00     0.163 C
BRANCH   6   7
HETATM    7  C11 UNL     1      -0.398   3.453   6.477  1.00  0.00     0.296 C
BRANCH   7   8
HETATM    8  N3  UNL     1       0.489   2.882   7.440  1.00  0.00     0.121 N
HETATM    9  C12 UNL     1      -0.032   1.796   8.197  1.00  0.00     0.278 C
HETATM   10  C13 UNL     1       1.200   1.194   8.890  1.00  0.00     0.066 C
HETATM   11  C14 UNL     1       2.377   1.855   8.212  1.00  0.00     0.178 C
HETATM   12  C15 UNL     1       1.754   2.438   6.953  1.00  0.00     0.385 C
BRANCH  11  13
HETATM   13  O3  UNL     1       3.312   0.881   7.867  1.00  0.00    -0.391 OA
ATOM     14  H3  UNL     1       4.177   1.273   7.844  1.00  0.00     0.210 HD
ENDBRANCH  11  13
BRANCH  12  15
HETATM   15  O4  UNL     1       2.546   3.496   6.471  1.00  0.00    -0.366 OA
ATOM     16  H4  UNL     1       3.331   3.627   6.989  1.00  0.00     0.212 HD
ENDBRANCH  12  15
ENDBRANCH   7   8
ENDBRANCH   6   7
ENDBRANCH   5   6
BRANCH   1  17
HETATM   17  O1  UNL     1      -2.732   5.857   5.276  1.00  0.00    -0.346 OA
ATOM     18  H1  UNL     1      -2.194   5.924   4.496  1.00  0.00     0.219 HD
ENDBRANCH   1  17
BRANCH   4  19
HETATM   19  O2  UNL     1      -1.255   4.782   9.742  1.00  0.00    -0.344 OA
ATOM     20  H2  UNL     1      -1.737   4.078  10.160  1.00  0.00     0.219 HD
ENDBRANCH   4  19
BRANCH   3  21
HETATM   21  N1  UNL     1      -1.876   7.772   9.792  1.00  0.00    -0.377 N
HETATM   22  C4  UNL     1      -0.595   7.912  10.410  1.00  0.00     0.123 C
HETATM   23  C5  UNL     1      -0.454   9.140  11.265  1.00  0.00     0.020 C
HETATM   24  C6  UNL     1      -1.436  10.181  10.753  1.00  0.00     0.003 C
HETATM   25  C7  UNL     1      -2.827   9.635  11.085  1.00  0.00     0.020 C
HETATM   26  C8  UNL     1      -3.077   8.465  10.197  1.00  0.00     0.123 C
ENDBRANCH   3  21
TORSDOF 8
ENDMDL