MODEL 2
REMARK VINA RESULT: -5.759512182      2.893      4.972
REMARK  9 active torsions:
REMARK  status: ('A' for Active; 'I' for Inactive)
REMARK    1  A    between atoms: O1_2  and  S1_3
REMARK    2  A    between atoms: S1_3  and  S2_4
REMARK    3  A    between atoms: S2_4  and  C2_5
REMARK    4  A    between atoms: C3_6  and  O2_7
REMARK    5  A    between atoms: C4_9  and  O3_10
REMARK    6  A    between atoms: C5_12  and  O4_13
REMARK    7  A    between atoms: C6_15  and  C7_16
REMARK    8  A    between atoms: C7_16  and  O5_17
REMARK    9  A    between atoms: C8_19  and  C9_20
ROOT
HETATM    1  C2  UNL     1      -0.124   4.956   5.097  1.00  0.00     0.097 C
HETATM    2  C3  UNL     1      -0.594   6.342   4.794  1.00  0.00     0.164 C
HETATM    3  C4  UNL     1      -2.061   6.438   5.115  1.00  0.00     0.177 C
HETATM    4  C5  UNL     1      -2.113   6.368   6.613  1.00  0.00     0.156 C
HETATM    5  C6  UNL     1      -1.670   5.037   7.088  1.00  0.00     0.046 C
HETATM    6  C8  UNL     1      -0.509   4.392   6.424  1.00  0.00     0.019 C
ENDROOT
BRANCH   1   7
HETATM    7  S2  UNL     1       1.678   5.014   4.801  1.00  0.00    -0.060 SA
BRANCH   7   8
HETATM    8  S1  UNL     1       2.108   4.239   2.876  1.00  0.00     0.063 SA
BRANCH   8   9
HETATM    9  O1  UNL     1       1.416   5.199   1.628  1.00  0.00    -0.315 OA
HETATM   10  C1  UNL     1       2.404   5.621   0.728  1.00  0.00     0.221 C
ENDBRANCH   8   9
ENDBRANCH   7   8
ENDBRANCH   1   7
BRANCH   2  11
HETATM   11  O2  UNL     1      -0.356   6.596   3.441  1.00  0.00    -0.392 OA
ATOM     12  H2  UNL     1      -0.681   7.466   3.242  1.00  0.00     0.210 HD
ENDBRANCH   2  11
BRANCH   6  13
HETATM   13  C9  UNL     1       0.679   4.128   7.330  1.00  0.00    -0.046 C
HETATM   14  C10 UNL     1       1.398   5.374   7.771  1.00  0.00     0.015 C
HETATM   15  C11 UNL     1       0.215   3.438   8.595  1.00  0.00     0.015 C
HETATM   16  C12 UNL     1       1.641   3.131   6.684  1.00  0.00     0.015 C
ENDBRANCH   6  13
BRANCH   3  17
HETATM   17  O3  UNL     1      -2.602   7.646   4.638  1.00  0.00    -0.390 OA
ATOM     18  H3  UNL     1      -3.254   7.484   3.966  1.00  0.00     0.210 HD
ENDBRANCH   3  17
BRANCH   5  19
HETATM   19  C7  UNL     1      -2.897   4.153   7.232  1.00  0.00     0.172 C
BRANCH  19  20
HETATM   20  O5  UNL     1      -2.819   2.940   6.604  1.00  0.00    -0.400 OA
ATOM     21  H5  UNL     1      -3.449   2.805   5.904  1.00  0.00     0.209 HD
ENDBRANCH  19  20
ENDBRANCH   5  19
BRANCH   4  22
HETATM   22  O4  UNL     1      -3.440   6.559   7.020  1.00  0.00    -0.392 OA
ATOM     23  H4  UNL     1      -3.591   6.044   7.804  1.00  0.00     0.210 HD
ENDBRANCH   4  22
TORSDOF 9
ENDMDL