MODEL 3
REMARK VINA RESULT: -5.355618656      3.865      7.794
REMARK  9 active torsions:
REMARK  status: ('A' for Active; 'I' for Inactive)
REMARK    1  A    between atoms: C2_2  and  N1_3
REMARK       I    between atoms: N1_3  and  C3_5
REMARK       I    between atoms: C3_5  and  N3_10
REMARK    2  A    between atoms: N2_6  and  O1_8
REMARK    3  A    between atoms: N3_10  and  C4_12
REMARK    4  A    between atoms: C4_12  and  C5_13
REMARK    5  A    between atoms: C5_13  and  C6_14
REMARK    6  A    between atoms: C6_14  and  N4_15
REMARK       I    between atoms: N4_15  and  C7_17
REMARK       I    between atoms: C7_17  and  N7_23
REMARK    7  A    between atoms: N5_18  and  N6_20
REMARK    8  A    between atoms: N7_23  and  N8_25
REMARK    9  A    between atoms: N8_25  and  C8_27
ROOT
HETATM    1  N4  UNL     1       5.612  56.237  28.655  1.00  0.00    -0.224 N
ATOM      2  H4  UNL     1       5.968  55.959  27.740  1.00  0.00     0.177 HD
HETATM    3  C7  UNL     1       5.043  57.538  28.872  1.00  0.00     0.706 C
HETATM    4  N5  UNL     1       5.871  58.502  29.071  1.00  0.00    -0.138 N
ATOM      5  H5  UNL     1       5.498  59.438  29.228  1.00  0.00     0.205 HD
HETATM    6  N7  UNL     1       3.635  57.715  28.862  1.00  0.00    -0.129 N
ATOM      7  H7  UNL     1       3.190  58.132  29.680  1.00  0.00     0.205 HD
ENDROOT
BRANCH   1   8
HETATM    8  C6  UNL     1       5.661  55.346  29.778  1.00  0.00     0.140 C
BRANCH   8   9
HETATM    9  C5  UNL     1       5.338  53.950  29.327  1.00  0.00     0.040 C
BRANCH   9  10
HETATM   10  C4  UNL     1       3.977  53.555  29.794  1.00  0.00     0.139 C
BRANCH  10  11
HETATM   11  N3  UNL     1       2.986  54.239  29.004  1.00  0.00    -0.225 N
HETATM   12  C3  UNL     1       1.618  54.020  29.211  1.00  0.00     0.693 C
HETATM   13  N1  UNL     1       1.152  53.450  30.449  1.00  0.00    -0.225 N
HETATM   14  N2  UNL     1       0.748  54.312  28.328  1.00  0.00    -0.099 N
ATOM     15  H1  UNL     1       1.831  53.087  31.117  1.00  0.00     0.177 HD
ATOM     16  H2  UNL     1      -0.227  54.120  28.561  1.00  0.00     0.213 HD
ATOM     17  H3  UNL     1       3.285  54.894  28.281  1.00  0.00     0.177 HD
BRANCH  13  18
HETATM   18  C2  UNL     1      -0.256  53.379  30.765  1.00  0.00     0.134 C
HETATM   19  C1  UNL     1      -0.687  51.934  30.864  1.00  0.00     0.027 C
ENDBRANCH  13  18
BRANCH  14  20
HETATM   20  O1  UNL     1       0.991  54.852  27.112  1.00  0.00    -0.276 OA
ATOM     21  H1  UNL     1       1.322  55.725  26.941  1.00  0.00     0.245 HD
ENDBRANCH  14  20
ENDBRANCH  10  11
ENDBRANCH   9  10
ENDBRANCH   8   9
ENDBRANCH   1   8
BRANCH   4  22
HETATM   22  N6  UNL     1       7.249  58.331  29.080  1.00  0.00    -0.331 N
ATOM     23  H62 UNL     1       7.740  58.434  28.192  1.00  0.00     0.177 HD
ATOM     24  H61 UNL     1       7.780  58.112  29.924  1.00  0.00     0.177 HD
ENDBRANCH   4  22
BRANCH   6  25
HETATM   25  N8  UNL     1       2.828  57.343  27.777  1.00  0.00    -0.265 N
ATOM     26  H8  UNL     1       2.984  56.452  27.305  1.00  0.00     0.189 HD
BRANCH  25  27
HETATM   27  C8  UNL     1       1.871  58.145  27.370  1.00  0.00     0.166 A
HETATM   28  N9  UNL     1       0.657  57.818  26.933  1.00  0.00    -0.320 N
HETATM   29  C9  UNL     1      -0.153  58.779  26.571  1.00  0.00     0.136 A
ATOM     30  H9  UNL     1       0.366  56.841  26.881  1.00  0.00     0.169 HD
HETATM   31  C10 UNL     1       0.297  60.067  26.665  1.00  0.00     0.120 A
HETATM   32  N11 UNL     1      -1.439  58.654  26.096  1.00  0.00    -0.288 N
HETATM   33  S1  UNL     1       1.883  59.847  27.274  1.00  0.00    -0.043 SA
HETATM   34  C11 UNL     1      -0.484  61.179  26.305  1.00  0.00     0.270 A
HETATM   35  O2  UNL     1       0.051  62.290  26.441  1.00  0.00    -0.266 OA
HETATM   36  N10 UNL     1      -1.744  61.008  25.843  1.00  0.00    -0.274 N
HETATM   37  C12 UNL     1      -2.144  59.740  25.767  1.00  0.00     0.330 A
ATOM     38  H10 UNL     1      -2.341  61.790  25.573  1.00  0.00     0.173 HD
HETATM   39  O3  UNL     1      -3.330  59.562  25.332  1.00  0.00    -0.246 OA
HETATM   40  C13 UNL     1      -2.054  57.344  25.942  1.00  0.00     0.163 C
ENDBRANCH  25  27
ENDBRANCH   6  25
TORSDOF 9
ENDMDL