MODEL 4
REMARK VINA RESULT: -4.793719989      7.677     11.270
REMARK  8 active torsions:
REMARK  status: ('A' for Active; 'I' for Inactive)
REMARK    1  A    between atoms: C8_19  and  N6_20
REMARK       I    between atoms: N6_20  and  C9_22
REMARK    2  A    between atoms: C9_22  and  C10_24
REMARK    3  A    between atoms: C10_24  and  N7_25
REMARK    4  A    between atoms: C10_24  and  C11_29
REMARK    5  A    between atoms: C11_29  and  C12_30
REMARK    6  A    between atoms: C12_30  and  C13_31
REMARK    7  A    between atoms: C13_31  and  N8_32
REMARK       I    between atoms: N8_32  and  C14_34
REMARK    8  A    between atoms: N11_39  and  O2_40
ROOT
HETATM    1  C1  UNL     1      -1.257  57.262  26.578  1.00  0.00     0.177 C
HETATM    2  N1  UNL     1      -0.931  58.639  26.322  1.00  0.00    -0.169 N
HETATM    3  C2  UNL     1       0.341  59.121  26.468  1.00  0.00     0.168 A
HETATM    4  C3  UNL     1       0.660  60.462  26.246  1.00  0.00     0.089 A
HETATM    5  C4  UNL     1      -0.316  61.349  25.864  1.00  0.00     0.152 A
HETATM    6  N2  UNL     1      -0.031  62.717  25.629  1.00  0.00    -0.081 NA
HETATM    7  N3  UNL     1      -1.539  60.871  25.724  1.00  0.00    -0.177 N
ATOM      8  H3  UNL     1      -2.287  61.506  25.442  1.00  0.00     0.185 HD
HETATM    9  C5  UNL     1      -1.835  59.573  25.943  1.00  0.00     0.680 A
HETATM   10  N4  UNL     1      -3.069  59.271  25.745  1.00  0.00    -0.234 N
ATOM     11  H41 UNL     1      -3.750  59.975  25.460  1.00  0.00     0.174 HD
ATOM     12  H42 UNL     1      -3.293  58.289  25.910  1.00  0.00     0.174 HD
HETATM   13  S1  UNL     1       2.254  61.284  26.392  1.00  0.00    -0.117 SA
HETATM   14  C6  UNL     1       3.116  60.696  27.896  1.00  0.00     0.135 C
HETATM   15  C7  UNL     1       2.517  59.420  28.377  1.00  0.00     0.034 C
HETATM   16  N5  UNL     1       2.076  59.489  29.574  1.00  0.00    -0.402 N
ATOM     17  H51 UNL     1       1.667  58.615  29.903  1.00  0.00     0.155 HD
ATOM     18  H52 UNL     1       2.189  60.390  30.037  1.00  0.00     0.155 HD
HETATM   19  C8  UNL     1       2.355  58.128  27.714  1.00  0.00     0.263 C
HETATM   20  N11 UNL     1       1.206  58.053  26.837  1.00  0.00    -0.213 N
ENDROOT
BRANCH  19  21
HETATM   21  N6  UNL     1       2.449  56.987  28.589  1.00  0.00    -0.331 N
HETATM   22  C9  UNL     1       3.596  56.237  28.862  1.00  0.00     0.250 C
HETATM   23  O1  UNL     1       4.702  56.516  28.335  1.00  0.00    -0.271 OA
ATOM     24  H6  UNL     1       1.590  56.696  29.056  1.00  0.00     0.165 HD
BRANCH  22  25
HETATM   25  C10 UNL     1       3.551  55.080  29.788  1.00  0.00     0.274 C
BRANCH  25  26
HETATM   26  N7  UNL     1       3.408  53.825  29.087  1.00  0.00    -0.067 N
ATOM     27  H73 UNL     1       2.479  53.428  29.227  1.00  0.00     0.275 HD
ATOM     28  H72 UNL     1       3.372  53.969  28.077  1.00  0.00     0.275 HD
ATOM     29  H71 UNL     1       4.136  53.157  29.339  1.00  0.00     0.275 HD
ENDBRANCH  25  26
BRANCH  25  30
HETATM   30  C11 UNL     1       2.432  55.316  30.764  1.00  0.00     0.044 C
BRANCH  30  31
HETATM   31  C12 UNL     1       1.575  54.118  31.013  1.00  0.00     0.022 C
BRANCH  31  32
HETATM   32  C13 UNL     1       0.098  54.433  30.855  1.00  0.00     0.122 C
BRANCH  32  33
HETATM   33  N8  UNL     1      -0.135  54.994  29.529  1.00  0.00    -0.365 N
HETATM   34  C14 UNL     1      -0.257  54.154  28.392  1.00  0.00     0.181 C
HETATM   35  N9  UNL     1      -1.298  53.452  28.124  1.00  0.00    -0.374 N
HETATM   36  N10 UNL     1       0.853  54.089  27.484  1.00  0.00    -0.064 NA
ATOM     37  H92 UNL     1      -2.087  53.498  28.769  1.00  0.00     0.158 HD
ATOM     38  H91 UNL     1      -1.385  52.848  27.306  1.00  0.00     0.158 HD
ATOM     39  H8  UNL     1      -0.212  56.004  29.418  1.00  0.00     0.162 HD
ENDBRANCH  32  33
ENDBRANCH  31  32
ENDBRANCH  30  31
ENDBRANCH  25  30
ENDBRANCH  22  25
ENDBRANCH  19  21
BRANCH  20  40
HETATM   40  O2  UNL     1       0.858  56.901  26.270  1.00  0.00    -0.283 OA
ATOM     41  H2  UNL     1       1.268  56.153  26.690  1.00  0.00     0.245 HD
ENDBRANCH  20  40
TORSDOF 8
ENDMDL