MODEL 2
REMARK VINA RESULT: -6.129403270      1.970      2.455
REMARK  5 active torsions:
REMARK  status: ('A' for Active; 'I' for Inactive)
REMARK    1  A    between atoms: C5_17  and  C6_18
REMARK       I    between atoms: C6_18  and  N8_20
REMARK    2  A    between atoms: N8_20  and  C7_22
REMARK    3  A    between atoms: C7_22  and  C8_23
REMARK       I    between atoms: C8_23  and  N9_25
REMARK    4  A    between atoms: N9_25  and  C9_27
REMARK    5  A    between atoms: C9_27  and  C10_28
ROOT
HETATM    1  C6  UNL     1      -2.026  53.513  28.736  1.00  0.00     0.257 C
HETATM    2  O1  UNL     1      -3.054  53.564  29.447  1.00  0.00    -0.270 OA
HETATM    3  N8  UNL     1      -2.081  52.848  27.484  1.00  0.00    -0.350 N
ATOM      4  H8  UNL     1      -1.235  52.805  26.915  1.00  0.00     0.163 HD
ENDROOT
BRANCH   1   5
HETATM    5  C5  UNL     1      -0.782  54.149  29.223  1.00  0.00     0.204 C
HETATM    6  C1  UNL     1      -0.155  53.307  30.244  1.00  0.00     0.131 C
HETATM    7  N1  UNL     1      -0.642  52.161  30.499  1.00  0.00    -0.385 N
HETATM    8  N2  UNL     1       1.025  53.635  31.043  1.00  0.00    -0.286 N
ATOM      9  H12 UNL     1      -0.205  51.574  31.210  1.00  0.00     0.157 HD
ATOM     10  H11 UNL     1      -1.464  51.933  29.942  1.00  0.00     0.157 HD
HETATM   11  N3  UNL     1       2.075  54.421  30.495  1.00  0.00    -0.288 N
ATOM     12  H2  UNL     1       1.096  53.295  32.002  1.00  0.00     0.188 HD
HETATM   13  C2  UNL     1       2.248  54.836  29.114  1.00  0.00     0.132 C
ATOM     14  H3  UNL     1       2.793  54.730  31.151  1.00  0.00     0.188 HD
HETATM   15  S1  UNL     1       3.356  55.932  28.753  1.00  0.00    -0.058 SA
HETATM   16  C3  UNL     1       1.384  54.226  28.042  1.00  0.00     0.152 C
HETATM   17  N4  UNL     1       0.048  54.568  28.166  1.00  0.00    -0.258 N
HETATM   18  N5  UNL     1      -0.392  55.665  27.451  1.00  0.00    -0.009 NA
HETATM   19  N6  UNL     1      -0.447  56.833  28.211  1.00  0.00    -0.017 NA
HETATM   20  N7  UNL     1      -0.411  56.564  29.584  1.00  0.00    -0.125 NA
HETATM   21  C4  UNL     1      -1.250  55.437  29.933  1.00  0.00     0.183 C
ENDBRANCH   1   5
BRANCH   3  22
HETATM   22  C7  UNL     1      -3.268  52.239  26.992  1.00  0.00     0.225 C
BRANCH  22  23
HETATM   23  C8  UNL     1      -3.087  50.912  26.310  1.00  0.00     0.238 C
HETATM   24  O2  UNL     1      -2.070  50.226  26.684  1.00  0.00    -0.271 OA
HETATM   25  N9  UNL     1      -3.922  50.394  25.326  1.00  0.00    -0.337 N
ATOM     26  H9  UNL     1      -4.680  51.029  25.077  1.00  0.00     0.167 HD
BRANCH  25  27
HETATM   27  C9  UNL     1      -3.959  49.196  24.599  1.00  0.00     0.096 C
BRANCH  27  28
HETATM   28  C10 UNL     1      -4.709  49.062  23.328  1.00  0.00     0.224 C
HETATM   29  C11 UNL     1      -4.211  48.065  22.386  1.00  0.00     0.038 C
HETATM   30  C12 UNL     1      -4.776  48.270  20.963  1.00  0.00     0.002 C
HETATM   31  C13 UNL     1      -4.200  49.523  20.369  1.00  0.00     0.002 C
HETATM   32  C14 UNL     1      -5.261  50.593  20.436  1.00  0.00     0.027 C
HETATM   33  C15 UNL     1      -5.880  50.542  21.817  1.00  0.00     0.233 C
HETATM   34  N10 UNL     1      -4.833  50.403  22.770  1.00  0.00    -0.066 N
ATOM     35 2H10 UNL     1      -4.934  51.092  23.515  1.00  0.00     0.278 HD
ATOM     36 1H10 UNL     1      -3.945  50.708  22.372  1.00  0.00     0.278 HD
ENDBRANCH  27  28
ENDBRANCH  25  27
ENDBRANCH  22  23
ENDBRANCH   3  22
TORSDOF 5
ENDMDL