MODEL 5
REMARK VINA RESULT: -5.824924167      2.494      2.724
REMARK  12 active torsions:
REMARK  status: ('A' for Active; 'I' for Inactive)
REMARK    1  A    between atoms: N1_2  and  N2_4
REMARK    2  A    between atoms: C2_6  and  C3_7
REMARK    3  A    between atoms: C2_6  and  N9_32
REMARK    4  A    between atoms: C3_7  and  C4_8
REMARK    5  A    between atoms: C4_8  and  C5_9
REMARK    6  A    between atoms: C5_9  and  N3_10
REMARK    7  A    between atoms: C5_9  and  C6_14
REMARK       I    between atoms: C6_14  and  N4_16
REMARK    8  A    between atoms: N4_16  and  C7_18
REMARK    9  A    between atoms: C7_18  and  C8_19
REMARK   10  A    between atoms: C10_22  and  N5_23
REMARK       I    between atoms: N5_23  and  C11_25
REMARK   11  A    between atoms: N9_32  and  C12_34
REMARK   12  A    between atoms: C13_37  and  N11_38
ROOT
HETATM    1  C5  UNL     1      -4.162  50.030  26.136  1.00  0.00     0.275 C
ENDROOT
BRANCH   1   2
HETATM    2  C4  UNL     1      -5.595  50.212  25.667  1.00  0.00     0.050 C
BRANCH   2   3
HETATM    3  C3  UNL     1      -5.593  51.275  24.590  1.00  0.00     0.080 C
BRANCH   3   4
HETATM    4  C2  UNL     1      -6.848  51.328  23.841  1.00  0.00     0.097 C
HETATM    5  N2  UNL     1      -7.751  52.181  24.175  1.00  0.00    -0.290 N
ATOM      6  H2  UNL     1      -8.620  52.201  23.640  1.00  0.00     0.188 HD
BRANCH   5   7
HETATM    7  N1  UNL     1      -7.604  53.076  25.228  1.00  0.00    -0.321 N
HETATM    8  C1  UNL     1      -8.486  53.986  25.398  1.00  0.00     0.139 C
ATOM      9  H1  UNL     1      -6.803  53.009  25.857  1.00  0.00     0.185 HD
ENDBRANCH   5   7
BRANCH   4  10
HETATM   10  N9  UNL     1      -7.112  50.462  22.748  1.00  0.00    -0.335 N
ATOM     11  H9  UNL     1      -8.081  50.195  22.573  1.00  0.00     0.168 HD
BRANCH  10  12
HETATM   12  C12 UNL     1      -6.117  49.945  21.888  1.00  0.00     0.082 C
HETATM   13  N10 UNL     1      -5.749  48.709  21.905  1.00  0.00    -0.337 N
HETATM   14  C13 UNL     1      -4.715  48.249  20.985  1.00  0.00     0.383 C
ATOM     15  H10 UNL     1      -6.180  48.056  22.559  1.00  0.00     0.164 HD
HETATM   16  N12 UNL     1      -4.825  48.811  19.678  1.00  0.00    -0.380 N
HETATM   17  C14 UNL     1      -5.116  50.206  19.621  1.00  0.00     0.125 C
ATOM     18  H12 UNL     1      -4.703  48.249  18.836  1.00  0.00     0.157 HD
HETATM   19  C15 UNL     1      -5.461  50.845  20.923  1.00  0.00     0.095 C
BRANCH  14  20
HETATM   20  N11 UNL     1      -3.398  48.376  21.569  1.00  0.00    -0.041 N
ATOM     21 3H11 UNL     1      -2.712  47.807  21.072  1.00  0.00     0.279 HD
ATOM     22 2H11 UNL     1      -2.996  49.297  21.390  1.00  0.00     0.279 HD
ATOM     23 1H11 UNL     1      -3.411  48.160  22.566  1.00  0.00     0.279 HD
ENDBRANCH  14  20
ENDBRANCH  10  12
ENDBRANCH   4  10
ENDBRANCH   3   4
ENDBRANCH   2   3
ENDBRANCH   1   2
BRANCH   1  24
HETATM   24  N3  UNL     1      -3.310  49.649  25.036  1.00  0.00    -0.066 N
ATOM     25  H33 UNL     1      -2.366  49.426  25.349  1.00  0.00     0.275 HD
ATOM     26  H32 UNL     1      -3.566  48.737  24.659  1.00  0.00     0.275 HD
ATOM     27  H31 UNL     1      -3.309  50.370  24.314  1.00  0.00     0.275 HD
ENDBRANCH   1  24
BRANCH   1  28
HETATM   28  C6  UNL     1      -3.653  51.261  26.799  1.00  0.00     0.248 C
HETATM   29  O1  UNL     1      -2.693  51.847  26.237  1.00  0.00    -0.271 OA
HETATM   30  N4  UNL     1      -4.267  51.689  27.993  1.00  0.00    -0.354 N
ATOM     31  H4  UNL     1      -5.041  51.129  28.349  1.00  0.00     0.162 HD
BRANCH  30  32
HETATM   32  C7  UNL     1      -3.889  52.857  28.754  1.00  0.00     0.180 C
BRANCH  32  33
HETATM   33  C8  UNL     1      -2.554  52.639  29.460  1.00  0.00     0.035 A
HETATM   34  C9  UNL     1      -2.408  51.556  30.290  1.00  0.00     0.080 A
HETATM   35  S1  UNL     1      -0.797  51.732  30.827  1.00  0.00    -0.064 SA
HETATM   36  C10 UNL     1      -0.407  53.155  29.975  1.00  0.00     0.151 A
HETATM   37  N8  UNL     1      -1.528  53.432  29.319  1.00  0.00    -0.338 N
ATOM     38  H8  UNL     1      -1.586  54.251  28.713  1.00  0.00     0.168 HD
BRANCH  36  39
HETATM   39  N5  UNL     1       0.713  53.846  29.944  1.00  0.00    -0.311 N
HETATM   40  C11 UNL     1       1.226  54.196  28.672  1.00  0.00     0.187 C
HETATM   41  N6  UNL     1       2.291  54.932  28.649  1.00  0.00    -0.373 N
HETATM   42  N7  UNL     1       0.656  53.796  27.446  1.00  0.00    -0.064 NA
ATOM     43  H62 UNL     1       2.703  55.222  29.535  1.00  0.00     0.158 HD
ATOM     44  H61 UNL     1       2.661  55.184  27.732  1.00  0.00     0.158 HD
ATOM     45  H5  UNL     1       1.192  54.119  30.803  1.00  0.00     0.170 HD
ENDBRANCH  36  39
ENDBRANCH  32  33
ENDBRANCH  30  32
ENDBRANCH   1  28
TORSDOF 12
ENDMDL