MODEL 2
REMARK VINA RESULT: -5.179461430      2.325      6.819
REMARK  10 active torsions:
REMARK  status: ('A' for Active; 'I' for Inactive)
REMARK    1  A    between atoms: N1_1  and  C1_4
REMARK    2  A    between atoms: C5_11  and  N4_12
REMARK    3  A    between atoms: N4_12  and  C6_14
REMARK    4  A    between atoms: C6_14  and  C7_15
REMARK    5  A    between atoms: C7_15  and  N5_16
REMARK    6  A    between atoms: N5_16  and  C8_18
REMARK    7  A    between atoms: C10_24  and  S1_25
REMARK    8  A    between atoms: S1_25  and  C11_27
REMARK    9  A    between atoms: C11_27  and  C12_28
REMARK   10  A    between atoms: C12_28  and  N8_29
ROOT
HETATM    1  N4  UNL     1      -6.081  48.487  27.191  1.00  0.00    -0.224 N
ATOM      2  H4  UNL     1      -6.896  47.914  27.411  1.00  0.00     0.177 HD
ENDROOT
BRANCH   1   3
HETATM    3  C5  UNL     1      -5.709  48.629  25.976  1.00  0.00     0.681 A
HETATM    4  N3  UNL     1      -6.242  49.476  25.099  1.00  0.00    -0.189 N
HETATM    5  C4  UNL     1      -5.793  49.572  23.820  1.00  0.00     0.094 A
ATOM      6  H3  UNL     1      -7.013  50.073  25.397  1.00  0.00     0.184 HD
HETATM    7  C3  UNL     1      -6.487  50.511  23.088  1.00  0.00     0.078 C
HETATM    8  C14 UNL     1      -4.750  48.762  23.428  1.00  0.00     0.129 A
HETATM    9  C2  UNL     1      -6.421  50.765  21.712  1.00  0.00     0.077 C
HETATM   10  N2  UNL     1      -7.390  51.341  23.792  1.00  0.00    -0.100 NA
HETATM   11  C1  UNL     1      -5.459  50.332  20.826  1.00  0.00     0.103 C
HETATM   12  N10 UNL     1      -4.478  49.437  21.073  1.00  0.00    -0.309 N
HETATM   13  C15 UNL     1      -4.174  48.733  22.170  1.00  0.00     0.265 C
ATOM     14  H10 UNL     1      -3.857  49.268  20.281  1.00  0.00     0.170 HD
HETATM   15  O3  UNL     1      -3.229  47.917  22.065  1.00  0.00    -0.267 OA
HETATM   16  C13 UNL     1      -4.177  47.870  24.324  1.00  0.00     0.277 A
HETATM   17  N9  UNL     1      -4.675  47.830  25.575  1.00  0.00    -0.155 N
HETATM   18  O2  UNL     1      -3.235  47.155  23.930  1.00  0.00    -0.266 OA
ATOM     19  H9  UNL     1      -4.266  47.181  26.248  1.00  0.00     0.187 HD
BRANCH  11  20
HETATM   20  N1  UNL     1      -5.480  50.824  19.614  1.00  0.00    -0.385 N
ATOM     21  H12 UNL     1      -6.202  51.522  19.436  1.00  0.00     0.157 HD
ATOM     22  H11 UNL     1      -4.786  50.482  18.949  1.00  0.00     0.157 HD
ENDBRANCH  11  20
ENDBRANCH   1   3
BRANCH   1  23
HETATM   23  C6  UNL     1      -5.354  49.136  28.251  1.00  0.00     0.157 C
BRANCH  23  24
HETATM   24  C7  UNL     1      -6.231  50.276  28.770  1.00  0.00     0.141 C
BRANCH  24  25
HETATM   25  N5  UNL     1      -5.572  51.534  28.624  1.00  0.00    -0.372 N
ATOM     26  H5  UNL     1      -5.239  52.013  29.460  1.00  0.00     0.161 HD
BRANCH  25  27
HETATM   27  C8  UNL     1      -5.386  52.078  27.493  1.00  0.00     0.136 A
HETATM   28  N6  UNL     1      -6.343  52.476  26.639  1.00  0.00    -0.285 N
HETATM   29  N7  UNL     1      -5.789  53.008  25.546  1.00  0.00    -0.309 N
ATOM     30  H6  UNL     1      -7.345  52.385  26.802  1.00  0.00     0.188 HD
HETATM   31  C9  UNL     1      -4.454  52.961  25.678  1.00  0.00     0.132 A
ATOM     32  H7  UNL     1      -6.295  53.387  24.745  1.00  0.00     0.186 HD
HETATM   33  C10 UNL     1      -4.152  52.384  26.889  1.00  0.00     0.093 A
BRANCH  33  34
HETATM   34  S1  UNL     1      -2.655  52.016  27.657  1.00  0.00     0.056 S
HETATM   35  O1  UNL     1      -1.403  52.129  26.564  1.00  0.00    -0.253 OA
BRANCH  34  36
HETATM   36  C11 UNL     1      -2.287  52.867  29.120  1.00  0.00     0.141 C
BRANCH  36  37
HETATM   37  C12 UNL     1      -2.546  54.336  29.132  1.00  0.00     0.242 C
BRANCH  37  38
HETATM   38  N8  UNL     1      -1.817  54.898  27.975  1.00  0.00    -0.079 N
ATOM     39  H83 UNL     1      -1.865  54.310  27.143  1.00  0.00     0.274 HD
ATOM     40  H82 UNL     1      -2.268  55.721  27.574  1.00  0.00     0.274 HD
ATOM     41  H81 UNL     1      -0.864  55.074  28.294  1.00  0.00     0.274 HD
ENDBRANCH  37  38
ENDBRANCH  36  37
ENDBRANCH  34  36
ENDBRANCH  33  34
ENDBRANCH  25  27
ENDBRANCH  24  25
ENDBRANCH  23  24
ENDBRANCH   1  23
TORSDOF 10
ENDMDL