MODEL 5
REMARK VINA RESULT: -5.531057535      7.584     12.200
REMARK  10 active torsions:
REMARK  status: ('A' for Active; 'I' for Inactive)
REMARK    1  A    between atoms: C4_4  and  C5_5
REMARK    2  A    between atoms: C5_5  and  N1_6
REMARK    3  A    between atoms: C5_5  and  C6_10
REMARK    4  A    between atoms: C9_15  and  N3_16
REMARK    5  A    between atoms: N3_16  and  C10_18
REMARK    6  A    between atoms: C10_18  and  C11_19
REMARK    7  A    between atoms: C10_18  and  C12_24
REMARK    8  A    between atoms: C11_19  and  N4_20
REMARK    9  A    between atoms: C13_27  and  N6_28
REMARK       I    between atoms: N6_28  and  C14_30
REMARK       I    between atoms: C14_30  and  N7_31
REMARK       I    between atoms: C14_30  and  N8_35
REMARK   10  A    between atoms: C15_41  and  N10_42
REMARK       I    between atoms: N10_42  and  C16_44
ROOT
HETATM    1  C12 UNL     1       5.513  56.313  28.763  1.00  0.00     0.137 A
HETATM    2  N5  UNL     1       6.708  56.557  28.206  1.00  0.00    -0.177 N
ATOM      3  H5  UNL     1       6.831  57.421  27.679  1.00  0.00     0.185 HD
HETATM    4  C13 UNL     1       7.752  55.717  28.310  1.00  0.00     0.697 A
HETATM    5  N9  UNL     1       7.566  54.580  29.014  1.00  0.00    -0.022 N
ATOM      6  H9  UNL     1       8.342  53.924  29.108  1.00  0.00     0.203 HD
HETATM    7  C15 UNL     1       6.390  54.285  29.594  1.00  0.00     0.702 A
HETATM    8  N12 UNL     1       5.387  55.165  29.453  1.00  0.00    -0.177 N
ATOM      9  H12 UNL     1       4.488  54.955  29.888  1.00  0.00     0.185 HD
ENDROOT
BRANCH   1  10
HETATM   10  C10 UNL     1       4.432  57.302  28.588  1.00  0.00     0.176 C
BRANCH  10  11
HETATM   11  N3  UNL     1       3.154  56.704  28.334  1.00  0.00    -0.376 N
ATOM     12  H3  UNL     1       3.117  55.688  28.409  1.00  0.00     0.160 HD
BRANCH  11  13
HETATM   13  C9  UNL     1       1.949  57.335  27.995  1.00  0.00     0.034 A
HETATM   14  C2  UNL     1       0.785  56.921  28.600  1.00  0.00    -0.035 A
HETATM   15  C1  UNL     1       0.784  55.815  29.627  1.00  0.00     0.050 C
HETATM   16  C3  UNL     1      -0.413  57.516  28.272  1.00  0.00     0.018 A
HETATM   17  C4  UNL     1      -0.500  58.549  27.328  1.00  0.00    -0.019 A
HETATM   18  C7  UNL     1       0.676  58.926  26.757  1.00  0.00     0.012 A
HETATM   19  C8  UNL     1       1.888  58.342  27.070  1.00  0.00     0.030 A
BRANCH  17  20
HETATM   20  C5  UNL     1      -1.837  59.121  27.068  1.00  0.00     0.304 C
BRANCH  20  21
HETATM   21  N1  UNL     1      -1.807  60.562  27.306  1.00  0.00    -0.063 N
ATOM     22  H13 UNL     1      -2.473  60.847  28.024  1.00  0.00     0.275 HD
ATOM     23  H12 UNL     1      -0.950  60.857  27.776  1.00  0.00     0.275 HD
ATOM     24  H11 UNL     1      -1.954  61.056  26.426  1.00  0.00     0.275 HD
ENDBRANCH  20  21
BRANCH  20  25
HETATM   25  C6  UNL     1      -2.314  58.820  25.731  1.00  0.00     0.266 C
HETATM   26  N2  UNL     1      -2.348  57.467  25.274  1.00  0.00    -0.060 NA
HETATM   27  O1  UNL     1      -2.707  59.735  24.953  1.00  0.00    -0.274 OA
ENDBRANCH  20  25
ENDBRANCH  17  20
ENDBRANCH  11  13
ENDBRANCH  10  11
BRANCH  10  28
HETATM   28  C11 UNL     1       4.497  58.258  29.727  1.00  0.00     0.262 C
BRANCH  28  29
HETATM   29  N4  UNL     1       4.664  59.638  29.300  1.00  0.00    -0.077 N
ATOM     30  H43 UNL     1       5.385  59.713  28.583  1.00  0.00     0.274 HD
ATOM     31  H42 UNL     1       3.858  59.952  28.759  1.00  0.00     0.274 HD
ATOM     32  H41 UNL     1       4.853  60.274  30.074  1.00  0.00     0.274 HD
ENDBRANCH  28  29
ENDBRANCH  10  28
ENDBRANCH   1  10
BRANCH   4  33
HETATM   33  N6  UNL     1       8.908  55.932  27.784  1.00  0.00    -0.173 N
HETATM   34  C14 UNL     1       9.569  57.194  28.025  1.00  0.00     0.494 C
HETATM   35  N7  UNL     1       9.851  57.807  26.725  1.00  0.00    -0.032 N
HETATM   36  N8  UNL     1      10.859  56.973  28.661  1.00  0.00    -0.032 N
ATOM     37  H73 UNL     1      10.381  57.195  26.105  1.00  0.00     0.278 HD
ATOM     38  H72 UNL     1       9.019  57.901  26.143  1.00  0.00     0.278 HD
ATOM     39  H71 UNL     1      10.318  58.698  26.896  1.00  0.00     0.278 HD
ATOM     40  H83 UNL     1      10.773  56.419  29.513  1.00  0.00     0.278 HD
ATOM     41  H82 UNL     1      11.444  56.332  28.124  1.00  0.00     0.278 HD
ATOM     42  H81 UNL     1      11.326  57.863  28.832  1.00  0.00     0.278 HD
ATOM     43  H6  UNL     1       9.351  55.220  27.204  1.00  0.00     0.181 HD
ENDBRANCH   4  33
BRANCH   7  44
HETATM   44  N10 UNL     1       6.189  53.206  30.270  1.00  0.00    -0.143 N
HETATM   45  C16 UNL     1       5.116  52.328  30.060  1.00  0.00     0.346 C
HETATM   46  N11 UNL     1       5.292  51.079  29.411  1.00  0.00    -0.039 NA
HETATM   47  O2  UNL     1       3.961  52.638  30.452  1.00  0.00    -0.250 OA
ATOM     48  H10 UNL     1       6.855  52.975  31.007  1.00  0.00     0.188 HD
ENDBRANCH   7  44
TORSDOF 10
ENDMDL