MODEL 5
REMARK VINA RESULT: -5.500547352      1.481      2.581
REMARK  11 active torsions:
REMARK  status: ('A' for Active; 'I' for Inactive)
REMARK    1  A    between atoms: N1_2  and  C2_4
REMARK    2  A    between atoms: C3_7  and  N3_8
REMARK    3  A    between atoms: C4_13  and  N5_14
REMARK    4  A    between atoms: N5_14  and  C5_16
REMARK    5  A    between atoms: C5_16  and  C6_17
REMARK    6  A    between atoms: C6_17  and  C7_18
REMARK    7  A    between atoms: C7_18  and  N6_19
REMARK    8  A    between atoms: C9_24  and  C10_25
REMARK    9  A    between atoms: C15_32  and  C16_33
REMARK   10  A    between atoms: C17_36  and  N10_37
REMARK   11  A    between atoms: N11_40  and  N12_41
ROOT
HETATM    1  N6  UNL     1      -3.172  52.908  26.641  1.00  0.00    -0.203 N
ATOM      2  H6  UNL     1      -2.516  53.084  25.879  1.00  0.00     0.183 HD
HETATM    3  C8  UNL     1      -4.054  52.105  26.270  1.00  0.00     0.705 A
HETATM    4  N7  UNL     1      -3.996  51.623  24.973  1.00  0.00    -0.186 N
ATOM      5  H7  UNL     1      -3.237  51.942  24.370  1.00  0.00     0.184 HD
HETATM    6  C9  UNL     1      -4.887  50.759  24.474  1.00  0.00     0.095 A
HETATM    7  C15 UNL     1      -5.929  50.300  25.240  1.00  0.00     0.104 A
HETATM    8  C17 UNL     1      -5.974  50.794  26.543  1.00  0.00     0.156 A
HETATM    9  N11 UNL     1      -5.068  51.660  27.024  1.00  0.00    -0.076 N
ENDROOT
BRANCH   1  10
HETATM   10  C7  UNL     1      -2.804  53.633  27.760  1.00  0.00     0.080 C
BRANCH  10  11
HETATM   11  C6  UNL     1      -1.703  52.936  28.545  1.00  0.00     0.065 C
BRANCH  11  12
HETATM   12  C5  UNL     1      -0.619  53.871  28.976  1.00  0.00     0.143 C
BRANCH  12  13
HETATM   13  N5  UNL     1       0.359  54.113  27.934  1.00  0.00    -0.225 N
ATOM     14  H5  UNL     1       0.634  53.357  27.308  1.00  0.00     0.177 HD
BRANCH  13  15
HETATM   15  C4  UNL     1       0.880  55.284  27.798  1.00  0.00     0.707 A
HETATM   16  N4  UNL     1       0.246  56.308  27.197  1.00  0.00    -0.022 N
HETATM   17  C3  UNL     1       0.802  57.525  27.061  1.00  0.00     0.705 A
ATOM     18  H4  UNL     1      -0.693  56.154  26.830  1.00  0.00     0.203 HD
HETATM   19  N2  UNL     1       2.036  57.766  27.532  1.00  0.00    -0.022 N
HETATM   20  C2  UNL     1       2.688  56.758  28.136  1.00  0.00     0.706 A
ATOM     21  H2  UNL     1       2.465  58.686  27.435  1.00  0.00     0.203 HD
HETATM   22  N13 UNL     1       2.117  55.526  28.269  1.00  0.00    -0.022 N
ATOM     23  H13 UNL     1       2.634  54.779  28.731  1.00  0.00     0.203 HD
BRANCH  17  24
HETATM   24  N3  UNL     1       0.177  58.494  26.481  1.00  0.00    -0.234 N
ATOM     25  H32 UNL     1       0.001  59.380  26.957  1.00  0.00     0.174 HD
ATOM     26  H31 UNL     1      -0.139  58.352  25.522  1.00  0.00     0.174 HD
ENDBRANCH  17  24
BRANCH  20  27
HETATM   27  N1  UNL     1       3.873  56.993  28.586  1.00  0.00    -0.229 N
HETATM   28  C1  UNL     1       4.815  55.895  28.669  1.00  0.00     0.165 C
ATOM     29  H1  UNL     1       4.142  57.933  28.879  1.00  0.00     0.177 HD
ENDBRANCH  20  27
ENDBRANCH  13  15
ENDBRANCH  12  13
ENDBRANCH  11  12
ENDBRANCH  10  11
ENDBRANCH   1  10
BRANCH   9  30
HETATM   30  N12 UNL     1      -5.216  52.096  28.371  1.00  0.00    -0.322 N
ATOM     31 2H12 UNL     1      -6.133  52.434  28.664  1.00  0.00     0.178 HD
ATOM     32 1H12 UNL     1      -4.426  52.068  29.015  1.00  0.00     0.178 HD
ENDBRANCH   9  30
BRANCH   6  33
HETATM   33  C10 UNL     1      -4.744  50.270  23.087  1.00  0.00     0.060 A
HETATM   34  C11 UNL     1      -5.286  50.960  22.035  1.00  0.00     0.032 A
HETATM   35  C12 UNL     1      -5.149  50.498  20.732  1.00  0.00     0.004 A
HETATM   36  C13 UNL     1      -4.462  49.334  20.509  1.00  0.00     0.017 A
HETATM   37  C14 UNL     1      -3.927  48.659  21.583  1.00  0.00     0.088 A
HETATM   38  N8  UNL     1      -4.084  49.142  22.820  1.00  0.00    -0.364 N
ATOM     39  H8  UNL     1      -3.678  48.623  23.599  1.00  0.00     0.165 HD
ENDBRANCH   6  33
BRANCH   8  40
HETATM   40  N10 UNL     1      -6.943  50.380  27.293  1.00  0.00    -0.383 N
ATOM     41 2H10 UNL     1      -7.651  51.035  27.627  1.00  0.00     0.157 HD
ATOM     42 1H10 UNL     1      -6.957  49.386  27.523  1.00  0.00     0.157 HD
ENDBRANCH   8  40
BRANCH   7  43
HETATM   43  C16 UNL     1      -6.963  49.401  24.778  1.00  0.00     0.271 C
HETATM   44  N9  UNL     1      -6.751  47.997  24.813  1.00  0.00    -0.057 NA
HETATM   45  O1  UNL     1      -8.096  49.785  24.325  1.00  0.00    -0.271 OA
ENDBRANCH   7  43
TORSDOF 11
ENDMDL