MODEL 1
REMARK VINA RESULT: -5.770513023      0.000      0.000
REMARK  10 active torsions:
REMARK  status: ('A' for Active; 'I' for Inactive)
REMARK       I    between atoms: C1_4  and  N3_6
REMARK    1  A    between atoms: N3_6  and  C2_8
REMARK    2  A    between atoms: C4_11  and  C5_12
REMARK    3  A    between atoms: C5_12  and  N4_13
REMARK    4  A    between atoms: N4_13  and  N5_15
REMARK       I    between atoms: N5_15  and  C6_17
REMARK       I    between atoms: C6_17  and  N6_18
REMARK       I    between atoms: C6_17  and  N8_23
REMARK    5  A    between atoms: N6_18  and  N7_20
REMARK    6  A    between atoms: N8_23  and  C7_25
REMARK    7  A    between atoms: C7_25  and  C8_26
REMARK    8  A    between atoms: C8_26  and  N9_27
REMARK    9  A    between atoms: N9_27  and  C9_29
REMARK       I    between atoms: N11_34  and  C12_35
REMARK   10  A    between atoms: N14_41  and  O1_42
ROOT
HETATM    1  N5  UNL     1      -3.963  52.064  25.490  1.00  0.00    -0.131 N
ATOM      2  H5  UNL     1      -3.310  51.940  24.716  1.00  0.00     0.205 HD
HETATM    3  C6  UNL     1      -3.609  51.635  26.798  1.00  0.00     0.706 C
HETATM    4  N6  UNL     1      -2.674  50.785  26.972  1.00  0.00    -0.138 N
ATOM      5  H6  UNL     1      -2.438  50.493  27.921  1.00  0.00     0.205 HD
HETATM    6  N8  UNL     1      -4.301  52.159  27.908  1.00  0.00    -0.222 N
ATOM      7  H8  UNL     1      -5.266  51.887  28.098  1.00  0.00     0.177 HD
ENDROOT
BRANCH   1   8
HETATM    8  N4  UNL     1      -5.160  52.632  25.277  1.00  0.00    -0.295 N
ATOM      9  H4  UNL     1      -5.189  53.595  25.609  1.00  0.00     0.186 HD
BRANCH   8  10
HETATM   10  C5  UNL     1      -6.221  52.286  24.786  1.00  0.00     0.140 C
BRANCH  10  11
HETATM   11  C4  UNL     1      -6.535  51.060  24.015  1.00  0.00     0.088 A
HETATM   12  C3  UNL     1      -7.600  50.278  24.372  1.00  0.00     0.086 A
HETATM   13  S1  UNL     1      -7.542  49.019  23.210  1.00  0.00    -0.061 SA
HETATM   14  C2  UNL     1      -6.183  49.549  22.345  1.00  0.00     0.178 A
HETATM   15  N14 UNL     1      -5.826  50.664  22.974  1.00  0.00    -0.200 N
BRANCH  14  16
HETATM   16  N3  UNL     1      -5.599  49.000  21.293  1.00  0.00    -0.309 N
HETATM   17  C1  UNL     1      -4.404  48.283  21.349  1.00  0.00     0.187 C
HETATM   18  N1  UNL     1      -3.273  48.872  21.170  1.00  0.00    -0.373 N
HETATM   19  N2  UNL     1      -4.479  46.882  21.607  1.00  0.00    -0.064 NA
ATOM     20  H12 UNL     1      -2.400  48.347  21.212  1.00  0.00     0.158 HD
ATOM     21  H11 UNL     1      -3.220  49.874  20.986  1.00  0.00     0.158 HD
ATOM     22  H3  UNL     1      -6.050  49.109  20.384  1.00  0.00     0.170 HD
ENDBRANCH  14  16
BRANCH  15  23
HETATM   23  O1  UNL     1      -4.694  51.374  22.489  1.00  0.00    -0.280 OA
ATOM     24  H1  UNL     1      -3.840  50.968  22.575  1.00  0.00     0.245 HD
ENDBRANCH  15  23
ENDBRANCH  10  11
ENDBRANCH   8  10
ENDBRANCH   1   8
BRANCH   4  25
HETATM   25  N7  UNL     1      -1.966  50.246  25.902  1.00  0.00    -0.331 N
ATOM     26  H72 UNL     1      -2.191  50.573  24.963  1.00  0.00     0.177 HD
ATOM     27  H71 UNL     1      -1.239  49.543  26.039  1.00  0.00     0.177 HD
ENDBRANCH   4  25
BRANCH   6  28
HETATM   28  C7  UNL     1      -3.608  53.095  28.776  1.00  0.00     0.157 C
BRANCH  28  29
HETATM   29  C8  UNL     1      -2.776  53.990  27.856  1.00  0.00     0.141 C
BRANCH  29  30
HETATM   30  N9  UNL     1      -2.124  55.006  28.644  1.00  0.00    -0.377 N
ATOM     31  H9  UNL     1      -2.213  55.008  29.659  1.00  0.00     0.160 HD
BRANCH  30  32
HETATM   32  C9  UNL     1      -1.362  56.002  27.991  1.00  0.00     0.091 C
HETATM   33  N10 UNL     1      -0.088  55.860  27.925  1.00  0.00    -0.377 N
HETATM   34  C10 UNL     1       0.782  56.825  27.277  1.00  0.00     0.141 C
ATOM     35  H10 UNL     1       0.332  55.032  28.347  1.00  0.00     0.160 HD
HETATM   36  C11 UNL     1       0.070  57.350  26.063  1.00  0.00     0.145 C
HETATM   37  N11 UNL     1      -1.197  57.898  26.499  1.00  0.00    -0.347 N
HETATM   38  C12 UNL     1      -1.626  59.171  26.044  1.00  0.00     0.184 C
HETATM   39  C13 UNL     1      -2.062  57.169  27.408  1.00  0.00     0.201 C
HETATM   40  N12 UNL     1      -1.084  60.219  26.507  1.00  0.00    -0.374 N
HETATM   41  N13 UNL     1      -2.650  59.236  25.081  1.00  0.00    -0.064 NA
ATOM     42 2H12 UNL     1      -0.342  60.171  27.205  1.00  0.00     0.158 HD
ATOM     43 1H12 UNL     1      -1.392  61.134  26.179  1.00  0.00     0.158 HD
ENDBRANCH  30  32
ENDBRANCH  29  30
ENDBRANCH  28  29
ENDBRANCH   6  28
TORSDOF 10
ENDMDL