MODEL 3
REMARK VINA RESULT: -5.074588938      1.533      2.093
REMARK  11 active torsions:
REMARK  status: ('A' for Active; 'I' for Inactive)
REMARK    1  A    between atoms: C2_2  and  C5_5
REMARK    2  A    between atoms: C8_8  and  C9_9
REMARK    3  A    between atoms: C9_9  and  C10_10
REMARK    4  A    between atoms: C10_10  and  N1_11
REMARK    5  A    between atoms: C10_10  and  C16_38
REMARK    6  A    between atoms: C12_16  and  N3_17
REMARK    7  A    between atoms: C13_22  and  N5_23
REMARK       I    between atoms: N5_23  and  C14_25
REMARK    8  A    between atoms: C14_25  and  C15_27
REMARK    9  A    between atoms: C15_27  and  N6_28
REMARK   10  A    between atoms: C15_27  and  N7_32
REMARK       I    between atoms: C16_38  and  N9_40
REMARK   11  A    between atoms: N9_40  and  N10_42
ROOT
HETATM    1  N1  UNL     1      -0.912  53.849  29.591  1.00  0.00    -0.208 N
ATOM      2  H1  UNL     1      -0.707  53.730  30.582  1.00  0.00     0.179 HD
HETATM    3  C11 UNL     1      -0.476  54.906  29.189  1.00  0.00     0.708 A
HETATM    4  N2  UNL     1       0.169  55.692  30.114  1.00  0.00    -0.022 N
ATOM      5  H2  UNL     1       0.264  55.345  31.069  1.00  0.00     0.203 HD
HETATM    6  C12 UNL     1       0.673  56.885  29.817  1.00  0.00     0.705 A
HETATM    7  N4  UNL     1       0.548  57.351  28.541  1.00  0.00    -0.021 N
ATOM      8  H4  UNL     1       0.930  58.266  28.302  1.00  0.00     0.203 HD
HETATM    9  C13 UNL     1      -0.072  56.623  27.590  1.00  0.00     0.714 A
HETATM   10  N8  UNL     1      -0.570  55.405  27.960  1.00  0.00    -0.021 N
ATOM     11  H8  UNL     1      -1.043  54.845  27.251  1.00  0.00     0.203 HD
ENDROOT
BRANCH   1  12
HETATM   12  C10 UNL     1      -1.640  52.702  29.080  1.00  0.00     0.218 C
BRANCH  12  13
HETATM   13  C9  UNL     1      -3.065  53.007  29.039  1.00  0.00     0.038 C
BRANCH  13  14
HETATM   14  C8  UNL     1      -3.943  52.785  27.914  1.00  0.00     0.030 A
HETATM   15  C7  UNL     1      -3.674  52.918  26.594  1.00  0.00     0.030 A
HETATM   16  C6  UNL     1      -4.632  52.661  25.594  1.00  0.00     0.011 A
HETATM   17  C5  UNL     1      -5.903  52.261  25.942  1.00  0.00    -0.035 A
HETATM   18  C17 UNL     1      -6.153  52.133  27.285  1.00  0.00     0.096 A
HETATM   19  N11 UNL     1      -5.239  52.376  28.210  1.00  0.00    -0.366 N
ATOM     20  H11 UNL     1      -5.499  52.259  29.190  1.00  0.00     0.165 HD
BRANCH  17  21
HETATM   21  C2  UNL     1      -7.003  51.968  25.012  1.00  0.00    -0.023 C
HETATM   22  C1  UNL     1      -7.798  53.257  24.683  1.00  0.00     0.019 C
HETATM   23  C3  UNL     1      -8.021  51.001  25.568  1.00  0.00     0.019 C
HETATM   24  C4  UNL     1      -6.562  51.430  23.672  1.00  0.00     0.019 C
ENDBRANCH  17  21
ENDBRANCH  13  14
ENDBRANCH  12  13
BRANCH  12  25
HETATM   25  C16 UNL     1      -1.353  51.617  30.108  1.00  0.00     0.262 C
HETATM   26  O2  UNL     1      -0.962  50.479  29.847  1.00  0.00    -0.269 OA
HETATM   27  N9  UNL     1      -1.535  51.910  31.491  1.00  0.00    -0.275 N
ATOM     28  H9  UNL     1      -1.861  52.837  31.765  1.00  0.00     0.189 HD
BRANCH  27  29
HETATM   29  N10 UNL     1      -1.278  50.955  32.484  1.00  0.00    -0.343 N
ATOM     30 2H10 UNL     1      -0.308  50.704  32.671  1.00  0.00     0.176 HD
ATOM     31 1H10 UNL     1      -2.033  50.516  33.011  1.00  0.00     0.176 HD
ENDBRANCH  27  29
ENDBRANCH  12  25
ENDBRANCH   1  12
BRANCH   6  32
HETATM   32  N3  UNL     1       1.292  57.633  30.679  1.00  0.00    -0.234 N
ATOM     33  H32 UNL     1       1.145  57.440  31.670  1.00  0.00     0.174 HD
ATOM     34  H31 UNL     1       1.906  58.403  30.414  1.00  0.00     0.174 HD
ENDBRANCH   6  32
BRANCH   9  35
HETATM   35  N5  UNL     1      -0.200  57.054  26.392  1.00  0.00    -0.155 N
HETATM   36  C14 UNL     1      -1.421  57.528  25.873  1.00  0.00     0.294 C
HETATM   37  O1  UNL     1      -2.061  56.839  25.039  1.00  0.00    -0.268 OA
ATOM     38  H5  UNL     1       0.620  57.055  25.785  1.00  0.00     0.187 HD
BRANCH  36  39
HETATM   39  C15 UNL     1      -2.018  58.830  26.264  1.00  0.00     0.469 C
BRANCH  39  40
HETATM   40  N6  UNL     1      -0.991  59.881  26.313  1.00  0.00    -0.042 N
ATOM     41  H63 UNL     1      -0.874  60.251  27.257  1.00  0.00     0.277 HD
ATOM     42  H62 UNL     1      -0.054  59.500  26.179  1.00  0.00     0.277 HD
ATOM     43  H61 UNL     1      -1.198  60.620  25.642  1.00  0.00     0.277 HD
ENDBRANCH  39  40
BRANCH  39  44
HETATM   44  N7  UNL     1      -3.008  59.284  25.307  1.00  0.00    -0.042 N
ATOM     45  H73 UNL     1      -3.911  58.838  25.470  1.00  0.00     0.277 HD
ATOM     46  H72 UNL     1      -3.273  60.253  25.481  1.00  0.00     0.277 HD
ATOM     47  H71 UNL     1      -2.699  59.152  24.344  1.00  0.00     0.277 HD
ENDBRANCH  39  44
ENDBRANCH  36  39
ENDBRANCH   9  35
TORSDOF 11
ENDMDL