MODEL 5
REMARK VINA RESULT: -5.255235007      5.314      8.757
REMARK  10 active torsions:
REMARK  status: ('A' for Active; 'I' for Inactive)
REMARK       I    between atoms: N1_2  and  C2_4
REMARK    1  A    between atoms: N3_6  and  C3_8
REMARK    2  A    between atoms: C4_9  and  C5_10
REMARK    3  A    between atoms: C5_10  and  N4_11
REMARK    4  A    between atoms: N4_11  and  C6_14
REMARK    5  A    between atoms: C6_14  and  C7_15
REMARK    6  A    between atoms: C7_15  and  O1_16
REMARK    7  A    between atoms: C7_15  and  N5_18
REMARK       I    between atoms: N5_18  and  C9_20
REMARK    8  A    between atoms: C10_23  and  C11_24
REMARK    9  A    between atoms: C13_27  and  N8_28
REMARK   10  A    between atoms: C14_33  and  N10_34
ROOT
HETATM    1  C3  UNL     1       1.426  60.180  27.161  1.00  0.00     0.119 A
HETATM    2  C4  UNL     1       0.075  60.312  26.720  1.00  0.00     0.024 A
HETATM    3  C10 UNL     1      -0.778  59.214  26.678  1.00  0.00     0.006 A
HETATM    4  C12 UNL     1      -0.191  58.021  27.087  1.00  0.00     0.065 A
HETATM    5  C13 UNL     1      -0.876  56.839  27.151  1.00  0.00     0.129 A
HETATM    6  N9  UNL     1      -0.269  55.687  27.549  1.00  0.00    -0.176 N
ATOM      7  H9  UNL     1      -0.819  54.828  27.580  1.00  0.00     0.186 HD
HETATM    8  C14 UNL     1       1.016  55.639  27.898  1.00  0.00     0.679 A
HETATM    9  N11 UNL     1       1.723  56.796  27.870  1.00  0.00    -0.176 N
ATOM     10  H11 UNL     1       2.707  56.785  28.139  1.00  0.00     0.186 HD
HETATM   11  C15 UNL     1       1.157  57.960  27.494  1.00  0.00     0.139 A
HETATM   12  N12 UNL     1       1.926  59.039  27.535  1.00  0.00    -0.322 N
HETATM   13  C16 UNL     1       3.266  58.888  28.129  1.00  0.00     0.159 C
ENDROOT
BRANCH   2  14
HETATM   14  C5  UNL     1      -0.259  61.688  26.387  1.00  0.00     0.275 C
BRANCH  14  15
HETATM   15  N4  UNL     1      -0.707  61.943  24.997  1.00  0.00    -0.067 N
ATOM     16  H42 UNL     1      -0.628  61.140  24.373  1.00  0.00     0.277 HD
ATOM     17  H41 UNL     1      -1.715  62.060  24.891  1.00  0.00     0.277 HD
BRANCH  15  18
HETATM   18  C6  UNL     1       0.083  63.100  24.598  1.00  0.00     0.286 C
BRANCH  18  19
HETATM   19  C7  UNL     1       0.372  63.280  23.171  1.00  0.00     0.249 C
BRANCH  19  20
HETATM   20  O1  UNL     1       1.770  63.743  23.193  1.00  0.00    -0.375 OA
ATOM     21  H1  UNL     1       2.120  63.289  23.950  1.00  0.00     0.212 HD
ENDBRANCH  19  20
BRANCH  19  22
HETATM   22  N5  UNL     1      -0.223  64.319  22.414  1.00  0.00    -0.312 N
HETATM   23  C8  UNL     1      -0.488  65.610  23.000  1.00  0.00     0.157 C
HETATM   24  C9  UNL     1      -0.531  64.112  21.043  1.00  0.00     0.332 C
HETATM   25  N6  UNL     1      -0.936  65.153  20.150  1.00  0.00    -0.040 NA
HETATM   26  O2  UNL     1      -0.421  62.912  20.599  1.00  0.00    -0.251 OA
ENDBRANCH  19  22
ENDBRANCH  18  19
ENDBRANCH  15  18
ENDBRANCH  14  15
ENDBRANCH   2  14
BRANCH   1  27
HETATM   27  N3  UNL     1       2.152  61.191  26.985  1.00  0.00    -0.316 N
HETATM   28  C2  UNL     1       3.258  61.696  26.407  1.00  0.00     0.189 C
HETATM   29  N1  UNL     1       4.249  62.147  27.068  1.00  0.00    -0.369 N
HETATM   30  N2  UNL     1       3.365  61.816  24.947  1.00  0.00    -0.064 NA
HETATM   31  C1  UNL     1       5.439  62.751  26.526  1.00  0.00     0.148 C
ATOM     32  H1  UNL     1       4.195  62.072  28.084  1.00  0.00     0.161 HD
ATOM     33  H3  UNL     1       1.717  61.955  27.501  1.00  0.00     0.170 HD
ENDBRANCH   1  27
BRANCH   3  34
HETATM   34  C11 UNL     1      -2.148  59.404  26.281  1.00  0.00     0.113 C
HETATM   35  N7  UNL     1      -2.633  59.315  24.943  1.00  0.00    -0.114 NA
ENDBRANCH   3  34
BRANCH   5  36
HETATM   36  N8  UNL     1      -2.122  56.775  27.045  1.00  0.00    -0.384 N
ATOM     37  H82 UNL     1      -2.576  57.636  26.743  1.00  0.00     0.157 HD
ATOM     38  H81 UNL     1      -2.633  55.893  27.098  1.00  0.00     0.157 HD
ENDBRANCH   5  36
BRANCH   8  39
HETATM   39  N10 UNL     1       1.569  54.604  28.194  1.00  0.00    -0.234 N
ATOM     40 2H10 UNL     1       2.034  54.519  29.097  1.00  0.00     0.174 HD
ATOM     41 1H10 UNL     1       1.622  53.811  27.553  1.00  0.00     0.174 HD
ENDBRANCH   8  39
TORSDOF 10
ENDMDL