MODEL 5
REMARK VINA RESULT: -4.001294672      2.340      2.951
REMARK  1 active torsions:
REMARK  status: ('A' for Active; 'I' for Inactive)
REMARK    1  A    between atoms: N2_4  and  C1_6
ROOT
HETATM    1  C1  UNL     1      28.072  15.413  16.788  1.00  0.00     0.103 C
HETATM    2  C2  UNL     1      29.552  15.238  16.500  1.00  0.00     0.027 C
HETATM    3  C3  UNL     1      29.856  13.961  17.248  1.00  0.00     0.007 C
HETATM    4  C4  UNL     1      29.062  14.007  18.500  1.00  0.00    -0.008 A
HETATM    5  C5  UNL     1      28.739  15.249  19.221  1.00  0.00     0.012 A
HETATM    6  C6  UNL     1      27.829  14.821  18.154  1.00  0.00     0.014 A
ENDROOT
BRANCH   1   7
HETATM    7  N2  UNL     1      27.814  16.812  16.853  1.00  0.00    -0.338 N
HETATM    8  N1  UNL     1      26.735  17.306  16.481  1.00  0.00    -0.349 N
ATOM      9  H12 UNL     1      26.022  16.674  16.120  1.00  0.00     0.176 HD
ATOM     10  H11 UNL     1      26.551  18.308  16.527  1.00  0.00     0.176 HD
ATOM     11  H2  UNL     1      28.539  17.430  17.217  1.00  0.00     0.180 HD
ENDBRANCH   1   7
TORSDOF 1
ENDMDL