MODEL 4
REMARK VINA RESULT: -4.394252861      1.639      2.166
REMARK  4 active torsions:
REMARK  status: ('A' for Active; 'I' for Inactive)
REMARK    1  A    between atoms: C4_4  and  C5_5
REMARK    2  A    between atoms: C5_5  and  C6_6
REMARK    3  A    between atoms: C6_6  and  C7_7
REMARK    4  A    between atoms: C7_7  and  N1_8
ROOT
HETATM    1  C1  UNL     1      26.573   9.200  17.233  1.00  0.00     0.027 C
HETATM    2  C2  UNL     1      26.965  10.270  17.627  1.00  0.00    -0.026 C
HETATM    3  C3  UNL     1      27.405  11.532  18.062  1.00  0.00    -0.015 C
HETATM    4  C4  UNL     1      27.757  12.615  18.422  1.00  0.00    -0.081 C
ENDROOT
BRANCH   4   5
HETATM    5  C5  UNL     1      28.166  13.990  18.881  1.00  0.00     0.176 C
BRANCH   5   6
HETATM    6  C6  UNL     1      28.171  14.934  18.105  1.00  0.00    -0.150 C
BRANCH   6   7
HETATM    7  C7  UNL     1      28.176  16.024  17.211  1.00  0.00     0.219 C
BRANCH   7   8
HETATM    8  N1  UNL     1      29.394  15.999  16.405  1.00  0.00    -0.333 N
HETATM    9  N2  UNL     1      29.459  16.364  15.238  1.00  0.00    -0.349 N
ATOM     10  H22 UNL     1      28.596  16.706  14.815  1.00  0.00     0.176 HD
ATOM     11  H21 UNL     1      30.310  16.347  14.676  1.00  0.00     0.176 HD
ATOM     12  H1  UNL     1      30.248  15.655  16.844  1.00  0.00     0.180 HD
ENDBRANCH   7   8
ENDBRANCH   6   7
ENDBRANCH   5   6
ENDBRANCH   4   5
TORSDOF 4
ENDMDL