MODEL 1
REMARK VINA RESULT: -4.340877561      0.000      0.000
REMARK  0 active torsions:
REMARK  status: ('A' for Active; 'I' for Inactive)
ROOT
HETATM    1  C1  UNL     1      29.874  14.386  16.154  1.00  0.00     0.055 C
HETATM    2  C2  UNL     1      29.189  15.726  15.932  1.00  0.00     0.236 C
HETATM    3  N1  UNL     1      28.830  16.227  17.251  1.00  0.00    -0.051 N
ATOM      4  H11 UNL     1      28.519  17.198  17.213  1.00  0.00     0.279 HD
ATOM      5  H12 UNL     1      29.650  16.351  17.844  1.00  0.00     0.279 HD
HETATM    6  C3  UNL     1      27.829  15.361  17.884  1.00  0.00     0.467 C
HETATM    7  N2  UNL     1      28.418  14.086  18.115  1.00  0.00    -0.040 N
HETATM    8  C4  UNL     1      28.978  13.511  16.945  1.00  0.00     0.241 C
HETATM    9  C5  UNL     1      27.819  13.135  19.022  1.00  0.00     0.267 A
HETATM   10  C6  UNL     1      28.997  13.898  19.415  1.00  0.00     0.267 A
ENDROOT
TORSDOF 0
ENDMDL