MODEL 1
REMARK VINA RESULT: -4.039569919      0.000      0.000
REMARK  1 active torsions:
REMARK  status: ('A' for Active; 'I' for Inactive)
REMARK    1  A    between atoms: C5_6  and  C6_7
ROOT
HETATM    1  C1  UNL     1      29.877  15.259  14.938  1.00  0.00     0.054 C
HETATM    2  C2  UNL     1      29.349  14.295  15.930  1.00  0.00     0.054 C
HETATM    3  N1  UNL     1      28.847  14.594  17.042  1.00  0.00    -0.384 N
HETATM    4  C3  UNL     1      28.286  13.883  18.142  1.00  0.00     0.125 C
HETATM    5  C4  UNL     1      28.682  15.022  19.042  1.00  0.00     0.050 C
HETATM    6  C5  UNL     1      28.592  15.805  17.756  1.00  0.00     0.122 C
ENDROOT
BRANCH   6   7
HETATM    7  C6  UNL     1      27.233  16.371  17.569  1.00  0.00     0.078 C
HETATM    8  N2  UNL     1      27.000  17.179  16.608  1.00  0.00    -0.409 N
ATOM      9  H22 UNL     1      27.761  17.427  15.977  1.00  0.00     0.155 HD
ATOM     10  H21 UNL     1      26.066  17.568  16.479  1.00  0.00     0.155 HD
ENDBRANCH   6   7
TORSDOF 1
ENDMDL