MODEL 3
REMARK VINA RESULT: -3.636887303      1.154      2.612
REMARK  1 active torsions:
REMARK  status: ('A' for Active; 'I' for Inactive)
REMARK    1  A    between atoms: C2_2  and  N1_3
ROOT
HETATM    1  N1  UNL     1      29.067  14.455  17.498  1.00  0.00     0.016 N
HETATM    2  C3  UNL     1      28.890  15.873  17.698  1.00  0.00     0.263 C
HETATM    3  C4  UNL     1      27.738  15.601  18.610  1.00  0.00     0.066 C
HETATM    4  C5  UNL     1      27.812  14.203  18.009  1.00  0.00     0.229 C
HETATM    5  C6  UNL     1      28.362  13.244  19.009  1.00  0.00     0.178 C
HETATM    6  N2  UNL     1      29.659  13.765  18.553  1.00  0.00    -0.044 NA
ENDROOT
BRANCH   1   7
HETATM    7  C2  UNL     1      29.506  14.126  16.216  1.00  0.00     0.256 C
HETATM    8  C1  UNL     1      29.532  15.185  15.182  1.00  0.00     0.036 C
ENDBRANCH   1   7
TORSDOF 1
ENDMDL