MODEL 1
REMARK VINA RESULT: -3.516847476      0.000      0.000
REMARK  1 active torsions:
REMARK  status: ('A' for Active; 'I' for Inactive)
REMARK    1  A    between atoms: N2_4  and  C1_6
ROOT
HETATM    1  C1  UNL     1      27.410  11.372  20.079  1.00  0.00     0.340 C
HETATM    2  C2  UNL     1      26.628  10.440  20.972  1.00  0.00     0.043 C
HETATM    3  C3  UNL     1      27.348   9.129  20.633  1.00  0.00     0.039 C
HETATM    4  C4  UNL     1      27.750   9.358  19.190  1.00  0.00     0.275 C
HETATM    5  N3  UNL     1      27.166  10.656  18.811  1.00  0.00     0.113 N
HETATM    6  C5  UNL     1      25.724  10.402  18.808  1.00  0.00     0.275 C
HETATM    7  C6  UNL     1      25.304  10.375  20.274  1.00  0.00     0.039 C
ENDROOT
BRANCH   1   8
HETATM    8  N2  UNL     1      26.961  12.690  20.064  1.00  0.00    -0.310 N
HETATM    9  N1  UNL     1      27.541  13.561  19.407  1.00  0.00    -0.347 N
ATOM     10  H12 UNL     1      28.365  13.292  18.870  1.00  0.00     0.176 HD
ATOM     11  H11 UNL     1      27.213  14.527  19.395  1.00  0.00     0.176 HD
ATOM     12  H2  UNL     1      26.135  12.942  20.607  1.00  0.00     0.182 HD
ENDBRANCH   1   8
TORSDOF 1
ENDMDL