MODEL 5
REMARK VINA RESULT: -3.372455733      1.188      2.832
REMARK  1 active torsions:
REMARK  status: ('A' for Active; 'I' for Inactive)
REMARK    1  A    between atoms: C2_2  and  N1_3
ROOT
HETATM    1  N1  UNL     1      28.769  14.340  17.249  1.00  0.00    -0.034 N
HETATM    2  C3  UNL     1      28.211  15.675  17.356  1.00  0.00     0.468 C
HETATM    3  N2  UNL     1      28.975  16.208  18.496  1.00  0.00    -0.049 N
ATOM      4  H21 UNL     1      28.709  17.136  18.824  1.00  0.00     0.279 HD
ATOM      5  H22 UNL     1      29.942  16.471  18.308  1.00  0.00     0.279 HD
HETATM    6  C4  UNL     1      28.773  15.098  19.441  1.00  0.00     0.269 C
HETATM    7  C5  UNL     1      29.160  13.919  18.553  1.00  0.00     0.244 A
HETATM    8  C6  UNL     1      28.094  13.229  17.864  1.00  0.00     0.275 A
ENDROOT
BRANCH   1   9
HETATM    9  C2  UNL     1      29.591  14.139  16.100  1.00  0.00     0.236 C
HETATM   10  C1  UNL     1      29.584  15.237  15.106  1.00  0.00     0.035 C
ENDBRANCH   1   9
TORSDOF 1
ENDMDL