MODEL 3
REMARK VINA RESULT: -4.059669092      2.080      3.276
REMARK  3 active torsions:
REMARK  status: ('A' for Active; 'I' for Inactive)
REMARK    1  A    between atoms: N1_1  and  N2_4
REMARK    2  A    between atoms: N2_4  and  C1_5
REMARK    3  A    between atoms: C1_5  and  S1_6
ROOT
HETATM    1  S1  UNL     1      29.260  14.106  17.904  1.00  0.00    -0.115 SA
HETATM    2  C2  UNL     1      28.051  15.067  18.748  1.00  0.00     0.304 C
HETATM    3  N3  UNL     1      27.465  13.850  19.314  1.00  0.00    -0.059 N
ATOM      4  H31 UNL     1      26.454  13.839  19.443  1.00  0.00     0.278 HD
ATOM      5  H32 UNL     1      27.652  13.661  20.300  1.00  0.00     0.278 HD
HETATM    6  C3  UNL     1      28.016  12.915  18.349  1.00  0.00     0.304 C
ENDROOT
BRANCH   1   7
HETATM    7  C1  UNL     1      29.330  14.301  16.188  1.00  0.00     0.246 C
BRANCH   7   8
HETATM    8  N2  UNL     1      29.283  15.450  15.706  1.00  0.00    -0.340 NA
BRANCH   8   9
HETATM    9  N1  UNL     1      29.232  16.670  15.432  1.00  0.00    -0.280 N
ATOM     10  H12 UNL     1      30.252  16.680  15.399  1.00  0.00     0.191 HD
ATOM     11  H11 UNL     1      29.014  17.643  15.219  1.00  0.00     0.191 HD
ENDBRANCH   8   9
ENDBRANCH   7   8
ENDBRANCH   1   7
TORSDOF 3
ENDMDL