MODEL 5
REMARK VINA RESULT: -3.219997956      3.408      4.702
REMARK  1 active torsions:
REMARK  status: ('A' for Active; 'I' for Inactive)
REMARK    1  A    between atoms: C3_3  and  N1_4
ROOT
HETATM    1  C1  UNL     1      25.062   8.881  16.428  1.00  0.00     0.013 C
HETATM    2  C2  UNL     1      26.013   9.506  16.834  1.00  0.00    -0.089 C
HETATM    3  C3  UNL     1      27.173  10.260  17.302  1.00  0.00     0.332 C
ENDROOT
BRANCH   3   4
HETATM    4  N1  UNL     1      26.995  10.827  18.551  1.00  0.00    -0.029 N
HETATM    5  C4  UNL     1      27.448  12.175  18.813  1.00  0.00     0.469 C
HETATM    6  N2  UNL     1      27.048  12.305  20.230  1.00  0.00    -0.043 N
HETATM    7  C5  UNL     1      26.581  10.994  20.485  1.00  0.00     0.239 C
ATOM      8  H22 UNL     1      27.771  12.648  20.863  1.00  0.00     0.279 HD
ATOM      9  H21 UNL     1      26.391  13.057  20.436  1.00  0.00     0.279 HD
HETATM   10  C6  UNL     1      25.729  10.707  19.239  1.00  0.00     0.275 C
HETATM   11  C7  UNL     1      27.556  10.127  19.721  1.00  0.00     0.275 C
ENDBRANCH   3   4
TORSDOF 1
ENDMDL