MODEL 2
REMARK VINA RESULT: -3.592659776      3.089      4.304
REMARK  3 active torsions:
REMARK  status: ('A' for Active; 'I' for Inactive)
REMARK    1  A    between atoms: N1_2  and  C2_3
REMARK    2  A    between atoms: C3_4  and  C4_5
REMARK    3  A    between atoms: C4_5  and  O1_6
ROOT
HETATM    1  C2  UNL     1      28.801  14.132  17.124  1.00  0.00     0.118 C
HETATM    2  C3  UNL     1      29.204  14.676  16.123  1.00  0.00    -0.051 C
ENDROOT
BRANCH   1   3
HETATM    3  N1  UNL     1      28.310  13.511  18.291  1.00  0.00    -0.003 N
HETATM    4  C1  UNL     1      27.707  12.219  18.138  1.00  0.00     0.290 C
HETATM    5  C5  UNL     1      27.677  14.368  19.293  1.00  0.00     0.283 A
HETATM    6  C6  UNL     1      28.980  13.804  19.555  1.00  0.00     0.283 A
ENDBRANCH   1   3
BRANCH   2   7
HETATM    7  C4  UNL     1      29.676  15.356  14.898  1.00  0.00     0.259 C
BRANCH   7   8
HETATM    8  O1  UNL     1      29.523  16.701  15.114  1.00  0.00    -0.389 OA
ATOM      9  H1  UNL     1      30.213  17.135  14.625  1.00  0.00     0.210 HD
ENDBRANCH   7   8
ENDBRANCH   2   7
TORSDOF 3
ENDMDL