MODEL 5
REMARK VINA RESULT: -10.646761434      5.913     11.183
REMARK  11 active torsions:
REMARK  status: ('A' for Active; 'I' for Inactive)
REMARK    1  A    between atoms: N1_1  and  C1_4
REMARK    2  A    between atoms: C3_8  and  C4_9
REMARK       I    between atoms: C4_9  and  N3_11
REMARK    3  A    between atoms: N3_11  and  C5_13
REMARK    4  A    between atoms: C5_13  and  C6_14
REMARK    5  A    between atoms: C6_14  and  C7_15
REMARK    6  A    between atoms: C12_22  and  C13_23
REMARK    7  A    between atoms: N5_25  and  C15_26
REMARK    8  A    between atoms: C15_26  and  C16_27
REMARK    9  A    between atoms: C19_30  and  C20_31
REMARK   10  A    between atoms: C23_34  and  S1_35
REMARK   11  A    between atoms: S1_35  and  N6_36
ROOT
HETATM    1  C7  UNL     1      23.358   7.167  17.893  1.00  0.00     0.026 A
HETATM    2  C8  UNL     1      23.551   5.977  17.237  1.00  0.00     0.113 A
HETATM    3  N4  UNL     1      22.592   5.035  17.250  1.00  0.00    -0.362 N
ATOM      4  H4  UNL     1      22.739   4.152  16.760  1.00  0.00     0.165 HD
HETATM    5  C9  UNL     1      21.421   5.257  17.916  1.00  0.00     0.059 A
HETATM    6  C10 UNL     1      20.425   4.299  17.938  1.00  0.00     0.033 A
HETATM    7  C11 UNL     1      19.231   4.523  18.615  1.00  0.00     0.015 A
HETATM    8  C12 UNL     1      19.021   5.713  19.280  1.00  0.00    -0.017 A
HETATM    9  C29 UNL     1      20.023   6.658  19.248  1.00  0.00     0.044 A
HETATM   10  C30 UNL     1      21.215   6.453  18.580  1.00  0.00     0.060 A
HETATM   11  N8  UNL     1      22.202   7.365  18.540  1.00  0.00    -0.357 N
ATOM     12  H8  UNL     1      22.065   8.250  19.027  1.00  0.00     0.166 HD
ENDROOT
BRANCH   8  13
HETATM   13  C13 UNL     1      17.773   5.953  19.989  1.00  0.00     0.061 A
HETATM   14  C14 UNL     1      16.595   5.227  19.876  1.00  0.00     0.128 A
HETATM   15  N5  UNL     1      15.665   5.747  20.685  1.00  0.00    -0.295 N
HETATM   16  N7  UNL     1      16.203   6.770  21.304  1.00  0.00    -0.264 N
HETATM   17  C28 UNL     1      17.492   6.941  20.915  1.00  0.00     0.272 A
ATOM     18  H7  UNL     1      15.718   7.357  21.983  1.00  0.00     0.190 HD
HETATM   19  O4  UNL     1      18.298   7.829  21.313  1.00  0.00    -0.266 OA
BRANCH  15  20
HETATM   20  C15 UNL     1      14.324   5.264  20.837  1.00  0.00     0.186 C
BRANCH  20  21
HETATM   21  C16 UNL     1      14.024   4.344  19.713  1.00  0.00    -0.038 A
HETATM   22  C17 UNL     1      14.019   4.751  18.397  1.00  0.00     0.010 A
HETATM   23  C18 UNL     1      13.736   3.867  17.376  1.00  0.00     0.013 A
HETATM   24  C19 UNL     1      13.443   2.532  17.625  1.00  0.00    -0.026 A
HETATM   25  C26 UNL     1      13.454   2.147  18.950  1.00  0.00     0.013 A
HETATM   26  C27 UNL     1      13.736   3.022  19.977  1.00  0.00     0.010 A
BRANCH  24  27
HETATM   27  C20 UNL     1      13.144   1.608  16.537  1.00  0.00    -0.026 A
HETATM   28  C21 UNL     1      11.991   0.857  16.481  1.00  0.00     0.014 A
HETATM   29  C22 UNL     1      11.728  -0.017  15.433  1.00  0.00     0.026 A
HETATM   30  C23 UNL     1      12.628  -0.164  14.398  1.00  0.00     0.079 A
HETATM   31  C24 UNL     1      13.782   0.589  14.456  1.00  0.00     0.026 A
HETATM   32  C25 UNL     1      14.045   1.458  15.496  1.00  0.00     0.014 A
BRANCH  30  33
HETATM   33  S1  UNL     1      12.308  -1.265  13.067  1.00  0.00     0.256 S
HETATM   34  O2  UNL     1      12.075  -2.656  13.521  1.00  0.00    -0.201 OA
HETATM   35  O3  UNL     1      13.436  -1.139  12.085  1.00  0.00    -0.201 OA
BRANCH  33  36
HETATM   36  N6  UNL     1      10.874  -0.709  12.254  1.00  0.00    -0.324 N
ATOM     37  H62 UNL     1      10.142  -0.136  12.674  1.00  0.00     0.169 HD
ATOM     38  H61 UNL     1      10.905  -1.060  11.297  1.00  0.00     0.169 HD
ENDBRANCH  33  36
ENDBRANCH  30  33
ENDBRANCH  24  27
ENDBRANCH  20  21
ENDBRANCH  15  20
ENDBRANCH   8  13
BRANCH   1  39
HETATM   39  C6  UNL     1      24.400   8.238  17.902  1.00  0.00     0.078 C
BRANCH  39  40
HETATM   40  C5  UNL     1      24.845   8.394  19.314  1.00  0.00     0.129 C
BRANCH  40  41
HETATM   41  N3  UNL     1      24.253   9.498  20.031  1.00  0.00    -0.356 N
HETATM   42  C4  UNL     1      23.385   9.313  21.108  1.00  0.00     0.258 C
HETATM   43  O1  UNL     1      23.148   8.092  21.428  1.00  0.00    -0.267 OA
ATOM     44  H3  UNL     1      24.478  10.450  19.739  1.00  0.00     0.162 HD
BRANCH  42  45
HETATM   45  C3  UNL     1      22.714  10.322  21.916  1.00  0.00     0.116 A
HETATM   46  C2  UNL     1      21.730   9.919  22.833  1.00  0.00     0.129 A
HETATM   47  N2  UNL     1      21.099  10.809  23.583  1.00  0.00    -0.201 N
HETATM   48  C1  UNL     1      21.347  12.128  23.522  1.00  0.00     0.678 A
ATOM     49  H2  UNL     1      20.391  10.478  24.239  1.00  0.00     0.183 HD
HETATM   50  N9  UNL     1      22.280  12.554  22.659  1.00  0.00    -0.155 N
HETATM   51  C31 UNL     1      22.956  11.668  21.865  1.00  0.00     0.276 A
ATOM     52  H9  UNL     1      22.487  13.550  22.592  1.00  0.00     0.187 HD
HETATM   53  O5  UNL     1      23.818  12.121  21.078  1.00  0.00    -0.267 OA
BRANCH  48  54
HETATM   54  N1  UNL     1      20.736  13.000  24.248  1.00  0.00    -0.234 N
ATOM     55  H12 UNL     1      19.805  12.776  24.600  1.00  0.00     0.174 HD
ATOM     56  H11 UNL     1      21.134  13.907  24.492  1.00  0.00     0.174 HD
ENDBRANCH  48  54
ENDBRANCH  42  45
ENDBRANCH  40  41
ENDBRANCH  39  40
ENDBRANCH   1  39
TORSDOF 11
ENDMDL