MODEL 4
REMARK VINA RESULT: -10.145903149      2.996      4.628
REMARK  11 active torsions:
REMARK  status: ('A' for Active; 'I' for Inactive)
REMARK    1  A    between atoms: N1_1  and  C1_4
REMARK    2  A    between atoms: C2_7  and  C3_8
REMARK    3  A    between atoms: C8_13  and  C9_14
REMARK    4  A    between atoms: C12_17  and  C13_18
REMARK    5  A    between atoms: C13_18  and  N3_19
REMARK    6  A    between atoms: C14_20  and  C15_21
REMARK    7  A    between atoms: C15_21  and  C16_22
REMARK    8  A    between atoms: C16_22  and  C17_23
REMARK    9  A    between atoms: C19_25  and  N4_26
REMARK   10  A    between atoms: N4_26  and  S1_28
REMARK   11  A    between atoms: S1_28  and  C20_31
ROOT
HETATM    1  N3  UNL     1      19.089  11.659  25.745  1.00  0.00    -0.299 N
HETATM    2  C14 UNL     1      19.888  11.260  24.748  1.00  0.00     0.022 A
HETATM    3  C24 UNL     1      19.905   9.918  24.356  1.00  0.00     0.099 A
HETATM    4  C25 UNL     1      19.099   9.007  24.991  1.00  0.00     0.251 A
HETATM    5  O4  UNL     1      19.118   7.791  24.634  1.00  0.00    -0.268 OA
HETATM    6  N9  UNL     1      18.313   9.424  25.975  1.00  0.00    -0.275 N
ATOM      7  H9  UNL     1      17.708   8.759  26.456  1.00  0.00     0.173 HD
HETATM    8  C26 UNL     1      18.308  10.705  26.338  1.00  0.00     0.329 A
HETATM    9  O5  UNL     1      17.556  11.114  27.279  1.00  0.00    -0.246 OA
ENDROOT
BRANCH   2  10
HETATM   10  C15 UNL     1      20.713  12.159  23.938  1.00  0.00     0.062 C
BRANCH  10  11
HETATM   11  C16 UNL     1      22.177  11.748  24.079  1.00  0.00     0.050 C
BRANCH  11  12
HETATM   12  C17 UNL     1      22.713  11.552  22.715  1.00  0.00     0.015 A
HETATM   13  C18 UNL     1      22.636  10.339  22.096  1.00  0.00     0.063 A
HETATM   14  C19 UNL     1      23.148  10.176  20.828  1.00  0.00     0.130 A
HETATM   15  N7  UNL     1      23.718  11.238  20.227  1.00  0.00    -0.282 N
HETATM   16  N8  UNL     1      23.806  12.402  20.788  1.00  0.00    -0.264 N
ATOM     17  H7  UNL     1      24.097  11.120  19.288  1.00  0.00     0.188 HD
HETATM   18  C23 UNL     1      23.309  12.578  22.033  1.00  0.00     0.266 A
ATOM     19  H8  UNL     1      24.247  13.178  20.295  1.00  0.00     0.190 HD
HETATM   20  O3  UNL     1      23.432  13.735  22.510  1.00  0.00    -0.266 OA
BRANCH  14  21
HETATM   21  N4  UNL     1      23.103   9.055  20.221  1.00  0.00    -0.263 N
ATOM     22  H4  UNL     1      22.318   8.439  20.432  1.00  0.00     0.180 HD
BRANCH  21  23
HETATM   23  S1  UNL     1      24.251   8.505  19.085  1.00  0.00     0.281 S
HETATM   24  O1  UNL     1      24.547   9.647  18.141  1.00  0.00    -0.199 OA
HETATM   25  O2  UNL     1      25.540   8.043  19.704  1.00  0.00    -0.199 OA
BRANCH  23  26
HETATM   26  C20 UNL     1      23.572   7.216  18.109  1.00  0.00     0.165 A
HETATM   27  C21 UNL     1      24.208   6.148  17.546  1.00  0.00     0.132 A
HETATM   28  N5  UNL     1      23.308   5.419  16.887  1.00  0.00    -0.359 N
HETATM   29  C22 UNL     1      22.126   6.025  17.038  1.00  0.00     0.181 A
ATOM     30  H5  UNL     1      23.487   4.560  16.366  1.00  0.00     0.166 HD
HETATM   31  N6  UNL     1      22.277   7.130  17.786  1.00  0.00    -0.341 N
ATOM     32  H6  UNL     1      21.541   7.781  18.058  1.00  0.00     0.167 HD
ENDBRANCH  23  26
ENDBRANCH  21  23
ENDBRANCH  14  21
ENDBRANCH  11  12
ENDBRANCH  10  11
ENDBRANCH   2  10
BRANCH   1  33
HETATM   33  C13 UNL     1      19.078  13.002  26.242  1.00  0.00     0.172 C
BRANCH  33  34
HETATM   34  C12 UNL     1      20.335  13.411  26.931  1.00  0.00    -0.040 A
HETATM   35  C11 UNL     1      21.098  14.447  26.482  1.00  0.00     0.010 A
HETATM   36  C10 UNL     1      22.246  14.778  27.192  1.00  0.00     0.013 A
HETATM   37  C9  UNL     1      22.650  14.115  28.320  1.00  0.00    -0.025 A
HETATM   38  C28 UNL     1      21.883  13.069  28.775  1.00  0.00     0.013 A
HETATM   39  C27 UNL     1      20.745  12.733  28.084  1.00  0.00     0.010 A
BRANCH  37  40
HETATM   40  C8  UNL     1      23.859  14.489  29.028  1.00  0.00    -0.013 A
HETATM   41  C3  UNL     1      25.100  14.086  28.600  1.00  0.00     0.002 A
HETATM   42  C4  UNL     1      26.275  14.430  29.250  1.00  0.00     0.014 A
HETATM   43  C5  UNL     1      26.230  15.210  30.376  1.00  0.00     0.001 A
HETATM   44  C6  UNL     1      24.978  15.620  30.812  1.00  0.00     0.001 A
HETATM   45  C7  UNL     1      23.811  15.276  30.163  1.00  0.00     0.013 A
BRANCH  41  46
HETATM   46  C2  UNL     1      25.288  13.238  27.393  1.00  0.00     0.051 A
HETATM   47  N2  UNL     1      25.666  13.747  26.242  1.00  0.00    -0.336 N
HETATM   48  C1  UNL     1      25.809  12.925  25.205  1.00  0.00     0.142 A
ATOM     49  H2  UNL     1      25.846  14.747  26.146  1.00  0.00     0.168 HD
HETATM   50  S2  UNL     1      25.403  11.400  25.860  1.00  0.00    -0.064 SA
HETATM   51  C29 UNL     1      25.064  11.897  27.456  1.00  0.00     0.083 A
BRANCH  48  52
HETATM   52  N1  UNL     1      26.177  13.218  23.975  1.00  0.00    -0.380 N
ATOM     53  H12 UNL     1      25.697  13.801  23.289  1.00  0.00     0.158 HD
ATOM     54  H11 UNL     1      27.012  12.914  23.475  1.00  0.00     0.158 HD
ENDBRANCH  48  52
ENDBRANCH  41  46
ENDBRANCH  37  40
ENDBRANCH  33  34
ENDBRANCH   1  33
TORSDOF 11
ENDMDL