MODEL 3
REMARK VINA RESULT: -8.257428470      6.742     13.448
REMARK  15 active torsions:
REMARK  status: ('A' for Active; 'I' for Inactive)
REMARK    1  A    between atoms: C2_2  and  C3_3
REMARK    2  A    between atoms: C3_3  and  C4_4
REMARK    3  A    between atoms: C4_4  and  C5_5
REMARK    4  A    between atoms: C5_5  and  C6_6
REMARK    5  A    between atoms: C6_6  and  C7_7
REMARK    6  A    between atoms: C8_8  and  C9_9
REMARK    7  A    between atoms: C9_9  and  N1_10
REMARK       I    between atoms: N1_10  and  C10_12
REMARK    8  A    between atoms: C10_12  and  C11_14
REMARK    9  A    between atoms: C11_14  and  O2_15
REMARK   10  A    between atoms: C19_24  and  O3_25
REMARK   11  A    between atoms: C26_35  and  O5_36
REMARK   12  A    between atoms: O5_36  and  C27_37
REMARK   13  A    between atoms: C30_41  and  O7_42
REMARK   14  A    between atoms: C31_44  and  O8_45
REMARK   15  A    between atoms: C32_47  and  O9_48
ROOT
HETATM    1  C11 UNL     1      16.715   7.058  21.220  1.00  0.00     0.148 C
HETATM    2  C12 UNL     1      15.447   7.441  21.976  1.00  0.00     0.049 C
HETATM    3  C13 UNL     1      14.577   6.185  21.824  1.00  0.00     0.015 C
HETATM    4  C14 UNL     1      15.641   5.070  21.837  1.00  0.00     0.046 C
HETATM    5  C15 UNL     1      14.998   3.756  21.766  1.00  0.00    -0.002 C
HETATM    6  C16 UNL     1      13.556   3.694  21.410  1.00  0.00     0.054 C
HETATM    7  C17 UNL     1      13.158   2.576  20.461  1.00  0.00     0.015 C
HETATM    8  C18 UNL     1      13.833   1.395  20.963  1.00  0.00     0.043 C
HETATM    9  C19 UNL     1      13.429   0.058  20.517  1.00  0.00     0.124 C
HETATM   10  C20 UNL     1      14.550  -0.761  21.160  1.00  0.00     0.034 C
HETATM   11  C21 UNL     1      15.764   0.182  21.181  1.00  0.00     0.034 C
HETATM   12  C22 UNL     1      15.299   1.478  20.590  1.00  0.00     0.042 C
HETATM   13  C23 UNL     1      15.559   1.422  19.117  1.00  0.00     0.039 C
HETATM   14  N2  UNL     1      15.806   2.666  21.216  1.00  0.00    -0.315 N
HETATM   15  C24 UNL     1      17.225   2.670  21.253  1.00  0.00     0.227 C
HETATM   16  O4  UNL     1      17.831   1.628  21.029  1.00  0.00    -0.273 OA
HETATM   17  C25 UNL     1      18.135   3.823  21.542  1.00  0.00     0.136 C
HETATM   18  C26 UNL     1      17.774   4.882  20.496  1.00  0.00     0.145 C
HETATM   19  C33 UNL     1      16.538   5.622  20.807  1.00  0.00     0.031 C
HETATM   20  C34 UNL     1      15.725   5.694  19.498  1.00  0.00     0.022 C
ENDROOT
BRANCH   1  21
HETATM   21  C10 UNL     1      17.798   7.398  22.128  1.00  0.00     0.253 C
HETATM   22  N1  UNL     1      18.858   8.214  21.563  1.00  0.00    -0.355 N
ATOM     23  H1  UNL     1      18.800   8.502  20.587  1.00  0.00     0.162 HD
HETATM   24  O1  UNL     1      17.955   7.098  23.305  1.00  0.00    -0.270 OA
BRANCH  22  25
HETATM   25  C9  UNL     1      19.981   8.624  22.347  1.00  0.00     0.149 C
BRANCH  25  26
HETATM   26  C8  UNL     1      21.304   8.561  21.742  1.00  0.00    -0.011 C
HETATM   27  C7  UNL     1      22.303   9.364  21.945  1.00  0.00    -0.029 C
BRANCH  27  28
HETATM   28  C6  UNL     1      23.637   9.298  21.328  1.00  0.00     0.027 C
BRANCH  28  29
HETATM   29  C5  UNL     1      24.042  10.385  20.417  1.00  0.00     0.004 C
BRANCH  29  30
HETATM   30  C4  UNL     1      23.305  11.672  20.652  1.00  0.00     0.000 C
BRANCH  30  31
HETATM   31  C3  UNL     1      24.181  12.552  21.530  1.00  0.00    -0.000 C
BRANCH  31  32
HETATM   32  C2  UNL     1      23.471  12.796  22.828  1.00  0.00    -0.005 C
HETATM   33  C1  UNL     1      24.142  11.987  23.917  1.00  0.00     0.005 C
ENDBRANCH  31  32
ENDBRANCH  30  31
ENDBRANCH  29  30
ENDBRANCH  28  29
ENDBRANCH  27  28
ENDBRANCH  25  26
ENDBRANCH  22  25
ENDBRANCH   1  21
BRANCH   1  34
HETATM   34  O2  UNL     1      16.684   7.910  20.082  1.00  0.00    -0.379 OA
ATOM     35  H2  UNL     1      16.776   8.826  20.319  1.00  0.00     0.211 HD
ENDBRANCH   1  34
BRANCH  18  36
HETATM   36  O5  UNL     1      18.812   5.683  20.180  1.00  0.00    -0.352 OA
BRANCH  36  37
HETATM   37  C27 UNL     1      19.185   5.782  18.873  1.00  0.00     0.291 C
HETATM   38  O6  UNL     1      20.169   6.694  18.571  1.00  0.00    -0.351 OA
HETATM   39  C28 UNL     1      21.454   6.166  18.708  1.00  0.00     0.152 C
HETATM   40  C29 UNL     1      22.521   7.204  18.635  1.00  0.00     0.042 C
HETATM   41  C30 UNL     1      21.715   5.155  17.579  1.00  0.00     0.178 C
HETATM   42  C31 UNL     1      20.355   4.788  16.976  1.00  0.00     0.183 C
HETATM   43  C32 UNL     1      19.479   4.490  18.178  1.00  0.00     0.204 C
BRANCH  41  44
HETATM   44  O7  UNL     1      22.550   5.718  16.651  1.00  0.00    -0.390 OA
ATOM     45  H7  UNL     1      22.253   6.599  16.456  1.00  0.00     0.210 HD
ENDBRANCH  41  44
BRANCH  42  46
HETATM   46  O8  UNL     1      20.546   3.579  16.309  1.00  0.00    -0.390 OA
ATOM     47  H8  UNL     1      19.691   3.169  16.264  1.00  0.00     0.210 HD
ENDBRANCH  42  46
BRANCH  43  48
HETATM   48  O9  UNL     1      20.239   3.616  18.967  1.00  0.00    -0.388 OA
ATOM     49  H9  UNL     1      20.161   2.711  18.688  1.00  0.00     0.210 HD
ENDBRANCH  43  48
ENDBRANCH  36  37
ENDBRANCH  18  36
BRANCH   9  50
HETATM   50  O3  UNL     1      13.333  -0.139  19.172  1.00  0.00    -0.395 OA
ATOM     51  H3  UNL     1      14.139  -0.335  18.709  1.00  0.00     0.210 HD
ENDBRANCH   9  50
TORSDOF 15
ENDMDL