MODEL 3
REMARK VINA RESULT: -10.371406042      3.939      6.298
REMARK  14 active torsions:
REMARK  status: ('A' for Active; 'I' for Inactive)
REMARK    1  A    between atoms: N1_1  and  N2_4
REMARK    2  A    between atoms: N5_22  and  C14_24
REMARK    3  A    between atoms: C14_24  and  C15_25
REMARK    4  A    between atoms: C14_24  and  C28_50
REMARK    5  A    between atoms: C15_25  and  O1_26
REMARK    6  A    between atoms: O1_26  and  C16_27
REMARK    7  A    between atoms: C20_31  and  C21_32
REMARK    8  A    between atoms: C21_32  and  O2_33
REMARK    9  A    between atoms: O2_33  and  C22_34
REMARK   10  A    between atoms: C23_36  and  C24_37
REMARK   11  A    between atoms: C24_37  and  O4_38
REMARK   12  A    between atoms: C25_40  and  O5_41
REMARK   13  A    between atoms: C26_43  and  O6_44
REMARK   14  A    between atoms: C27_46  and  O7_47
ROOT
HETATM    1  C14 UNL     1      22.744   9.584  21.268  1.00  0.00     0.140 C
ENDROOT
BRANCH   1   2
HETATM    2  N5  UNL     1      21.438   9.003  20.886  1.00  0.00    -0.362 N
HETATM    3  C13 UNL     1      20.485   8.815  21.711  1.00  0.00     0.147 A
HETATM    4  N4  UNL     1      20.476   9.092  23.018  1.00  0.00    -0.283 N
HETATM    5  C34 UNL     1      19.246   8.289  21.433  1.00  0.00     0.124 A
HETATM    6  N3  UNL     1      19.314   8.767  23.550  1.00  0.00    -0.296 N
ATOM      7  H4  UNL     1      21.257   9.497  23.532  1.00  0.00     0.188 HD
HETATM    8  C12 UNL     1      18.505   8.261  22.606  1.00  0.00     0.091 A
ATOM      9  H3  UNL     1      19.066   8.882  24.532  1.00  0.00     0.187 HD
HETATM   10  C11 UNL     1      17.139   7.762  22.656  1.00  0.00     0.003 A
HETATM   11  C2  UNL     1      16.578   7.304  21.474  1.00  0.00    -0.025 A
HETATM   12  C10 UNL     1      16.399   7.729  23.813  1.00  0.00     0.026 A
HETATM   13  C1  UNL     1      17.283   7.299  20.181  1.00  0.00     0.188 A
HETATM   14  C3  UNL     1      15.281   6.821  21.486  1.00  0.00     0.022 A
HETATM   15  N2  UNL     1      18.618   7.805  20.255  1.00  0.00    -0.289 N
HETATM   16  C4  UNL     1      14.552   6.797  22.671  1.00  0.00    -0.025 A
HETATM   17  C5  UNL     1      13.253   6.325  22.718  1.00  0.00     0.012 A
HETATM   18  C9  UNL     1      15.098   7.252  23.866  1.00  0.00    -0.025 A
HETATM   19  C6  UNL     1      12.520   6.302  23.901  1.00  0.00     0.001 A
HETATM   20  C7  UNL     1      13.087   6.762  25.077  1.00  0.00     0.001 A
HETATM   21  C8  UNL     1      14.373   7.231  25.040  1.00  0.00     0.012 A
ATOM     22  H5  UNL     1      21.293   8.739  19.911  1.00  0.00     0.162 HD
BRANCH  15  23
HETATM   23  N1  UNL     1      19.304   7.828  19.186  1.00  0.00    -0.342 N
ATOM     24  H12 UNL     1      18.803   7.669  18.311  1.00  0.00     0.177 HD
ATOM     25  H11 UNL     1      20.306   8.002  19.266  1.00  0.00     0.177 HD
ENDBRANCH  15  23
ENDBRANCH   1   2
BRANCH   1  26
HETATM   26  C15 UNL     1      22.791  11.040  20.934  1.00  0.00     0.201 C
BRANCH  26  27
HETATM   27  O1  UNL     1      23.721  11.790  21.567  1.00  0.00    -0.359 OA
BRANCH  27  28
HETATM   28  C16 UNL     1      23.488  12.116  22.895  1.00  0.00     0.264 C
HETATM   29  C17 UNL     1      23.241  13.563  23.115  1.00  0.00     0.087 C
HETATM   30  C18 UNL     1      23.371  13.896  24.553  1.00  0.00    -0.023 C
HETATM   31  C19 UNL     1      24.443  13.399  25.177  1.00  0.00     0.003 C
HETATM   32  C20 UNL     1      25.312  12.575  24.243  1.00  0.00     0.171 C
HETATM   33  O8  UNL     1      24.528  11.615  23.619  1.00  0.00    -0.350 OA
BRANCH  32  34
HETATM   34  C21 UNL     1      26.425  11.944  25.038  1.00  0.00     0.207 C
BRANCH  34  35
HETATM   35  O2  UNL     1      27.620  12.543  24.637  1.00  0.00    -0.356 OA
BRANCH  35  36
HETATM   36  C22 UNL     1      28.320  13.012  25.750  1.00  0.00     0.291 C
HETATM   37  O3  UNL     1      29.515  12.284  25.823  1.00  0.00    -0.348 OA
HETATM   38  C23 UNL     1      30.460  12.856  26.641  1.00  0.00     0.179 C
HETATM   39  C25 UNL     1      29.972  13.966  27.518  1.00  0.00     0.180 C
HETATM   40  C26 UNL     1      29.291  15.050  26.752  1.00  0.00     0.183 C
HETATM   41  C27 UNL     1      28.590  14.478  25.545  1.00  0.00     0.204 C
BRANCH  38  42
HETATM   42  C24 UNL     1      31.014  11.771  27.575  1.00  0.00     0.198 C
BRANCH  42  43
HETATM   43  O4  UNL     1      30.132  10.698  27.672  1.00  0.00    -0.398 OA
ATOM     44  H4  UNL     1      29.785  10.622  28.553  1.00  0.00     0.209 HD
ENDBRANCH  42  43
ENDBRANCH  38  42
BRANCH  39  45
HETATM   45  O5  UNL     1      29.184  13.454  28.547  1.00  0.00    -0.390 OA
ATOM     46  H5  UNL     1      28.267  13.646  28.384  1.00  0.00     0.210 HD
ENDBRANCH  39  45
BRANCH  40  47
HETATM   47  O6  UNL     1      28.282  15.654  27.532  1.00  0.00    -0.390 OA
ATOM     48  H6  UNL     1      28.453  16.582  27.641  1.00  0.00     0.210 HD
ENDBRANCH  40  47
BRANCH  41  49
HETATM   49  O7  UNL     1      29.395  14.577  24.396  1.00  0.00    -0.388 OA
ATOM     50  H7  UNL     1      29.110  15.357  23.936  1.00  0.00     0.210 HD
ENDBRANCH  41  49
ENDBRANCH  35  36
ENDBRANCH  34  35
ENDBRANCH  32  34
ENDBRANCH  27  28
ENDBRANCH  26  27
ENDBRANCH   1  26
BRANCH   1  51
HETATM   51  C28 UNL     1      23.774   8.768  20.520  1.00  0.00    -0.034 A
HETATM   52  C29 UNL     1      24.670   9.296  19.639  1.00  0.00     0.009 A
HETATM   53  C30 UNL     1      25.578   8.443  19.011  1.00  0.00     0.001 A
HETATM   54  C31 UNL     1      25.591   7.088  19.258  1.00  0.00     0.000 A
HETATM   55  C32 UNL     1      24.687   6.550  20.148  1.00  0.00     0.001 A
HETATM   56  C33 UNL     1      23.805   7.402  20.753  1.00  0.00     0.009 A
ENDBRANCH   1  51
TORSDOF 14
ENDMDL