MODEL 3
REMARK VINA RESULT: -9.302310469      2.797      4.089
REMARK  12 active torsions:
REMARK  status: ('A' for Active; 'I' for Inactive)
REMARK    1  A    between atoms: C1_2  and  N2_4
REMARK    2  A    between atoms: N2_4  and  N3_6
REMARK    3  A    between atoms: N3_6  and  C2_7
REMARK    4  A    between atoms: C2_7  and  C3_8
REMARK    5  A    between atoms: C9_16  and  N5_17
REMARK    6  A    between atoms: N5_17  and  C10_19
REMARK    7  A    between atoms: C15_24  and  C16_25
REMARK    8  A    between atoms: C19_28  and  S2_29
REMARK    9  A    between atoms: S2_29  and  N6_32
REMARK   10  A    between atoms: N6_32  and  C20_34
REMARK   11  A    between atoms: C20_34  and  C21_35
REMARK   12  A    between atoms: C21_35  and  N7_36
ROOT
HETATM    1  C10 UNL     1      22.440   5.555  17.694  1.00  0.00     0.063 A
HETATM    2  C11 UNL     1      23.791   5.386  17.418  1.00  0.00     0.032 A
HETATM    3  C12 UNL     1      24.769   6.140  18.026  1.00  0.00     0.003 A
HETATM    4  C13 UNL     1      24.420   7.100  18.942  1.00  0.00     0.016 A
HETATM    5  C14 UNL     1      23.082   7.293  19.243  1.00  0.00     0.023 A
HETATM    6  C15 UNL     1      22.422   8.138  20.106  1.00  0.00     0.070 A
HETATM    7  N8  UNL     1      21.109   7.844  19.972  1.00  0.00    -0.299 N
ATOM      8  H8  UNL     1      20.368   8.312  20.496  1.00  0.00     0.187 HD
HETATM    9  N9  UNL     1      20.890   6.892  19.100  1.00  0.00    -0.297 N
ATOM     10  H9  UNL     1      19.989   6.500  18.827  1.00  0.00     0.187 HD
HETATM   11  C28 UNL     1      22.124   6.536  18.633  1.00  0.00     0.087 A
ENDROOT
BRANCH   1  12
HETATM   12  N5  UNL     1      21.399   4.847  17.079  1.00  0.00    -0.339 N
ATOM     13  H5  UNL     1      20.984   5.223  16.227  1.00  0.00     0.167 HD
BRANCH  12  14
HETATM   14  C9  UNL     1      20.943   3.726  17.561  1.00  0.00     0.121 A
HETATM   15  C8  UNL     1      21.188   2.506  16.997  1.00  0.00     0.137 A
HETATM   16  N4  UNL     1      20.699   1.370  17.541  1.00  0.00    -0.360 N
HETATM   17  C7  UNL     1      19.956   1.443  18.654  1.00  0.00     0.060 A
ATOM     18  H4  UNL     1      20.894   0.467  17.109  1.00  0.00     0.165 HD
HETATM   19  C6  UNL     1      19.493   0.297  19.262  1.00  0.00     0.032 A
HETATM   20  C29 UNL     1      19.679   2.697  19.246  1.00  0.00     0.073 A
HETATM   21  C5  UNL     1      18.774   0.313  20.423  1.00  0.00     0.003 A
HETATM   22  C4  UNL     1      18.491   1.514  21.008  1.00  0.00     0.016 A
HETATM   23  C3  UNL     1      18.954   2.712  20.393  1.00  0.00     0.024 A
HETATM   24  N10 UNL     1      20.179   3.805  18.699  1.00  0.00    -0.339 N
ATOM     25  H10 UNL     1      19.995   4.713  19.126  1.00  0.00     0.167 HD
BRANCH  23  26
HETATM   26  C2  UNL     1      18.345   3.948  20.945  1.00  0.00     0.222 C
BRANCH  26  27
HETATM   27  N3  UNL     1      17.593   4.704  20.429  1.00  0.00    -0.336 NA
BRANCH  27  28
HETATM   28  N2  UNL     1      16.756   5.552  19.866  1.00  0.00    -0.212 N
ATOM     29  H2  UNL     1      15.975   5.171  19.332  1.00  0.00     0.204 HD
BRANCH  28  30
HETATM   30  C1  UNL     1      16.882   6.989  19.961  1.00  0.00     0.210 C
HETATM   31  N1  UNL     1      18.021   7.629  19.445  1.00  0.00    -0.068 NA
HETATM   32  S1  UNL     1      15.683   7.827  20.661  1.00  0.00    -0.042 SA
ENDBRANCH  28  30
ENDBRANCH  27  28
ENDBRANCH  26  27
ENDBRANCH  23  26
ENDBRANCH  12  14
ENDBRANCH   1  12
BRANCH   6  33
HETATM   33  C16 UNL     1      22.977   9.178  20.989  1.00  0.00    -0.007 A
HETATM   34  C17 UNL     1      22.492   9.211  22.302  1.00  0.00     0.015 A
HETATM   35  C18 UNL     1      22.939  10.148  23.205  1.00  0.00     0.026 A
HETATM   36  C19 UNL     1      23.902  11.096  22.803  1.00  0.00     0.079 A
HETATM   37  C26 UNL     1      24.347  11.032  21.525  1.00  0.00     0.026 A
HETATM   38  C27 UNL     1      23.908  10.084  20.590  1.00  0.00     0.015 A
BRANCH  36  39
HETATM   39  S2  UNL     1      24.404  12.219  23.978  1.00  0.00     0.258 S
HETATM   40  O1  UNL     1      23.513  13.469  23.901  1.00  0.00    -0.201 OA
HETATM   41  O2  UNL     1      24.141  11.687  25.399  1.00  0.00    -0.201 OA
BRANCH  39  42
HETATM   42  N6  UNL     1      26.002  12.753  23.971  1.00  0.00    -0.314 N
ATOM     43  H6  UNL     1      26.386  13.243  23.163  1.00  0.00     0.172 HD
BRANCH  42  44
HETATM   44  C20 UNL     1      26.804  12.503  25.123  1.00  0.00     0.152 C
BRANCH  44  45
HETATM   45  C21 UNL     1      28.253  12.448  24.606  1.00  0.00     0.142 C
BRANCH  45  46
HETATM   46  N7  UNL     1      29.099  13.107  25.500  1.00  0.00    -0.388 N
HETATM   47  C22 UNL     1      29.559  14.406  25.260  1.00  0.00     0.084 C
HETATM   48  C23 UNL     1      30.043  14.987  26.587  1.00  0.00     0.212 C
HETATM   49  O3  UNL     1      31.040  14.226  27.147  1.00  0.00    -0.385 OA
HETATM   50  C24 UNL     1      30.762  12.887  27.240  1.00  0.00     0.187 C
HETATM   51  C25 UNL     1      29.395  12.500  26.748  1.00  0.00     0.148 C
ENDBRANCH  45  46
ENDBRANCH  44  45
ENDBRANCH  42  44
ENDBRANCH  39  42
ENDBRANCH  36  39
ENDBRANCH   6  33
TORSDOF 12
ENDMDL