MODEL 1
REMARK VINA RESULT: -10.345807067      0.000      0.000
REMARK  13 active torsions:
REMARK  status: ('A' for Active; 'I' for Inactive)
REMARK    1  A    between atoms: C2_2  and  N1_3
REMARK    2  A    between atoms: C7_11  and  N3_12
REMARK       I    between atoms: N3_12  and  C8_14
REMARK       I    between atoms: C8_14  and  N5_16
REMARK    3  A    between atoms: N5_16  and  C9_17
REMARK    4  A    between atoms: C9_17  and  C10_18
REMARK    5  A    between atoms: C10_18  and  O1_19
REMARK    6  A    between atoms: O1_19  and  C11_20
REMARK    7  A    between atoms: C14_23  and  N6_24
REMARK    8  A    between atoms: N6_24  and  C15_26
REMARK    9  A    between atoms: C16_29  and  S1_30
REMARK   10  A    between atoms: S1_30  and  C17_31
REMARK   11  A    between atoms: C20_34  and  N8_35
REMARK       I    between atoms: N8_35  and  C22_37
REMARK   12  A    between atoms: C26_42  and  N9_43
REMARK   13  A    between atoms: C27_46  and  N10_47
ROOT
HETATM    1  N6  UNL     1      22.288  10.488  22.190  1.00  0.00    -0.192 N
ATOM      2  H6  UNL     1      21.305  10.295  21.997  1.00  0.00     0.184 HD
ENDROOT
BRANCH   1   3
HETATM    3  C14 UNL     1      23.170   9.735  21.423  1.00  0.00     0.049 A
HETATM    4  C13 UNL     1      23.982  10.285  20.469  1.00  0.00     0.033 A
HETATM    5  C12 UNL     1      24.652   9.495  19.552  1.00  0.00     0.039 A
HETATM    6  C11 UNL     1      24.539   8.125  19.547  1.00  0.00     0.069 A
HETATM    7  C29 UNL     1      23.713   7.556  20.533  1.00  0.00     0.039 A
HETATM    8  C28 UNL     1      23.047   8.330  21.439  1.00  0.00     0.033 A
BRANCH   6   9
HETATM    9  O1  UNL     1      25.123   7.326  18.690  1.00  0.00    -0.349 OA
BRANCH   9  10
HETATM   10  C10 UNL     1      25.165   6.672  17.562  1.00  0.00     0.209 C
BRANCH  10  11
HETATM   11  C9  UNL     1      24.110   5.649  17.124  1.00  0.00     0.248 C
BRANCH  11  12
HETATM   12  N5  UNL     1      22.902   6.282  17.141  1.00  0.00    -0.416 NA
HETATM   13  C8  UNL     1      21.875   6.602  17.454  1.00  0.00     0.263 C
HETATM   14  N3  UNL     1      20.608   7.038  17.781  1.00  0.00    -0.305 N
HETATM   15  N4  UNL     1      21.808   7.593  15.927  1.00  0.00    -0.049 NA
ATOM     16  H3  UNL     1      20.313   7.982  17.532  1.00  0.00     0.171 HD
BRANCH  14  17
HETATM   17  C7  UNL     1      19.787   6.243  18.410  1.00  0.00     0.126 A
HETATM   18  C6  UNL     1      20.058   4.899  18.500  1.00  0.00     0.074 A
HETATM   19  C4  UNL     1      19.159   4.078  19.163  1.00  0.00     0.026 A
HETATM   20  N2  UNL     1      18.059   4.615  19.703  1.00  0.00    -0.196 N
HETATM   21  C5  UNL     1      19.464   2.629  19.244  1.00  0.00     0.069 C
HETATM   22  C3  UNL     1      17.768   5.960  19.626  1.00  0.00     0.679 A
ATOM     23  H2  UNL     1      17.407   4.003  20.193  1.00  0.00     0.184 HD
HETATM   24  N1  UNL     1      16.691   6.359  20.180  1.00  0.00    -0.226 N
HETATM   25  N12 UNL     1      18.657   6.690  18.980  1.00  0.00    -0.177 N
ATOM     26  H1  UNL     1      16.105   5.665  20.646  1.00  0.00     0.177 HD
ATOM     27  H12 UNL     1      18.467   7.690  18.906  1.00  0.00     0.186 HD
BRANCH  24  28
HETATM   28  C2  UNL     1      16.257   7.715  20.187  1.00  0.00     0.133 C
HETATM   29  C1  UNL     1      15.245   7.886  21.320  1.00  0.00     0.027 C
ENDBRANCH  24  28
ENDBRANCH  14  17
ENDBRANCH  11  12
ENDBRANCH  10  11
ENDBRANCH   9  10
ENDBRANCH   6   9
ENDBRANCH   1   3
BRANCH   1  30
HETATM   30  C15 UNL     1      22.471  11.361  23.080  1.00  0.00     0.685 A
HETATM   31  N7  UNL     1      23.204  11.267  24.179  1.00  0.00    -0.182 N
HETATM   32  C16 UNL     1      23.029  12.081  25.255  1.00  0.00     0.128 A
ATOM     33  H7  UNL     1      23.930  10.552  24.221  1.00  0.00     0.185 HD
HETATM   34  C26 UNL     1      22.071  13.048  25.257  1.00  0.00     0.181 A
HETATM   35  C27 UNL     1      21.284  13.179  24.072  1.00  0.00     0.151 A
HETATM   36  N11 UNL     1      21.497  12.366  23.057  1.00  0.00    -0.174 N
ATOM     37  H11 UNL     1      20.927  12.473  22.219  1.00  0.00     0.186 HD
BRANCH  32  38
HETATM   38  S1  UNL     1      24.170  11.945  26.671  1.00  0.00    -0.070 SA
BRANCH  38  39
HETATM   39  C17 UNL     1      25.697  12.717  26.078  1.00  0.00     0.007 A
HETATM   40  C18 UNL     1      26.239  13.820  26.714  1.00  0.00     0.021 A
HETATM   41  C19 UNL     1      27.535  14.226  26.364  1.00  0.00     0.031 A
HETATM   42  C20 UNL     1      28.236  13.512  25.396  1.00  0.00     0.036 A
HETATM   43  C24 UNL     1      27.696  12.421  24.751  1.00  0.00     0.031 A
HETATM   44  C25 UNL     1      26.396  12.052  25.131  1.00  0.00     0.021 A
BRANCH  42  45
HETATM   45  N8  UNL     1      29.616  13.835  25.276  1.00  0.00    -0.323 N
HETATM   46  C21 UNL     1      30.172  14.498  24.169  1.00  0.00     0.159 C
HETATM   47  C22 UNL     1      30.410  13.428  26.405  1.00  0.00     0.220 C
HETATM   48  C23 UNL     1      31.117  14.385  27.298  1.00  0.00     0.117 C
HETATM   49  O2  UNL     1      30.490  12.198  26.649  1.00  0.00    -0.274 OA
ENDBRANCH  42  45
ENDBRANCH  38  39
ENDBRANCH  32  38
BRANCH  34  50
HETATM   50  N9  UNL     1      21.672  13.801  26.379  1.00  0.00    -0.109 N
HETATM   51  O3  UNL     1      22.112  14.929  26.603  1.00  0.00    -0.532 OA
HETATM   52  O4  UNL     1      20.631  13.330  27.205  1.00  0.00    -0.532 OA
ENDBRANCH  34  50
BRANCH  35  53
HETATM   53  N10 UNL     1      20.415  14.100  24.108  1.00  0.00    -0.383 N
ATOM     54 2H10 UNL     1      20.539  15.047  23.753  1.00  0.00     0.157 HD
ATOM     55 1H10 UNL     1      19.525  13.835  24.533  1.00  0.00     0.157 HD
ENDBRANCH  35  53
ENDBRANCH   1  30
TORSDOF 13
ENDMDL