MODEL 5
REMARK VINA RESULT: -9.471669170      2.307      6.267
REMARK  13 active torsions:
REMARK  status: ('A' for Active; 'I' for Inactive)
REMARK    1  A    between atoms: C5_6  and  C6_7
REMARK    2  A    between atoms: C7_10  and  N2_11
REMARK    3  A    between atoms: N2_11  and  C8_13
REMARK    4  A    between atoms: C9_16  and  N4_17
REMARK    5  A    between atoms: N5_20  and  C12_21
REMARK    6  A    between atoms: C12_21  and  C13_22
REMARK    7  A    between atoms: C13_22  and  O2_23
REMARK    8  A    between atoms: N6_29  and  C18_31
REMARK    9  A    between atoms: C23_36  and  S1_37
REMARK   10  A    between atoms: S1_37  and  N7_38
REMARK   11  A    between atoms: C25_46  and  C26_47
REMARK   12  A    between atoms: C26_47  and  N9_48
REMARK   13  A    between atoms: N9_48  and  C27_50
ROOT
HETATM    1  C8  UNL     1      21.189  10.164  22.916  1.00  0.00     0.687 A
HETATM    2  N3  UNL     1      21.598   9.418  21.891  1.00  0.00    -0.176 N
ATOM      3  H3  UNL     1      22.488   9.669  21.463  1.00  0.00     0.186 HD
HETATM    4  C9  UNL     1      20.946   8.367  21.370  1.00  0.00     0.123 A
HETATM    5  C16 UNL     1      19.725   8.031  21.970  1.00  0.00     0.098 A
HETATM    6  C17 UNL     1      19.228   8.748  23.031  1.00  0.00     0.125 A
HETATM    7  N6  UNL     1      18.033   8.671  23.432  1.00  0.00    -0.341 N
ATOM      8  H6  UNL     1      17.892   9.278  24.240  1.00  0.00     0.167 HD
HETATM    9  N8  UNL     1      19.985   9.799  23.479  1.00  0.00    -0.176 N
ATOM     10  H8  UNL     1      19.640  10.341  24.272  1.00  0.00     0.186 HD
ENDROOT
BRANCH   1  11
HETATM   11  N2  UNL     1      21.659  11.243  23.251  1.00  0.00    -0.176 N
ATOM     12  H2  UNL     1      21.113  11.928  22.728  1.00  0.00     0.186 HD
BRANCH  11  13
HETATM   13  C7  UNL     1      22.536  11.987  23.964  1.00  0.00     0.122 A
HETATM   14  N1  UNL     1      22.222  12.140  25.349  1.00  0.00    -0.341 N
HETATM   15  C6  UNL     1      23.122  12.848  25.914  1.00  0.00     0.054 A
ATOM     16  H1  UNL     1      21.405  11.745  25.815  1.00  0.00     0.167 HD
HETATM   17  C25 UNL     1      24.119  13.234  24.990  1.00  0.00    -0.009 A
HETATM   18  C24 UNL     1      23.716  12.695  23.810  1.00  0.00     0.060 A
BRANCH  15  19
HETATM   19  C5  UNL     1      23.140  13.324  27.308  1.00  0.00     0.022 A
HETATM   20  C2  UNL     1      23.551  12.582  28.366  1.00  0.00     0.061 A
HETATM   21  C1  UNL     1      24.265  11.296  28.270  1.00  0.00     0.077 C
HETATM   22  O1  UNL     1      23.192  13.273  29.455  1.00  0.00    -0.327 OA
HETATM   23  C3  UNL     1      22.604  14.374  29.145  1.00  0.00     0.143 A
HETATM   24  C4  UNL     1      22.525  14.499  27.751  1.00  0.00     0.041 A
ENDBRANCH  15  19
BRANCH  17  25
HETATM   25  C26 UNL     1      25.401  13.753  25.499  1.00  0.00     0.162 C
BRANCH  25  26
HETATM   26  N9  UNL     1      26.532  13.785  24.620  1.00  0.00    -0.372 N
ATOM     27  H9  UNL     1      26.476  13.596  23.619  1.00  0.00     0.161 HD
BRANCH  26  28
HETATM   28  C27 UNL     1      27.656  14.087  25.247  1.00  0.00     0.101 A
HETATM   29  C28 UNL     1      27.688  14.852  26.391  1.00  0.00     0.048 A
HETATM   30  C29 UNL     1      28.888  15.207  26.993  1.00  0.00     0.005 A
HETATM   31  C30 UNL     1      30.075  14.809  26.466  1.00  0.00     0.017 A
HETATM   32  C31 UNL     1      30.044  14.049  25.332  1.00  0.00     0.089 A
HETATM   33  N10 UNL     1      28.869  13.702  24.744  1.00  0.00    -0.353 N
ATOM     34  H10 UNL     1      28.892  13.134  23.896  1.00  0.00     0.166 HD
ENDBRANCH  26  28
ENDBRANCH  25  26
ENDBRANCH  17  25
ENDBRANCH  11  13
ENDBRANCH   1  11
BRANCH   4  35
HETATM   35  N4  UNL     1      21.396   7.587  20.272  1.00  0.00    -0.360 N
HETATM   36  C10 UNL     1      22.827   7.484  20.039  1.00  0.00     0.144 C
HETATM   37  C11 UNL     1      23.229   6.396  19.125  1.00  0.00     0.141 C
HETATM   38  N5  UNL     1      22.450   6.329  17.939  1.00  0.00    -0.388 N
HETATM   39  C14 UNL     1      21.138   6.792  17.960  1.00  0.00     0.078 C
HETATM   40  C15 UNL     1      20.530   6.900  19.341  1.00  0.00     0.168 C
BRANCH  38  41
HETATM   41  C12 UNL     1      23.199   6.408  16.726  1.00  0.00     0.148 C
BRANCH  41  42
HETATM   42  C13 UNL     1      24.614   5.935  16.789  1.00  0.00     0.183 C
BRANCH  42  43
HETATM   43  O2  UNL     1      24.908   5.489  15.471  1.00  0.00    -0.399 OA
ATOM     44  H2  UNL     1      25.850   5.576  15.389  1.00  0.00     0.209 HD
ENDBRANCH  42  43
ENDBRANCH  41  42
ENDBRANCH  38  41
ENDBRANCH   4  35
BRANCH   7  45
HETATM   45  C18 UNL     1      16.870   8.023  23.116  1.00  0.00     0.057 A
HETATM   46  C19 UNL     1      16.285   8.052  21.840  1.00  0.00     0.031 A
HETATM   47  C20 UNL     1      15.058   7.525  21.554  1.00  0.00     0.002 A
HETATM   48  C21 UNL     1      14.352   6.931  22.556  1.00  0.00     0.002 A
HETATM   49  C22 UNL     1      14.892   6.871  23.853  1.00  0.00     0.027 A
HETATM   50  C23 UNL     1      16.107   7.395  24.132  1.00  0.00     0.105 A
BRANCH  50  51
HETATM   51  S1  UNL     1      16.770   7.340  25.777  1.00  0.00     0.259 S
HETATM   52  O3  UNL     1      17.998   6.525  25.777  1.00  0.00    -0.201 OA
HETATM   53  O4  UNL     1      17.006   8.787  26.231  1.00  0.00    -0.201 OA
BRANCH  51  54
HETATM   54  N7  UNL     1      15.618   6.705  26.873  1.00  0.00    -0.324 N
ATOM     55  H72 UNL     1      14.621   6.624  26.667  1.00  0.00     0.169 HD
ATOM     56  H71 UNL     1      16.066   6.425  27.746  1.00  0.00     0.169 HD
ENDBRANCH  51  54
ENDBRANCH  50  51
ENDBRANCH   7  45
TORSDOF 13
ENDMDL