MODEL 3
REMARK VINA RESULT: -10.272205536      1.826      2.038
REMARK  13 active torsions:
REMARK  status: ('A' for Active; 'I' for Inactive)
REMARK    1  A    between atoms: N1_1  and  S1_4
REMARK    2  A    between atoms: S1_4  and  C1_7
REMARK    3  A    between atoms: C4_10  and  C5_11
REMARK    4  A    between atoms: C5_11  and  O3_12
REMARK    5  A    between atoms: C5_11  and  N2_14
REMARK    6  A    between atoms: C8_17  and  N3_18
REMARK    7  A    between atoms: N3_18  and  C9_20
REMARK    8  A    between atoms: C10_23  and  N5_24
REMARK    9  A    between atoms: N5_24  and  N6_26
REMARK   10  A    between atoms: C11_28  and  C12_29
REMARK   11  A    between atoms: N9_38  and  C17_40
REMARK   12  A    between atoms: N10_43  and  C20_44
REMARK   13  A    between atoms: C20_44  and  C21_45
ROOT
HETATM    1  C9  UNL     1      21.873   6.249  17.712  1.00  0.00     0.707 A
HETATM    2  N4  UNL     1      22.433   5.086  17.416  1.00  0.00    -0.020 N
ATOM      3  H4  UNL     1      23.416   5.088  17.142  1.00  0.00     0.203 HD
HETATM    4  C10 UNL     1      21.798   3.903  17.452  1.00  0.00     0.726 A
HETATM    5  N8  UNL     1      20.488   3.937  17.822  1.00  0.00    -0.020 N
ATOM      6  H8  UNL     1      19.962   3.065  17.863  1.00  0.00     0.203 HD
HETATM    7  C16 UNL     1      19.872   5.082  18.134  1.00  0.00     0.707 A
HETATM    8  N9  UNL     1      18.638   5.183  18.510  1.00  0.00    -0.220 N
ATOM      9  H9  UNL     1      18.272   6.111  18.722  1.00  0.00     0.178 HD
HETATM   10  N11 UNL     1      20.584   6.249  18.073  1.00  0.00    -0.021 N
ATOM     11  H11 UNL     1      20.126   7.130  18.306  1.00  0.00     0.203 HD
ENDROOT
BRANCH   1  12
HETATM   12  N3  UNL     1      22.574   7.355  17.675  1.00  0.00    -0.220 N
ATOM     13  H3  UNL     1      22.423   8.058  16.953  1.00  0.00     0.178 HD
BRANCH  12  14
HETATM   14  C8  UNL     1      23.569   7.533  18.704  1.00  0.00     0.102 C
HETATM   15  C7  UNL     1      23.062   7.453  20.090  1.00  0.00     0.045 C
HETATM   16  C6  UNL     1      22.524   8.781  20.604  1.00  0.00     0.127 C
HETATM   17  N2  UNL     1      23.537   9.772  20.521  1.00  0.00    -0.360 N
HETATM   18  C30 UNL     1      24.740   9.466  19.733  1.00  0.00     0.127 C
HETATM   19  C29 UNL     1      24.337   8.804  18.421  1.00  0.00     0.045 C
BRANCH  17  20
HETATM   20  C5  UNL     1      23.488  11.031  21.114  1.00  0.00     0.165 C
BRANCH  20  21
HETATM   21  C4  UNL     1      23.374  11.355  22.524  1.00  0.00     0.084 A
HETATM   22  C3  UNL     1      22.270  11.624  23.293  1.00  0.00     0.037 A
HETATM   23  C2  UNL     1      22.697  11.904  24.592  1.00  0.00     0.046 A
HETATM   24  C1  UNL     1      24.047  11.804  24.606  1.00  0.00     0.149 A
HETATM   25  N12 UNL     1      24.438  11.480  23.378  1.00  0.00    -0.342 N
ATOM     26  H12 UNL     1      25.411  11.342  23.105  1.00  0.00     0.167 HD
BRANCH  24  27
HETATM   27  S1  UNL     1      25.167  12.028  25.945  1.00  0.00     0.272 S
HETATM   28  O1  UNL     1      25.101  13.475  26.394  1.00  0.00    -0.199 OA
HETATM   29  O2  UNL     1      24.864  11.091  27.050  1.00  0.00    -0.199 OA
BRANCH  27  30
HETATM   30  N1  UNL     1      26.761  11.736  25.365  1.00  0.00    -0.323 N
ATOM     31  H12 UNL     1      27.368  12.430  24.929  1.00  0.00     0.169 HD
ATOM     32  H11 UNL     1      26.977  10.754  25.537  1.00  0.00     0.169 HD
ENDBRANCH  27  30
ENDBRANCH  24  27
ENDBRANCH  20  21
BRANCH  20  33
HETATM   33  O3  UNL     1      23.553  12.065  20.321  1.00  0.00    -0.344 OA
ATOM     34  H3  UNL     1      24.190  12.721  20.576  1.00  0.00     0.219 HD
ENDBRANCH  20  33
ENDBRANCH  17  20
ENDBRANCH  12  14
ENDBRANCH   1  12
BRANCH   4  35
HETATM   35  N5  UNL     1      22.432   2.693  17.127  1.00  0.00    -0.131 N
ATOM     36  H5  UNL     1      23.256   2.433  17.670  1.00  0.00     0.205 HD
BRANCH  35  37
HETATM   37  N6  UNL     1      22.032   1.834  16.138  1.00  0.00    -0.295 N
HETATM   38  C11 UNL     1      21.757   0.600  16.263  1.00  0.00     0.137 C
ATOM     39  H6  UNL     1      21.945   2.228  15.201  1.00  0.00     0.186 HD
BRANCH  38  40
HETATM   40  C12 UNL     1      21.339  -0.180  15.094  1.00  0.00     0.049 A
HETATM   41  C13 UNL     1      21.424  -1.536  14.886  1.00  0.00     0.032 A
HETATM   42  C14 UNL     1      20.897  -1.819  13.628  1.00  0.00     0.019 A
HETATM   43  C15 UNL     1      20.503  -0.599  13.104  1.00  0.00     0.088 A
HETATM   44  N7  UNL     1      20.778   0.355  13.998  1.00  0.00    -0.365 N
ATOM     45  H7  UNL     1      20.589   1.349  13.866  1.00  0.00     0.165 HD
ENDBRANCH  38  40
ENDBRANCH  35  37
ENDBRANCH   4  35
BRANCH   8  46
HETATM   46  C17 UNL     1      17.750   4.046  18.648  1.00  0.00     0.102 C
HETATM   47  C18 UNL     1      17.677   3.597  20.078  1.00  0.00     0.056 C
HETATM   48  C19 UNL     1      16.274   3.607  20.547  1.00  0.00     0.275 C
HETATM   49  N10 UNL     1      15.618   4.903  20.438  1.00  0.00     0.092 N
HETATM   50  C27 UNL     1      15.624   5.351  19.063  1.00  0.00     0.275 C
HETATM   51  C28 UNL     1      16.380   4.401  18.169  1.00  0.00     0.056 C
BRANCH  49  52
HETATM   52  C20 UNL     1      14.331   4.889  21.059  1.00  0.00     0.311 C
BRANCH  52  53
HETATM   53  C21 UNL     1      14.157   5.688  22.259  1.00  0.00    -0.030 A
HETATM   54  C22 UNL     1      15.145   6.430  22.862  1.00  0.00     0.009 A
HETATM   55  C23 UNL     1      14.924   7.168  24.010  1.00  0.00     0.001 A
HETATM   56  C24 UNL     1      13.684   7.190  24.606  1.00  0.00     0.000 A
HETATM   57  C25 UNL     1      12.673   6.456  24.027  1.00  0.00     0.001 A
HETATM   58  C26 UNL     1      12.906   5.729  22.889  1.00  0.00     0.009 A
ENDBRANCH  52  53
ENDBRANCH  49  52
ENDBRANCH   8  46
TORSDOF 13
ENDMDL