MODEL 1
REMARK VINA RESULT: -8.960495096      0.000      0.000
REMARK  14 active torsions:
REMARK  status: ('A' for Active; 'I' for Inactive)
REMARK    1  A    between atoms: C1_2  and  C2_4
REMARK    2  A    between atoms: C3_6  and  O4_7
REMARK    3  A    between atoms: O4_7  and  C4_8
REMARK    4  A    between atoms: C5_9  and  O5_10
REMARK    5  A    between atoms: C6_12  and  O6_13
REMARK    6  A    between atoms: C7_15  and  C8_16
REMARK    7  A    between atoms: C8_16  and  C9_17
REMARK    8  A    between atoms: N1_23  and  C15_24
REMARK    9  A    between atoms: C15_24  and  C16_25
REMARK   10  A    between atoms: N2_37  and  C27_38
REMARK   11  A    between atoms: C27_38  and  C28_39
REMARK   12  A    between atoms: C34_45  and  O8_46
REMARK   13  A    between atoms: C35_48  and  O9_49
REMARK   14  A    between atoms: C36_51  and  O10_52
ROOT
HETATM    1  C4  UNL     1      18.233   6.219  19.366  1.00  0.00     0.262 C
HETATM    2  C5  UNL     1      17.633   7.361  20.127  1.00  0.00     0.198 C
HETATM    3  C6  UNL     1      18.096   7.377  21.579  1.00  0.00     0.174 C
HETATM    4  C7  UNL     1      17.045   6.709  22.405  1.00  0.00     0.124 C
HETATM    5  N1  UNL     1      17.414   5.284  22.443  1.00  0.00    -0.322 N
HETATM    6  C26 UNL     1      17.943   4.581  21.307  1.00  0.00     0.323 C
HETATM    7  O7  UNL     1      18.364   3.428  21.644  1.00  0.00    -0.247 OA
HETATM    8  N2  UNL     1      18.069   4.934  19.949  1.00  0.00    -0.300 N
ENDROOT
BRANCH   1   9
HETATM    9  O4  UNL     1      19.570   6.543  19.111  1.00  0.00    -0.331 OA
BRANCH   9  10
HETATM   10  C3  UNL     1      20.256   5.543  18.427  1.00  0.00     0.295 C
HETATM   11  O3  UNL     1      21.578   5.616  18.738  1.00  0.00    -0.340 OA
HETATM   12  C2  UNL     1      22.386   6.425  18.057  1.00  0.00     0.256 C
HETATM   13  C36 UNL     1      21.997   6.825  16.675  1.00  0.00     0.189 C
HETATM   14  C35 UNL     1      20.529   6.868  16.412  1.00  0.00     0.183 C
HETATM   15  C34 UNL     1      19.964   5.570  16.946  1.00  0.00     0.204 C
BRANCH  12  16
HETATM   16  C1  UNL     1      23.754   5.851  17.992  1.00  0.00     0.206 C
HETATM   17  O1  UNL     1      24.302   5.730  16.872  1.00  0.00    -0.646 OA
HETATM   18  O2  UNL     1      24.449   5.445  19.110  1.00  0.00    -0.646 OA
ENDBRANCH  12  16
BRANCH  13  19
HETATM   19  O10 UNL     1      22.504   8.114  16.393  1.00  0.00    -0.390 OA
ATOM     20  H10 UNL     1      22.582   8.609  17.201  1.00  0.00     0.210 HD
ENDBRANCH  13  19
BRANCH  14  21
HETATM   21  O9  UNL     1      19.925   7.969  17.011  1.00  0.00    -0.390 OA
ATOM     22  H9  UNL     1      20.019   8.749  16.477  1.00  0.00     0.210 HD
ENDBRANCH  14  21
BRANCH  15  23
HETATM   23  O8  UNL     1      20.644   4.525  16.356  1.00  0.00    -0.388 OA
ATOM     24  H8  UNL     1      21.238   4.887  15.708  1.00  0.00     0.210 HD
ENDBRANCH  15  23
ENDBRANCH   9  10
ENDBRANCH   1   9
BRANCH   2  25
HETATM   25  O5  UNL     1      16.268   7.503  19.996  1.00  0.00    -0.389 OA
ATOM     26  H5  UNL     1      15.778   7.476  20.809  1.00  0.00     0.210 HD
ENDBRANCH   2  25
BRANCH   8  27
HETATM   27  C27 UNL     1      18.028   3.799  19.045  1.00  0.00     0.168 C
BRANCH  27  28
HETATM   28  C28 UNL     1      16.697   3.475  18.536  1.00  0.00    -0.040 A
HETATM   29  C29 UNL     1      16.001   4.153  17.582  1.00  0.00     0.009 A
HETATM   30  C30 UNL     1      14.736   3.767  17.160  1.00  0.00     0.001 A
HETATM   31  C31 UNL     1      14.131   2.660  17.705  1.00  0.00     0.000 A
HETATM   32  C32 UNL     1      14.814   1.959  18.672  1.00  0.00     0.001 A
HETATM   33  C33 UNL     1      16.068   2.354  19.080  1.00  0.00     0.009 A
ENDBRANCH  27  28
ENDBRANCH   8  27
BRANCH   3  34
HETATM   34  O6  UNL     1      18.399   8.668  21.917  1.00  0.00    -0.391 OA
ATOM     35  H6  UNL     1      18.448   8.724  22.864  1.00  0.00     0.210 HD
ENDBRANCH   3  34
BRANCH   4  36
HETATM   36  C8  UNL     1      16.657   7.293  23.693  1.00  0.00     0.066 C
BRANCH  36  37
HETATM   37  C9  UNL     1      15.229   7.177  24.047  1.00  0.00    -0.056 A
HETATM   38  C10 UNL     1      14.295   6.958  23.026  1.00  0.00     0.007 A
HETATM   39  C11 UNL     1      12.963   6.775  23.300  1.00  0.00     0.001 A
HETATM   40  C12 UNL     1      12.484   6.796  24.586  1.00  0.00     0.000 A
HETATM   41  C13 UNL     1      13.372   7.007  25.608  1.00  0.00     0.001 A
HETATM   42  C14 UNL     1      14.722   7.193  25.319  1.00  0.00     0.007 A
ENDBRANCH  36  37
ENDBRANCH   4  36
BRANCH   5  43
HETATM   43  C15 UNL     1      17.208   4.546  23.635  1.00  0.00     0.167 C
BRANCH  43  44
HETATM   44  C16 UNL     1      15.889   3.947  23.860  1.00  0.00    -0.029 A
HETATM   45  C17 UNL     1      15.038   3.516  22.875  1.00  0.00     0.010 A
HETATM   46  C18 UNL     1      13.796   2.974  23.123  1.00  0.00     0.002 A
HETATM   47  C19 UNL     1      13.378   2.855  24.421  1.00  0.00     0.012 A
HETATM   48  C20 UNL     1      14.190   3.270  25.447  1.00  0.00    -0.025 A
HETATM   49  C21 UNL     1      13.739   3.136  26.744  1.00  0.00     0.012 A
HETATM   50  C25 UNL     1      15.449   3.819  25.170  1.00  0.00    -0.018 A
HETATM   51  C22 UNL     1      14.566   3.560  27.760  1.00  0.00     0.001 A
HETATM   52  C23 UNL     1      15.801   4.098  27.493  1.00  0.00     0.001 A
HETATM   53  C24 UNL     1      16.252   4.232  26.204  1.00  0.00     0.013 A
ENDBRANCH  43  44
ENDBRANCH   5  43
TORSDOF 14
ENDMDL