MODEL 4
REMARK VINA RESULT: -8.107515222      2.468      6.298
REMARK  14 active torsions:
REMARK  status: ('A' for Active; 'I' for Inactive)
REMARK    1  A    between atoms: C2_2  and  C3_3
REMARK    2  A    between atoms: C6_6  and  O1_7
REMARK    3  A    between atoms: C11_13  and  O2_14
REMARK    4  A    between atoms: C11_13  and  C12_16
REMARK    5  A    between atoms: C12_16  and  C13_17
REMARK    6  A    between atoms: N1_23  and  C19_25
REMARK    7  A    between atoms: C19_25  and  C20_26
REMARK    8  A    between atoms: C26_32  and  O4_33
REMARK    9  A    between atoms: O4_33  and  C27_34
REMARK   10  A    between atoms: C28_35  and  O5_36
REMARK   11  A    between atoms: C29_38  and  O6_39
REMARK   12  A    between atoms: C30_41  and  O7_42
REMARK   13  A    between atoms: O7_42  and  S1_43
REMARK   14  A    between atoms: C31_47  and  O11_48
ROOT
HETATM    1  C3  UNL     1      16.726   7.129  21.219  1.00  0.00    -0.022 C
HETATM    2  C4  UNL     1      15.490   8.025  21.269  1.00  0.00     0.019 C
HETATM    3  C5  UNL     1      16.426   5.834  21.925  1.00  0.00     0.048 C
HETATM    4  C6  UNL     1      16.125   4.817  20.850  1.00  0.00     0.167 C
HETATM    5  C7  UNL     1      17.400   4.433  20.167  1.00  0.00     0.243 C
HETATM    6  C8  UNL     1      18.438   3.996  21.203  1.00  0.00     0.055 C
HETATM    7  C9  UNL     1      17.970   2.928  22.097  1.00  0.00     0.009 C
HETATM    8  C10 UNL     1      17.632   1.760  21.206  1.00  0.00     0.080 C
HETATM    9  C11 UNL     1      17.117   2.017  19.862  1.00  0.00     0.293 C
HETATM   10  N1  UNL     1      17.242   3.294  19.252  1.00  0.00     0.086 N
HETATM   11  O3  UNL     1      18.566   3.213  18.797  1.00  0.00    -0.056 OA
HETATM   12  C26 UNL     1      17.982   5.672  19.572  1.00  0.00     0.171 C
HETATM   13  C32 UNL     1      17.018   6.889  19.777  1.00  0.00     0.048 C
ENDROOT
BRANCH   4  14
HETATM   14  O1  UNL     1      15.386   3.832  21.423  1.00  0.00    -0.392 OA
ATOM     15  H1  UNL     1      14.530   3.846  21.012  1.00  0.00     0.210 HD
ENDBRANCH   4  14
BRANCH  10  16
HETATM   16  C19 UNL     1      16.480   3.644  18.147  1.00  0.00     0.290 C
BRANCH  16  17
HETATM   17  C20 UNL     1      15.200   3.100  17.734  1.00  0.00    -0.004 A
HETATM   18  C21 UNL     1      13.971   3.575  18.171  1.00  0.00     0.013 A
HETATM   19  C22 UNL     1      12.758   3.099  17.779  1.00  0.00     0.001 A
HETATM   20  C23 UNL     1      12.688   2.074  16.883  1.00  0.00     0.000 A
HETATM   21  C24 UNL     1      13.867   1.542  16.396  1.00  0.00     0.001 A
HETATM   22  C25 UNL     1      15.051   2.063  16.829  1.00  0.00     0.013 A
ENDBRANCH  16  17
ENDBRANCH  10  16
BRANCH  12  23
HETATM   23  O4  UNL     1      18.366   5.748  18.301  1.00  0.00    -0.372 OA
BRANCH  23  24
HETATM   24  C27 UNL     1      19.548   6.279  17.934  1.00  0.00     0.184 C
HETATM   25  C28 UNL     1      20.320   5.547  16.881  1.00  0.00     0.181 C
HETATM   26  C29 UNL     1      21.444   6.589  16.694  1.00  0.00     0.182 C
HETATM   27  C30 UNL     1      21.854   6.719  18.175  1.00  0.00     0.207 C
HETATM   28  C31 UNL     1      20.577   6.597  18.956  1.00  0.00     0.182 C
BRANCH  25  29
HETATM   29  O5  UNL     1      20.989   4.422  17.332  1.00  0.00    -0.390 OA
ATOM     30  H5  UNL     1      21.929   4.438  17.191  1.00  0.00     0.210 HD
ENDBRANCH  25  29
BRANCH  26  31
HETATM   31  O6  UNL     1      20.897   7.782  16.291  1.00  0.00    -0.390 OA
ATOM     32  H6  UNL     1      21.236   8.010  15.434  1.00  0.00     0.210 HD
ENDBRANCH  26  31
BRANCH  27  33
HETATM   33  O7  UNL     1      22.774   5.746  18.465  1.00  0.00    -0.246 OA
BRANCH  33  34
HETATM   34  S1  UNL     1      24.125   6.458  19.157  1.00  0.00     0.252 S
HETATM   35  O8  UNL     1      24.683   5.639  20.285  1.00  0.00    -0.572 OA
HETATM   36  O9  UNL     1      25.188   6.633  18.086  1.00  0.00    -0.572 OA
HETATM   37  O10 UNL     1      23.785   7.992  19.746  1.00  0.00    -0.572 OA
ENDBRANCH  33  34
ENDBRANCH  27  33
BRANCH  28  38
HETATM   38  O11 UNL     1      20.260   7.853  19.538  1.00  0.00    -0.390 OA
ATOM     39  H11 UNL     1      19.925   7.702  20.415  1.00  0.00     0.210 HD
ENDBRANCH  28  38
ENDBRANCH  23  24
ENDBRANCH  12  23
BRANCH   9  40
HETATM   40  O2  UNL     1      15.797   1.489  19.836  1.00  0.00    -0.357 OA
ATOM     41  H2  UNL     1      15.443   1.703  18.981  1.00  0.00     0.213 HD
ENDBRANCH   9  40
BRANCH   9  42
HETATM   42  C12 UNL     1      17.840   0.996  18.957  1.00  0.00     0.117 C
BRANCH  42  43
HETATM   43  C13 UNL     1      18.407  -0.146  19.691  1.00  0.00    -0.053 A
HETATM   44  C14 UNL     1      17.606  -1.246  20.040  1.00  0.00     0.007 A
HETATM   45  C15 UNL     1      18.132  -2.336  20.696  1.00  0.00     0.001 A
HETATM   46  C16 UNL     1      19.467  -2.401  21.040  1.00  0.00     0.000 A
HETATM   47  C17 UNL     1      20.261  -1.347  20.712  1.00  0.00     0.001 A
HETATM   48  C18 UNL     1      19.733  -0.258  20.056  1.00  0.00     0.007 A
ENDBRANCH  42  43
ENDBRANCH   9  42
BRANCH   1  49
HETATM   49  C2  UNL     1      17.812   7.905  21.912  1.00  0.00    -0.028 C
HETATM   50  C1  UNL     1      18.481   7.373  22.902  1.00  0.00     0.007 C
ENDBRANCH   1  49
TORSDOF 14
ENDMDL