MODEL 5
REMARK VINA RESULT: -9.414428866      2.405      4.960
REMARK  12 active torsions:
REMARK  status: ('A' for Active; 'I' for Inactive)
REMARK       I    between atoms: C2_2  and  N1_4
REMARK    1  A    between atoms: N1_4  and  C3_6
REMARK    2  A    between atoms: C4_8  and  C5_9
REMARK    3  A    between atoms: C5_9  and  O3_10
REMARK    4  A    between atoms: O3_10  and  C6_11
REMARK    5  A    between atoms: C7_13  and  C8_14
REMARK    6  A    between atoms: N2_15  and  O5_17
REMARK    7  A    between atoms: O5_17  and  C9_18
REMARK    8  A    between atoms: C10_22  and  N6_23
REMARK       I    between atoms: C11_25  and  N8_27
REMARK    9  A    between atoms: N8_27  and  N9_29
REMARK   10  A    between atoms: C12_35  and  O7_36
REMARK   11  A    between atoms: C13_38  and  O8_39
REMARK   12  A    between atoms: C16_44  and  O10_45
ROOT
HETATM    1  C6  UNL     1      16.288  30.398  69.390  1.00  0.00     0.296 C
HETATM    2  O4  UNL     1      17.506  31.002  69.541  1.00  0.00    -0.330 OA
HETATM    3  C7  UNL     1      17.727  31.663  70.714  1.00  0.00     0.263 C
HETATM    4  N10 UNL     1      16.592  31.821  71.558  1.00  0.00    -0.365 N
ATOM      5  H10 UNL     1      16.294  32.731  71.911  1.00  0.00     0.158 HD
HETATM    6  C12 UNL     1      15.903  30.612  71.874  1.00  0.00     0.249 C
HETATM    7  C13 UNL     1      15.735  29.778  70.648  1.00  0.00     0.221 C
ENDROOT
BRANCH   3   8
HETATM    8  C8  UNL     1      18.885  31.005  71.390  1.00  0.00     0.140 C
HETATM    9  N2  UNL     1      18.943  29.717  71.511  1.00  0.00    -0.273 N
ATOM     10  H2  UNL     1      18.173  29.168  71.129  1.00  0.00     0.193 HD
BRANCH   9  11
HETATM   11  O5  UNL     1      19.956  29.055  72.107  1.00  0.00    -0.229 OA
BRANCH  11  12
HETATM   12  C9  UNL     1      21.285  29.138  71.646  1.00  0.00     0.406 C
HETATM   13  N3  UNL     1      22.175  28.338  72.467  1.00  0.00    -0.068 NA
HETATM   14  N4  UNL     1      22.487  28.945  73.672  1.00  0.00    -0.031 NA
HETATM   15  N5  UNL     1      21.834  30.148  73.875  1.00  0.00    -0.077 NA
HETATM   16  C10 UNL     1      22.022  31.036  72.753  1.00  0.00     0.344 C
HETATM   17  O6  UNL     1      21.728  30.454  71.536  1.00  0.00    -0.304 OA
BRANCH  16  18
HETATM   18  N6  UNL     1      21.271  32.255  72.959  1.00  0.00    -0.322 N
HETATM   19  C11 UNL     1      21.672  33.207  73.732  1.00  0.00     0.205 C
HETATM   20  N7  UNL     1      20.852  34.360  73.859  1.00  0.00    -0.062 NA
HETATM   21  N8  UNL     1      22.887  33.167  74.463  1.00  0.00    -0.280 N
ATOM     22  H8  UNL     1      23.717  33.582  74.038  1.00  0.00     0.189 HD
ATOM     23  H6  UNL     1      20.383  32.367  72.469  1.00  0.00     0.166 HD
BRANCH  21  24
HETATM   24  N9  UNL     1      23.015  32.599  75.723  1.00  0.00    -0.343 N
ATOM     25  H92 UNL     1      23.693  33.023  76.356  1.00  0.00     0.176 HD
ATOM     26  H91 UNL     1      22.475  31.795  76.043  1.00  0.00     0.176 HD
ENDBRANCH  21  24
ENDBRANCH  16  18
ENDBRANCH  11  12
ENDBRANCH   9  11
ENDBRANCH   3   8
BRANCH   1  27
HETATM   27  O3  UNL     1      15.331  31.207  68.799  1.00  0.00    -0.352 OA
BRANCH  27  28
HETATM   28  C5  UNL     1      15.877  32.016  67.800  1.00  0.00     0.236 C
BRANCH  28  29
HETATM   29  C4  UNL     1      15.629  33.457  68.086  1.00  0.00     0.083 A
HETATM   30  O2  UNL     1      14.452  33.916  68.143  1.00  0.00    -0.293 OA
HETATM   31  C3  UNL     1      14.122  35.202  68.395  1.00  0.00     0.188 A
HETATM   32  C16 UNL     1      15.164  36.042  68.600  1.00  0.00     0.168 A
HETATM   33  C15 UNL     1      16.488  35.592  68.550  1.00  0.00     0.211 A
HETATM   34  C14 UNL     1      16.743  34.275  68.288  1.00  0.00     0.092 A
HETATM   35  O9  UNL     1      17.430  36.412  68.747  1.00  0.00    -0.285 OA
BRANCH  31  36
HETATM   36  N1  UNL     1      12.736  35.509  68.415  1.00  0.00    -0.305 N
HETATM   37  C2  UNL     1      11.760  35.117  69.293  1.00  0.00     0.219 C
HETATM   38  C1  UNL     1      10.347  35.644  69.011  1.00  0.00     0.117 C
HETATM   39  O1  UNL     1      11.836  34.406  70.276  1.00  0.00    -0.274 OA
ATOM     40  H1  UNL     1      12.418  36.115  67.658  1.00  0.00     0.171 HD
ENDBRANCH  31  36
BRANCH  32  41
HETATM   41  O10 UNL     1      14.945  37.368  68.864  1.00  0.00    -0.354 OA
ATOM     42  H10 UNL     1      15.675  37.954  69.025  1.00  0.00     0.218 HD
ENDBRANCH  32  41
ENDBRANCH  28  29
ENDBRANCH  27  28
ENDBRANCH   1  27
BRANCH   6  43
HETATM   43  O7  UNL     1      14.627  30.972  72.367  1.00  0.00    -0.374 OA
ATOM     44  H7  UNL     1      14.393  30.338  73.034  1.00  0.00     0.212 HD
ENDBRANCH   6  43
BRANCH   7  45
HETATM   45  O8  UNL     1      14.362  29.548  70.398  1.00  0.00    -0.386 OA
ATOM     46  H8  UNL     1      14.285  28.623  70.196  1.00  0.00     0.210 HD
ENDBRANCH   7  45
TORSDOF 12
ENDMDL