MODEL 5
REMARK VINA RESULT: -8.366605001      3.148      7.564
REMARK  18 active torsions:
REMARK  status: ('A' for Active; 'I' for Inactive)
REMARK    1  A    between atoms: N1_1  and  C1_4
REMARK    2  A    between atoms: C2_8  and  O2_9
REMARK    3  A    between atoms: C3_11  and  N3_12
REMARK    4  A    between atoms: N3_12  and  C4_14
REMARK    5  A    between atoms: C4_14  and  C5_15
REMARK    6  A    between atoms: C4_14  and  C9_33
REMARK    7  A    between atoms: C5_15  and  O3_16
REMARK    8  A    between atoms: O3_16  and  N4_17
REMARK    9  A    between atoms: C6_22  and  C7_23
REMARK   10  A    between atoms: C7_23  and  O4_24
REMARK   11  A    between atoms: C7_23  and  C8_26
REMARK   12  A    between atoms: C8_26  and  O5_27
REMARK   13  A    between atoms: C8_26  and  O6_29
REMARK   14  A    between atoms: C10_34  and  O7_35
REMARK   15  A    between atoms: N8_37  and  C11_38
REMARK   16  A    between atoms: C11_38  and  O8_39
REMARK   17  A    between atoms: C11_38  and  O9_41
REMARK   18  A    between atoms: C14_49  and  N11_50
ROOT
HETATM    1  C4  UNL     1      14.220  34.918  69.061  1.00  0.00     0.055 C
ENDROOT
BRANCH   1   2
HETATM    2  N3  UNL     1      14.918  35.035  70.178  1.00  0.00    -0.350 N
ATOM      3  H3  UNL     1      14.488  35.458  70.999  1.00  0.00     0.166 HD
BRANCH   2   4
HETATM    4  C3  UNL     1      16.256  34.581  70.246  1.00  0.00     0.139 A
HETATM    5  C1  UNL     1      16.689  33.428  70.860  1.00  0.00     0.151 A
HETATM    6  N2  UNL     1      18.021  33.395  70.681  1.00  0.00    -0.240 N
HETATM    7  O1  UNL     1      18.388  34.444  70.008  1.00  0.00    -0.208 OA
ATOM      8  H2  UNL     1      18.645  32.663  71.020  1.00  0.00     0.196 HD
HETATM    9  C2  UNL     1      17.365  35.200  69.715  1.00  0.00     0.235 A
BRANCH   5  10
HETATM   10  N1  UNL     1      15.950  32.546  71.490  1.00  0.00    -0.382 N
ATOM     11  H12 UNL     1      16.222  31.601  71.762  1.00  0.00     0.157 HD
ATOM     12  H11 UNL     1      14.988  32.660  71.808  1.00  0.00     0.157 HD
ENDBRANCH   5  10
BRANCH   9  13
HETATM   13  O2  UNL     1      17.375  36.416  68.997  1.00  0.00    -0.338 OA
ATOM     14  H2  UNL     1      16.906  36.616  68.196  1.00  0.00     0.220 HD
ENDBRANCH   9  13
ENDBRANCH   2   4
ENDBRANCH   1   2
BRANCH   1  15
HETATM   15  C5  UNL     1      14.819  34.276  67.877  1.00  0.00     0.263 C
BRANCH  15  16
HETATM   16  O3  UNL     1      14.117  33.123  67.463  1.00  0.00    -0.236 OA
BRANCH  16  17
HETATM   17  N4  UNL     1      14.659  31.875  67.431  1.00  0.00    -0.076 N
HETATM   18  N5  UNL     1      14.691  31.020  66.442  1.00  0.00    -0.199 N
HETATM   19  N6  UNL     1      15.312  29.937  66.843  1.00  0.00    -0.268 N
ATOM     20  H5  UNL     1      14.298  31.169  65.514  1.00  0.00     0.212 HD
HETATM   21  C6  UNL     1      15.688  30.101  68.116  1.00  0.00     0.149 A
ATOM     22  H6  UNL     1      15.482  29.106  66.277  1.00  0.00     0.190 HD
HETATM   23  N7  UNL     1      15.266  31.323  68.458  1.00  0.00    -0.242 N
ATOM     24  H7  UNL     1      15.394  31.758  69.372  1.00  0.00     0.192 HD
BRANCH  21  25
HETATM   25  C7  UNL     1      16.417  29.171  69.015  1.00  0.00     0.243 C
BRANCH  25  26
HETATM   26  O4  UNL     1      16.085  29.402  70.346  1.00  0.00    -0.383 OA
ATOM     27  H4  UNL     1      16.780  29.111  70.925  1.00  0.00     0.210 HD
ENDBRANCH  25  26
BRANCH  25  28
HETATM   28  C8  UNL     1      16.098  27.751  68.628  1.00  0.00     0.290 C
BRANCH  28  29
HETATM   29  O5  UNL     1      16.901  26.844  69.298  1.00  0.00    -0.368 OA
ATOM     30  H5  UNL     1      17.079  26.074  68.770  1.00  0.00     0.212 HD
ENDBRANCH  28  29
BRANCH  28  31
HETATM   31  O6  UNL     1      14.759  27.526  68.966  1.00  0.00    -0.368 OA
ATOM     32  H6  UNL     1      14.628  27.884  69.835  1.00  0.00     0.212 HD
ENDBRANCH  28  31
ENDBRANCH  25  28
ENDBRANCH  21  25
ENDBRANCH  16  17
ENDBRANCH  15  16
ENDBRANCH   1  15
BRANCH   1  33
HETATM   33  C9  UNL     1      12.852  35.411  69.036  1.00  0.00     0.091 A
HETATM   34  C10 UNL     1      12.525  36.380  68.080  1.00  0.00     0.164 A
HETATM   35  N8  UNL     1      11.308  36.888  67.962  1.00  0.00    -0.261 N
HETATM   36  C12 UNL     1      10.324  36.473  68.786  1.00  0.00     0.132 A
HETATM   37  N9  UNL     1       9.075  36.977  68.685  1.00  0.00    -0.337 N
HETATM   38  C15 UNL     1      10.544  35.524  69.760  1.00  0.00     0.103 A
HETATM   39  C13 UNL     1       8.071  36.573  69.505  1.00  0.00     0.183 A
ATOM     40  H9  UNL     1       8.880  37.682  67.975  1.00  0.00     0.168 HD
HETATM   41  N10 UNL     1       8.323  35.641  70.448  1.00  0.00    -0.338 N
HETATM   42  C14 UNL     1       9.543  35.094  70.606  1.00  0.00     0.117 A
ATOM     43  H10 UNL     1       7.565  35.341  71.061  1.00  0.00     0.168 HD
HETATM   44  C16 UNL     1      11.841  35.004  69.860  1.00  0.00     0.206 A
HETATM   45  O10 UNL     1      12.041  34.137  70.746  1.00  0.00    -0.286 OA
BRANCH  34  46
HETATM   46  O7  UNL     1      13.502  36.858  67.187  1.00  0.00    -0.345 OA
ATOM     47  H7  UNL     1      14.168  36.273  66.846  1.00  0.00     0.219 HD
ENDBRANCH  34  46
BRANCH  35  48
HETATM   48  C11 UNL     1      11.020  37.892  66.953  1.00  0.00     0.375 C
BRANCH  48  49
HETATM   49  O8  UNL     1      11.617  39.077  67.380  1.00  0.00    -0.354 OA
ATOM     50  H8  UNL     1      12.137  39.401  66.652  1.00  0.00     0.214 HD
ENDBRANCH  48  49
BRANCH  48  51
HETATM   51  O9  UNL     1       9.649  38.102  66.826  1.00  0.00    -0.354 OA
ATOM     52  H9  UNL     1       9.310  37.701  66.034  1.00  0.00     0.214 HD
ENDBRANCH  48  51
ENDBRANCH  35  48
BRANCH  42  53
HETATM   53  N11 UNL     1       9.807  34.198  71.505  1.00  0.00    -0.385 N
ATOM     54 2H11 UNL     1      10.777  33.963  71.711  1.00  0.00     0.157 HD
ATOM     55 1H11 UNL     1       9.084  33.706  72.030  1.00  0.00     0.157 HD
ENDBRANCH  42  53
ENDBRANCH   1  33
TORSDOF 18
ENDMDL