MODEL 4
REMARK VINA RESULT: -9.604629675      1.673     10.368
REMARK  17 active torsions:
REMARK  status: ('A' for Active; 'I' for Inactive)
REMARK    1  A    between atoms: N1_1  and  O1_4
REMARK    2  A    between atoms: O1_4  and  C1_5
REMARK    3  A    between atoms: C1_5  and  C2_7
REMARK    4  A    between atoms: C5_13  and  C6_14
REMARK    5  A    between atoms: C6_14  and  O4_15
REMARK    6  A    between atoms: C6_14  and  N3_17
REMARK    7  A    between atoms: C7_21  and  C8_22
REMARK    8  A    between atoms: C8_22  and  N6_23
REMARK    9  A    between atoms: N6_23  and  C9_26
REMARK   10  A    between atoms: C9_26  and  O5_27
REMARK   11  A    between atoms: C9_26  and  C10_29
REMARK   12  A    between atoms: C10_29  and  O6_30
REMARK   13  A    between atoms: C10_29  and  N7_32
REMARK       I    between atoms: N7_32  and  C11_34
REMARK       I    between atoms: C11_34  and  N8_35
REMARK       I    between atoms: C11_34  and  N9_39
REMARK   14  A    between atoms: C12_43  and  O7_44
REMARK   15  A    between atoms: N10_47  and  O8_49
REMARK   16  A    between atoms: C15_52  and  O9_53
REMARK   17  A    between atoms: C16_55  and  O10_56
ROOT
HETATM    1  N3  UNL     1      17.311  32.706  69.691  1.00  0.00    -0.220 N
HETATM    2  N4  UNL     1      16.530  31.784  69.123  1.00  0.00    -0.015 NA
HETATM    3  N5  UNL     1      16.759  30.585  69.702  1.00  0.00    -0.282 N
ATOM      4  H5  UNL     1      16.282  29.720  69.449  1.00  0.00     0.184 HD
HETATM    5  C7  UNL     1      17.686  30.685  70.641  1.00  0.00     0.101 A
HETATM    6  C12 UNL     1      18.028  32.054  70.613  1.00  0.00     0.184 A
ENDROOT
BRANCH   1   7
HETATM    7  C6  UNL     1      17.313  34.134  69.541  1.00  0.00     0.280 C
BRANCH   7   8
HETATM    8  C5  UNL     1      16.153  34.800  69.027  1.00  0.00     0.043 A
HETATM    9  C4  UNL     1      16.172  35.735  68.012  1.00  0.00     0.158 A
HETATM   10  O3  UNL     1      15.057  36.336  67.621  1.00  0.00    -0.304 OA
HETATM   11  C3  UNL     1      13.891  36.129  68.114  1.00  0.00     0.163 A
HETATM   12  N2  UNL     1      12.758  36.772  67.706  1.00  0.00    -0.329 N
HETATM   13  C14 UNL     1      13.770  35.182  69.135  1.00  0.00     0.081 A
HETATM   14  C2  UNL     1      11.577  36.537  68.236  1.00  0.00     0.148 A
ATOM     15  H2  UNL     1      12.830  37.463  66.960  1.00  0.00     0.168 HD
HETATM   16  C16 UNL     1      11.420  35.584  69.265  1.00  0.00     0.133 A
HETATM   17  C15 UNL     1      12.528  34.907  69.707  1.00  0.00     0.118 A
HETATM   18  C13 UNL     1      14.907  34.527  69.595  1.00  0.00     0.084 A
HETATM   19  N10 UNL     1      14.725  33.813  70.655  1.00  0.00    -0.268 N
ATOM     20  H10 UNL     1      13.741  33.722  70.905  1.00  0.00     0.194 HD
BRANCH  14  21
HETATM   21  C1  UNL     1      10.363  37.308  67.922  1.00  0.00     0.334 C
HETATM   22  O2  UNL     1      10.325  38.497  67.595  1.00  0.00    -0.256 OA
BRANCH  21  23
HETATM   23  O1  UNL     1       9.079  36.686  68.002  1.00  0.00    -0.201 OA
BRANCH  23  24
HETATM   24  N1  UNL     1       8.208  36.847  69.025  1.00  0.00    -0.302 N
ATOM     25  H12 UNL     1       7.346  37.351  68.815  1.00  0.00     0.184 HD
ATOM     26  H11 UNL     1       8.356  36.502  69.973  1.00  0.00     0.184 HD
ENDBRANCH  23  24
ENDBRANCH  21  23
ENDBRANCH  14  21
BRANCH  16  27
HETATM   27  O10 UNL     1      10.180  35.334  69.813  1.00  0.00    -0.356 OA
ATOM     28  H10 UNL     1      10.092  35.083  70.724  1.00  0.00     0.218 HD
ENDBRANCH  16  27
BRANCH  17  29
HETATM   29  O9  UNL     1      12.490  33.951  70.705  1.00  0.00    -0.357 OA
ATOM     30  H9  UNL     1      11.661  33.512  70.855  1.00  0.00     0.217 HD
ENDBRANCH  17  29
BRANCH  19  31
HETATM   31  O8  UNL     1      15.524  33.176  71.485  1.00  0.00    -0.289 OA
ATOM     32  H8  UNL     1      16.421  33.302  71.774  1.00  0.00     0.244 HD
ENDBRANCH  19  31
ENDBRANCH   7   8
BRANCH   7  33
HETATM   33  O4  UNL     1      17.663  34.709  70.797  1.00  0.00    -0.371 OA
ATOM     34  H4  UNL     1      17.340  35.602  70.831  1.00  0.00     0.212 HD
ENDBRANCH   7  33
ENDBRANCH   1   7
BRANCH   6  35
HETATM   35  O7  UNL     1      19.031  32.592  71.494  1.00  0.00    -0.344 OA
ATOM     36  H7  UNL     1      18.899  33.036  72.324  1.00  0.00     0.219 HD
ENDBRANCH   6  35
BRANCH   5  37
HETATM   37  C8  UNL     1      18.395  29.759  71.549  1.00  0.00     0.298 C
BRANCH  37  38
HETATM   38  N6  UNL     1      19.847  29.883  71.310  1.00  0.00    -0.039 N
ATOM     39  H62 UNL     1      20.170  29.179  70.647  1.00  0.00     0.280 HD
ATOM     40  H61 UNL     1      20.059  30.725  70.773  1.00  0.00     0.280 HD
BRANCH  38  41
HETATM   41  C9  UNL     1      20.619  29.839  72.527  1.00  0.00     0.367 C
BRANCH  41  42
HETATM   42  O5  UNL     1      20.654  28.672  73.119  1.00  0.00    -0.366 OA
ATOM     43  H5  UNL     1      21.033  28.674  73.991  1.00  0.00     0.212 HD
ENDBRANCH  41  42
BRANCH  41  44
HETATM   44  C10 UNL     1      21.366  30.880  73.168  1.00  0.00     0.273 C
BRANCH  44  45
HETATM   45  O6  UNL     1      22.489  30.312  73.883  1.00  0.00    -0.373 OA
ATOM     46  H6  UNL     1      23.249  30.874  73.791  1.00  0.00     0.212 HD
ENDBRANCH  44  45
BRANCH  44  47
HETATM   47  N7  UNL     1      20.774  31.847  73.993  1.00  0.00    -0.345 N
HETATM   48  C11 UNL     1      21.584  32.952  74.372  1.00  0.00     0.478 C
HETATM   49  N8  UNL     1      22.571  32.598  75.389  1.00  0.00    -0.033 N
HETATM   50  N9  UNL     1      22.399  33.422  73.242  1.00  0.00    -0.033 N
ATOM     51  H83 UNL     1      22.125  32.173  76.202  1.00  0.00     0.278 HD
ATOM     52  H82 UNL     1      23.143  31.809  75.086  1.00  0.00     0.278 HD
ATOM     53  H81 UNL     1      23.153  33.391  75.660  1.00  0.00     0.278 HD
ATOM     54  H93 UNL     1      22.955  32.667  72.841  1.00  0.00     0.278 HD
ATOM     55  H92 UNL     1      21.823  33.639  72.429  1.00  0.00     0.278 HD
ATOM     56  H91 UNL     1      22.980  34.215  73.514  1.00  0.00     0.278 HD
ATOM     57  H7  UNL     1      19.807  31.762  74.306  1.00  0.00     0.159 HD
ENDBRANCH  44  47
ENDBRANCH  41  44
ENDBRANCH  38  41
ENDBRANCH  37  38
ENDBRANCH   5  37
TORSDOF 17
ENDMDL