MODEL 1
REMARK VINA RESULT: -9.621362778      0.000      0.000
REMARK  19 active torsions:
REMARK  status: ('A' for Active; 'I' for Inactive)
REMARK    1  A    between atoms: N1_1  and  C1_4
REMARK    2  A    between atoms: C2_9  and  C3_10
REMARK    3  A    between atoms: C3_10  and  C4_11
REMARK    4  A    between atoms: C3_10  and  N6_35
REMARK       I    between atoms: N4_12  and  C5_14
REMARK    5  A    between atoms: C5_14  and  C6_16
REMARK    6  A    between atoms: C7_17  and  O2_18
REMARK    7  A    between atoms: C8_20  and  O3_21
REMARK    8  A    between atoms: N5_23  and  C9_24
REMARK    9  A    between atoms: C9_24  and  O4_25
REMARK   10  A    between atoms: C9_24  and  C10_27
REMARK   11  A    between atoms: C10_27  and  O5_28
REMARK   12  A    between atoms: C10_27  and  O6_30
REMARK   13  A    between atoms: C11_32  and  O7_33
REMARK   14  A    between atoms: N6_35  and  C12_37
REMARK   15  A    between atoms: C12_37  and  C13_38
REMARK   16  A    between atoms: N9_43  and  C14_44
REMARK   17  A    between atoms: C14_44  and  C15_45
REMARK   18  A    between atoms: C15_45  and  O8_46
REMARK   19  A    between atoms: C15_45  and  O9_48
ROOT
HETATM    1  C3  UNL     1      16.344  32.732  68.510  1.00  0.00     0.171 C
ENDROOT
BRANCH   1   2
HETATM    2  C2  UNL     1      15.850  31.452  67.975  1.00  0.00     0.095 A
HETATM    3  N3  UNL     1      15.341  31.432  66.718  1.00  0.00    -0.285 N
HETATM    4  N2  UNL     1      14.874  30.317  66.209  1.00  0.00    -0.132 N
ATOM      5  H3  UNL     1      15.321  32.289  66.166  1.00  0.00     0.187 HD
HETATM    6  C1  UNL     1      14.887  29.188  66.912  1.00  0.00     0.691 A
ATOM      7  H2  UNL     1      14.495  30.316  65.262  1.00  0.00     0.205 HD
HETATM    8  N12 UNL     1      15.389  29.176  68.166  1.00  0.00    -0.176 N
HETATM    9  C16 UNL     1      15.886  30.308  68.742  1.00  0.00     0.158 A
ATOM     10  H12 UNL     1      15.396  28.303  68.694  1.00  0.00     0.185 HD
HETATM   11  N11 UNL     1      16.433  30.352  70.037  1.00  0.00    -0.080 NA
BRANCH   6  12
HETATM   12  N1  UNL     1      14.447  28.089  66.449  1.00  0.00    -0.233 N
ATOM     13  H12 UNL     1      13.490  28.080  66.096  1.00  0.00     0.174 HD
ATOM     14  H11 UNL     1      15.008  27.238  66.427  1.00  0.00     0.174 HD
ENDBRANCH   6  12
ENDBRANCH   1   2
BRANCH   1  15
HETATM   15  C4  UNL     1      15.588  33.905  67.952  1.00  0.00     0.095 C
HETATM   16  N4  UNL     1      15.136  34.868  68.720  1.00  0.00    -0.334 N
HETATM   17  C5  UNL     1      14.423  35.926  68.080  1.00  0.00     0.262 C
ATOM     18  H4  UNL     1      15.288  34.861  69.728  1.00  0.00     0.168 HD
HETATM   19  O1  UNL     1      15.108  36.700  67.394  1.00  0.00    -0.267 OA
BRANCH  17  20
HETATM   20  C6  UNL     1      12.974  36.025  68.255  1.00  0.00     0.121 A
HETATM   21  C7  UNL     1      12.066  36.881  67.698  1.00  0.00     0.137 A
HETATM   22  C8  UNL     1      10.846  36.596  68.251  1.00  0.00     0.185 A
HETATM   23  N5  UNL     1      10.944  35.566  69.161  1.00  0.00    -0.248 N
HETATM   24  C11 UNL     1      12.237  35.228  69.154  1.00  0.00     0.169 A
BRANCH  21  25
HETATM   25  O2  UNL     1      12.307  37.870  66.744  1.00  0.00    -0.356 OA
ATOM     26  H2  UNL     1      11.929  38.740  66.707  1.00  0.00     0.218 HD
ENDBRANCH  21  25
BRANCH  22  27
HETATM   27  O3  UNL     1       9.694  37.300  67.889  1.00  0.00    -0.344 OA
ATOM     28  H3  UNL     1       8.947  37.368  68.472  1.00  0.00     0.219 HD
ENDBRANCH  22  27
BRANCH  23  29
HETATM   29  C9  UNL     1       9.824  35.126  69.888  1.00  0.00     0.182 C
BRANCH  29  30
HETATM   30  O4  UNL     1       9.694  33.832  70.051  1.00  0.00    -0.345 OA
ATOM     31  H4  UNL     1      10.000  33.470  70.874  1.00  0.00     0.219 HD
ENDBRANCH  29  30
BRANCH  29  32
HETATM   32  C10 UNL     1       8.743  35.879  70.511  1.00  0.00     0.331 C
BRANCH  32  33
HETATM   33  O5  UNL     1       7.773  36.332  69.672  1.00  0.00    -0.364 OA
ATOM     34  H5  UNL     1       7.119  35.694  69.410  1.00  0.00     0.213 HD
ENDBRANCH  32  33
BRANCH  32  35
HETATM   35  O6  UNL     1       9.299  37.012  71.177  1.00  0.00    -0.364 OA
ATOM     36  H6  UNL     1       9.101  36.948  72.104  1.00  0.00     0.213 HD
ENDBRANCH  32  35
ENDBRANCH  29  32
ENDBRANCH  23  29
BRANCH  24  37
HETATM   37  O7  UNL     1      12.820  34.235  69.911  1.00  0.00    -0.345 OA
ATOM     38  H7  UNL     1      13.450  34.421  70.597  1.00  0.00     0.219 HD
ENDBRANCH  24  37
ENDBRANCH  17  20
ENDBRANCH   1  15
BRANCH   1  39
HETATM   39  N6  UNL     1      16.361  32.868  69.917  1.00  0.00    -0.401 N
ATOM     40  H6  UNL     1      15.743  32.295  70.492  1.00  0.00     0.154 HD
BRANCH  39  41
HETATM   41  C12 UNL     1      17.238  33.804  70.531  1.00  0.00     0.194 C
BRANCH  41  42
HETATM   42  C13 UNL     1      18.366  33.036  71.159  1.00  0.00     0.130 A
HETATM   43  N7  UNL     1      19.525  33.561  71.601  1.00  0.00    -0.271 N
HETATM   44  N8  UNL     1      20.246  32.573  72.057  1.00  0.00    -0.224 N
ATOM     45  H7  UNL     1      19.789  34.546  71.583  1.00  0.00     0.190 HD
HETATM   46  N9  UNL     1      19.594  31.417  71.926  1.00  0.00    -0.214 N
ATOM     47  H8  UNL     1      21.178  32.671  72.459  1.00  0.00     0.210 HD
HETATM   48  N10 UNL     1      18.424  31.721  71.364  1.00  0.00    -0.268 N
ATOM     49  H10 UNL     1      17.690  31.054  71.129  1.00  0.00     0.190 HD
BRANCH  46  50
HETATM   50  C14 UNL     1      20.056  30.108  72.292  1.00  0.00     0.231 C
BRANCH  50  51
HETATM   51  C15 UNL     1      19.375  29.042  71.455  1.00  0.00     0.275 C
BRANCH  51  52
HETATM   52  O8  UNL     1      19.373  29.406  70.112  1.00  0.00    -0.370 OA
ATOM     53  H8  UNL     1      18.746  28.882  69.628  1.00  0.00     0.212 HD
ENDBRANCH  51  52
BRANCH  51  54
HETATM   54  O9  UNL     1      18.074  28.892  71.937  1.00  0.00    -0.370 OA
ATOM     55  H9  UNL     1      17.503  28.765  71.188  1.00  0.00     0.212 HD
ENDBRANCH  51  54
ENDBRANCH  50  51
ENDBRANCH  46  50
ENDBRANCH  41  42
ENDBRANCH  39  41
ENDBRANCH   1  39
TORSDOF 19
ENDMDL