MODEL 1
REMARK VINA RESULT: -9.515636102      0.000      0.000
REMARK  15 active torsions:
REMARK  status: ('A' for Active; 'I' for Inactive)
REMARK    1  A    between atoms: N1_1  and  C1_4
REMARK    2  A    between atoms: C3_6  and  C4_7
REMARK    3  A    between atoms: C4_7  and  O1_8
REMARK    4  A    between atoms: C4_7  and  C5_10
REMARK    5  A    between atoms: C5_10  and  O2_11
REMARK    6  A    between atoms: C5_10  and  N2_13
REMARK    7  A    between atoms: N2_13  and  C6_15
REMARK    8  A    between atoms: C7_17  and  O4_18
REMARK    9  A    between atoms: O4_18  and  C8_19
REMARK   10  A    between atoms: C9_23  and  O5_24
REMARK   11  A    between atoms: C10_26  and  O6_27
REMARK   12  A    between atoms: O6_27  and  C11_28
REMARK   13  A    between atoms: C14_34  and  N6_35
REMARK   14  A    between atoms: C15_38  and  N7_39
REMARK   15  A    between atoms: C17_44  and  N8_45
ROOT
HETATM    1  C6  UNL     1      17.265  32.133  70.889  1.00  0.00     0.252 C
HETATM    2  O3  UNL     1      17.620  32.365  69.538  1.00  0.00    -0.333 OA
HETATM    3  C7  UNL     1      16.498  32.776  68.894  1.00  0.00     0.295 C
HETATM    4  C15 UNL     1      15.586  31.590  68.590  1.00  0.00     0.240 C
HETATM    5  C16 UNL     1      15.311  30.903  69.906  1.00  0.00     0.075 C
HETATM    6  C17 UNL     1      15.834  31.747  71.020  1.00  0.00     0.233 C
ENDROOT
BRANCH   3   7
HETATM    7  O4  UNL     1      16.768  33.497  67.707  1.00  0.00    -0.324 OA
BRANCH   7   8
HETATM    8  C8  UNL     1      16.454  34.788  67.946  1.00  0.00     0.360 C
HETATM    9  N3  UNL     1      16.551  35.185  69.392  1.00  0.00    -0.017 N
HETATM   10  C9  UNL     1      15.790  36.315  68.959  1.00  0.00     0.355 C
ATOM     11  H32 UNL     1      16.257  34.577  70.156  1.00  0.00     0.283 HD
ATOM     12  H31 UNL     1      17.439  35.270  69.886  1.00  0.00     0.283 HD
HETATM   13  C10 UNL     1      15.068  35.288  68.026  1.00  0.00     0.243 C
BRANCH  10  14
HETATM   14  O5  UNL     1      15.018  37.065  69.740  1.00  0.00    -0.368 OA
ATOM     15  H5  UNL     1      14.540  36.755  70.500  1.00  0.00     0.212 HD
ENDBRANCH  10  14
BRANCH  13  16
HETATM   16  O6  UNL     1      14.089  34.593  68.615  1.00  0.00    -0.314 OA
BRANCH  16  17
HETATM   17  C11 UNL     1      12.795  34.929  68.892  1.00  0.00     0.223 A
HETATM   18  O7  UNL     1      12.092  34.351  69.882  1.00  0.00    -0.269 OA
HETATM   19  C12 UNL     1      10.895  34.833  69.964  1.00  0.00     0.186 A
HETATM   20  N4  UNL     1       9.889  34.429  70.917  1.00  0.00    -0.072 NA
HETATM   21  C13 UNL     1      10.712  35.794  69.008  1.00  0.00     0.132 A
HETATM   22  N5  UNL     1       9.555  36.568  68.742  1.00  0.00    -0.095 NA
HETATM   23  C14 UNL     1      11.944  35.857  68.316  1.00  0.00     0.189 A
BRANCH  23  24
HETATM   24  N6  UNL     1      12.174  36.822  67.336  1.00  0.00    -0.108 N
HETATM   25  O8  UNL     1      12.405  36.607  66.166  1.00  0.00    -0.532 OA
HETATM   26  O9  UNL     1      12.099  38.154  67.727  1.00  0.00    -0.532 OA
ENDBRANCH  23  24
ENDBRANCH  16  17
ENDBRANCH  13  16
ENDBRANCH   7   8
ENDBRANCH   3   7
BRANCH   4  27
HETATM   27  N7  UNL     1      16.263  30.749  67.628  1.00  0.00    -0.070 N
ATOM     28  H73 UNL     1      15.627  30.126  67.131  1.00  0.00     0.274 HD
ATOM     29  H72 UNL     1      16.604  31.268  66.819  1.00  0.00     0.274 HD
ATOM     30  H71 UNL     1      17.004  30.250  68.120  1.00  0.00     0.274 HD
ENDBRANCH   4  27
BRANCH   1  31
HETATM   31  N2  UNL     1      18.218  31.315  71.555  1.00  0.00    -0.367 N
ATOM     32  H2  UNL     1      18.180  31.205  72.568  1.00  0.00     0.158 HD
BRANCH  31  33
HETATM   33  C5  UNL     1      19.212  30.659  70.811  1.00  0.00     0.251 C
BRANCH  33  34
HETATM   34  C4  UNL     1      20.212  30.053  71.828  1.00  0.00     0.225 C
BRANCH  34  35
HETATM   35  C3  UNL     1      20.713  31.249  72.596  1.00  0.00     0.113 A
HETATM   36  C2  UNL     1      21.602  31.183  73.657  1.00  0.00     0.087 A
HETATM   37  C1  UNL     1      21.793  32.488  74.064  1.00  0.00     0.121 A
HETATM   38  N9  UNL     1      21.035  33.279  73.259  1.00  0.00    -0.245 N
HETATM   39  O10 UNL     1      20.430  32.495  72.424  1.00  0.00    -0.238 OA
ATOM     40  H9  UNL     1      20.957  34.296  73.304  1.00  0.00     0.196 HD
BRANCH  37  41
HETATM   41  N1  UNL     1      22.529  32.951  75.020  1.00  0.00    -0.384 N
ATOM     42  H12 UNL     1      22.659  32.467  75.907  1.00  0.00     0.157 HD
ATOM     43  H11 UNL     1      23.074  33.811  75.059  1.00  0.00     0.157 HD
ENDBRANCH  37  41
ENDBRANCH  34  35
BRANCH  34  44
HETATM   44  O1  UNL     1      19.494  29.298  72.781  1.00  0.00    -0.384 OA
ATOM     45  H1  UNL     1      20.137  29.085  73.447  1.00  0.00     0.210 HD
ENDBRANCH  34  44
ENDBRANCH  33  34
BRANCH  33  46
HETATM   46  O2  UNL     1      18.798  29.531  70.088  1.00  0.00    -0.374 OA
ATOM     47  H2  UNL     1      18.184  29.121  70.685  1.00  0.00     0.212 HD
ENDBRANCH  33  46
ENDBRANCH  31  33
ENDBRANCH   1  31
BRANCH   6  48
HETATM   48  N8  UNL     1      15.596  31.089  72.318  1.00  0.00    -0.071 N
ATOM     49  H83 UNL     1      16.064  30.185  72.378  1.00  0.00     0.274 HD
ATOM     50  H82 UNL     1      16.084  31.562  73.078  1.00  0.00     0.274 HD
ATOM     51  H81 UNL     1      14.596  31.012  72.499  1.00  0.00     0.274 HD
ENDBRANCH   6  48
TORSDOF 15
ENDMDL