MODEL 4
REMARK VINA RESULT: -7.881188299      1.521      2.555
REMARK  13 active torsions:
REMARK  status: ('A' for Active; 'I' for Inactive)
REMARK    1  A    between atoms: N1_1  and  C1_4
REMARK    2  A    between atoms: C3_8  and  N3_9
REMARK    3  A    between atoms: N5_14  and  C4_15
REMARK    4  A    between atoms: C4_15  and  N6_16
REMARK       I    between atoms: N6_16  and  C5_18
REMARK    5  A    between atoms: C5_18  and  C6_20
REMARK    6  A    between atoms: C6_20  and  C7_21
REMARK    7  A    between atoms: C8_26  and  C9_27
REMARK    8  A    between atoms: C11_31  and  C12_32
REMARK    9  A    between atoms: C12_32  and  C13_34
REMARK   10  A    between atoms: C13_34  and  N10_35
REMARK   11  A    between atoms: C13_34  and  N12_39
REMARK   12  A    between atoms: N10_35  and  N11_36
REMARK   13  A    between atoms: N18_50  and  N19_51
ROOT
HETATM    1  C7  UNL     1      17.288  29.652  70.514  1.00  0.00     0.128 A
HETATM    2  N7  UNL     1      17.454  29.635  69.159  1.00  0.00    -0.285 N
ATOM      3  H7  UNL     1      18.030  28.974  68.636  1.00  0.00     0.188 HD
HETATM    4  N8  UNL     1      16.748  30.610  68.647  1.00  0.00    -0.281 N
ATOM      5  H8  UNL     1      16.685  30.831  67.653  1.00  0.00     0.188 HD
HETATM    6  C8  UNL     1      16.105  31.290  69.650  1.00  0.00     0.172 A
HETATM    7  N18 UNL     1      16.464  30.670  70.778  1.00  0.00    -0.229 N
ENDROOT
BRANCH   1   8
HETATM    8  C6  UNL     1      17.954  28.648  71.366  1.00  0.00     0.182 C
BRANCH   8   9
HETATM    9  C5  UNL     1      19.393  29.002  71.457  1.00  0.00     0.226 C
HETATM   10  N6  UNL     1      20.088  28.787  72.653  1.00  0.00    -0.343 N
ATOM     11  H6  UNL     1      19.551  28.402  73.430  1.00  0.00     0.164 HD
HETATM   12  O1  UNL     1      19.943  29.499  70.413  1.00  0.00    -0.273 OA
BRANCH  10  13
HETATM   13  C4  UNL     1      21.482  29.053  72.902  1.00  0.00     0.275 C
BRANCH  13  14
HETATM   14  N5  UNL     1      21.669  30.407  73.388  1.00  0.00    -0.254 N
HETATM   15  N4  UNL     1      22.454  30.870  74.310  1.00  0.00    -0.279 N
HETATM   16  C3  UNL     1      22.336  32.212  74.464  1.00  0.00     0.145 A
ATOM     17  H4  UNL     1      23.089  30.289  74.858  1.00  0.00     0.189 HD
HETATM   18  C2  UNL     1      21.384  32.618  73.548  1.00  0.00     0.140 A
HETATM   19  N2  UNL     1      20.702  33.636  73.030  1.00  0.00    -0.184 N
HETATM   20  C14 UNL     1      20.990  31.493  72.898  1.00  0.00     0.170 A
HETATM   21  C1  UNL     1      19.883  33.169  72.063  1.00  0.00     0.678 A
ATOM     22  H2  UNL     1      20.785  34.611  73.317  1.00  0.00     0.184 HD
HETATM   23  N20 UNL     1      20.080  31.847  72.001  1.00  0.00    -0.173 N
ATOM     24  H20 UNL     1      19.604  31.209  71.363  1.00  0.00     0.186 HD
BRANCH  16  25
HETATM   25  N3  UNL     1      22.936  33.016  75.258  1.00  0.00    -0.382 N
ATOM     26  H32 UNL     1      22.812  34.017  75.410  1.00  0.00     0.157 HD
ATOM     27  H31 UNL     1      23.678  32.726  75.895  1.00  0.00     0.157 HD
ENDBRANCH  16  25
BRANCH  21  28
HETATM   28  N1  UNL     1      19.058  33.866  71.318  1.00  0.00    -0.234 N
ATOM     29  H12 UNL     1      18.056  33.706  71.214  1.00  0.00     0.174 HD
ATOM     30  H11 UNL     1      19.287  34.666  70.728  1.00  0.00     0.174 HD
ENDBRANCH  21  28
ENDBRANCH  13  14
ENDBRANCH  10  13
ENDBRANCH   8   9
ENDBRANCH   1   8
BRANCH   7  31
HETATM   31  N19 UNL     1      16.055  31.010  72.082  1.00  0.00    -0.335 N
ATOM     32 2H19 UNL     1      16.425  30.624  72.950  1.00  0.00     0.177 HD
ATOM     33 1H19 UNL     1      15.325  31.697  72.275  1.00  0.00     0.177 HD
ENDBRANCH   7  31
BRANCH   6  34
HETATM   34  C9  UNL     1      15.218  32.428  69.471  1.00  0.00     0.110 A
HETATM   35  C10 UNL     1      14.691  32.686  68.194  1.00  0.00     0.124 A
HETATM   36  N9  UNL     1      13.863  33.716  67.970  1.00  0.00    -0.351 N
HETATM   37  C11 UNL     1      13.500  34.550  68.970  1.00  0.00     0.114 A
ATOM     38  H9  UNL     1      13.500  33.873  67.030  1.00  0.00     0.166 HD
HETATM   39  N16 UNL     1      14.017  34.283  70.181  1.00  0.00    -0.287 N
HETATM   40  N17 UNL     1      14.840  33.271  70.436  1.00  0.00    -0.294 N
ATOM     41  H16 UNL     1      13.761  34.898  70.954  1.00  0.00     0.188 HD
ATOM     42  H17 UNL     1      15.189  33.137  71.385  1.00  0.00     0.187 HD
BRANCH  37  43
HETATM   43  C12 UNL     1      12.593  35.698  68.768  1.00  0.00     0.171 C
HETATM   44  S1  UNL     1      12.892  36.442  67.146  1.00  0.00    -0.080 SA
BRANCH  43  45
HETATM   45  C13 UNL     1      11.166  35.443  69.082  1.00  0.00     0.264 C
BRANCH  45  46
HETATM   46  N10 UNL     1      10.932  35.186  70.492  1.00  0.00    -0.117 NA
BRANCH  46  47
HETATM   47  N11 UNL     1       9.766  34.511  70.767  1.00  0.00    -0.346 N
ATOM     48 2H11 UNL     1       8.893  35.001  70.957  1.00  0.00     0.172 HD
ATOM     49 1H11 UNL     1       9.852  33.495  70.763  1.00  0.00     0.172 HD
ENDBRANCH  46  47
ENDBRANCH  45  46
BRANCH  45  50
HETATM   50  N12 UNL     1      10.232  36.375  68.540  1.00  0.00    -0.179 N
HETATM   51  N13 UNL     1      10.174  37.627  68.124  1.00  0.00    -0.207 N
HETATM   52  N14 UNL     1       8.919  37.512  67.814  1.00  0.00    -0.211 N
ATOM     53  H13 UNL     1      10.851  38.388  68.069  1.00  0.00     0.211 HD
HETATM   54  N15 UNL     1       8.929  36.256  68.219  1.00  0.00    -0.207 N
ATOM     55  H14 UNL     1       8.214  38.135  67.421  1.00  0.00     0.211 HD
ATOM     56  H15 UNL     1       8.239  35.507  68.268  1.00  0.00     0.211 HD
ENDBRANCH  45  50
ENDBRANCH  43  45
ENDBRANCH  37  43
ENDBRANCH   6  34
TORSDOF 13
ENDMDL