MODEL 4
REMARK VINA RESULT: -11.690508448      1.406     10.844
REMARK  14 active torsions:
REMARK  status: ('A' for Active; 'I' for Inactive)
REMARK    1  A    between atoms: C2_4  and  C3_5
REMARK    2  A    between atoms: C3_5  and  O1_6
REMARK    3  A    between atoms: C3_5  and  C4_8
REMARK    4  A    between atoms: C4_8  and  O2_9
REMARK    5  A    between atoms: C4_8  and  N3_11
REMARK    6  A    between atoms: N3_11  and  C5_13
REMARK    7  A    between atoms: C6_18  and  C7_19
REMARK    8  A    between atoms: C7_19  and  O3_20
REMARK    9  A    between atoms: C7_19  and  C8_22
REMARK   10  A    between atoms: C8_22  and  O4_23
REMARK   11  A    between atoms: C8_22  and  C9_25
REMARK   12  A    between atoms: C9_25  and  N6_26
REMARK   13  A    between atoms: C11_32  and  N9_33
REMARK   14  A    between atoms: C12_38  and  N11_39
ROOT
HETATM    1  N1  UNL     1      11.625  38.152  66.731  1.00  0.00    -0.171 NA
HETATM    2  C1  UNL     1      11.526  37.337  67.547  1.00  0.00     0.192 C
HETATM    3  N2  UNL     1      11.412  36.339  68.517  1.00  0.00    -0.218 N
HETATM    4  C2  UNL     1      12.376  35.470  68.845  1.00  0.00     0.137 A
HETATM    5  N14 UNL     1      11.966  34.633  69.810  1.00  0.00    -0.328 N
ATOM      6  H14 UNL     1      12.514  33.882  70.231  1.00  0.00     0.168 HD
HETATM    7  C16 UNL     1      10.696  34.966  70.121  1.00  0.00     0.160 A
HETATM    8  N15 UNL     1       9.847  34.363  71.085  1.00  0.00    -0.079 NA
HETATM    9  C17 UNL     1      10.367  36.031  69.306  1.00  0.00     0.174 A
HETATM   10  N16 UNL     1       9.115  36.700  69.302  1.00  0.00    -0.078 NA
ENDROOT
BRANCH   4  11
HETATM   11  C3  UNL     1      13.762  35.402  68.236  1.00  0.00     0.261 C
BRANCH  11  12
HETATM   12  O1  UNL     1      13.838  34.224  67.583  1.00  0.00    -0.380 OA
ATOM     13  H1  UNL     1      14.041  34.428  66.678  1.00  0.00     0.211 HD
ENDBRANCH  11  12
BRANCH  11  14
HETATM   14  C4  UNL     1      14.681  35.774  69.274  1.00  0.00     0.154 C
BRANCH  14  15
HETATM   15  O2  UNL     1      14.888  37.085  69.307  1.00  0.00    -0.347 OA
ATOM     16  H2  UNL     1      15.436  37.340  70.040  1.00  0.00     0.219 HD
ENDBRANCH  14  15
BRANCH  14  17
HETATM   17  N3  UNL     1      15.379  35.081  70.223  1.00  0.00    -0.322 N
ATOM     18  H3  UNL     1      15.556  35.597  71.086  1.00  0.00     0.169 HD
BRANCH  17  19
HETATM   19  C5  UNL     1      15.886  33.786  70.202  1.00  0.00     0.146 A
HETATM   20  N4  UNL     1      15.183  32.656  70.112  1.00  0.00    -0.284 N
HETATM   21  N5  UNL     1      15.651  31.431  70.090  1.00  0.00    -0.300 N
ATOM     22  H4  UNL     1      14.169  32.755  70.053  1.00  0.00     0.188 HD
HETATM   23  C6  UNL     1      16.956  31.236  70.162  1.00  0.00     0.059 A
ATOM     24  H5  UNL     1      15.015  30.638  70.018  1.00  0.00     0.186 HD
HETATM   25  C14 UNL     1      17.779  32.328  70.259  1.00  0.00     0.059 A
HETATM   26  C15 UNL     1      17.284  33.609  70.282  1.00  0.00     0.093 A
HETATM   27  N13 UNL     1      18.143  34.731  70.382  1.00  0.00    -0.098 NA
BRANCH  23  28
HETATM   28  C7  UNL     1      17.527  29.874  70.141  1.00  0.00     0.199 C
BRANCH  28  29
HETATM   29  O3  UNL     1      16.577  28.932  69.783  1.00  0.00    -0.387 OA
ATOM     30  H3  UNL     1      16.847  28.438  69.018  1.00  0.00     0.210 HD
ENDBRANCH  28  29
BRANCH  28  31
HETATM   31  C8  UNL     1      18.099  29.499  71.513  1.00  0.00     0.172 C
BRANCH  31  32
HETATM   32  O4  UNL     1      17.639  28.209  71.769  1.00  0.00    -0.391 OA
ATOM     33  H4  UNL     1      17.529  27.804  70.917  1.00  0.00     0.210 HD
ENDBRANCH  31  32
BRANCH  31  34
HETATM   34  C9  UNL     1      19.604  29.529  71.356  1.00  0.00     0.187 C
BRANCH  34  35
HETATM   35  N6  UNL     1      20.220  30.450  72.261  1.00  0.00    -0.257 N
HETATM   36  N7  UNL     1      19.708  31.611  72.628  1.00  0.00    -0.238 N
HETATM   37  N8  UNL     1      20.509  32.223  73.464  1.00  0.00    -0.279 N
ATOM     38  H7  UNL     1      18.813  31.979  72.306  1.00  0.00     0.208 HD
HETATM   39  C10 UNL     1      21.586  31.426  73.647  1.00  0.00     0.140 A
ATOM     40  H8  UNL     1      20.349  33.132  73.897  1.00  0.00     0.189 HD
HETATM   41  C11 UNL     1      22.740  31.521  74.393  1.00  0.00     0.147 A
HETATM   42  C13 UNL     1      21.397  30.304  72.881  1.00  0.00     0.171 A
HETATM   43  N10 UNL     1      23.655  30.561  74.385  1.00  0.00    -0.175 N
HETATM   44  C12 UNL     1      23.423  29.487  73.620  1.00  0.00     0.679 A
ATOM     45  H10 UNL     1      24.506  30.638  74.942  1.00  0.00     0.186 HD
HETATM   46  N12 UNL     1      22.319  29.333  72.870  1.00  0.00    -0.173 N
ATOM     47  H12 UNL     1      22.186  28.496  72.303  1.00  0.00     0.186 HD
BRANCH  41  48
HETATM   48  N9  UNL     1      22.930  32.568  75.117  1.00  0.00    -0.383 N
ATOM     49  H92 UNL     1      22.439  32.657  76.006  1.00  0.00     0.157 HD
ATOM     50  H91 UNL     1      23.570  33.290  74.785  1.00  0.00     0.157 HD
ENDBRANCH  41  48
BRANCH  44  51
HETATM   51  N11 UNL     1      24.321  28.546  73.612  1.00  0.00    -0.234 N
ATOM     52 2H11 UNL     1      24.887  28.400  74.448  1.00  0.00     0.174 HD
ATOM     53 1H11 UNL     1      24.420  27.993  72.761  1.00  0.00     0.174 HD
ENDBRANCH  44  51
ENDBRANCH  34  35
ENDBRANCH  31  34
ENDBRANCH  28  31
ENDBRANCH  23  28
ENDBRANCH  17  19
ENDBRANCH  14  17
ENDBRANCH  11  14
ENDBRANCH   4  11
TORSDOF 14
ENDMDL