MODEL 2
REMARK VINA RESULT: -9.664233813      0.244      1.372
REMARK  14 active torsions:
REMARK  status: ('A' for Active; 'I' for Inactive)
REMARK    1  A    between atoms: O1_2  and  C2_3
REMARK    2  A    between atoms: C2_3  and  O2_4
REMARK    3  A    between atoms: O2_4  and  C3_5
REMARK    4  A    between atoms: C3_5  and  C4_7
REMARK    5  A    between atoms: C8_13  and  N2_14
REMARK    6  A    between atoms: N2_14  and  C9_16
REMARK    7  A    between atoms: C9_16  and  O4_17
REMARK    8  A    between atoms: C9_16  and  C10_19
REMARK    9  A    between atoms: N5_24  and  C11_25
REMARK   10  A    between atoms: C13_30  and  N8_31
REMARK   11  A    between atoms: C14_36  and  N10_37
REMARK   12  A    between atoms: N12_42  and  O5_43
REMARK   13  A    between atoms: C15_45  and  N13_46
REMARK   14  A    between atoms: C16_53  and  O6_54
ROOT
HETATM    1  N2  UNL     1      16.148  31.575  69.675  1.00  0.00    -0.356 N
ATOM      2  H2  UNL     1      15.216  31.172  69.776  1.00  0.00     0.162 HD
ENDROOT
BRANCH   1   3
HETATM    3  C8  UNL     1      17.251  30.941  70.269  1.00  0.00     0.066 A
HETATM    4  C4  UNL     1      17.510  29.587  70.227  1.00  0.00     0.135 A
HETATM    5  N1  UNL     1      18.604  29.053  70.854  1.00  0.00    -0.347 N
HETATM    6  C5  UNL     1      19.438  29.843  71.517  1.00  0.00     0.096 A
ATOM      7  H1  UNL     1      18.777  28.049  70.811  1.00  0.00     0.166 HD
HETATM    8  C6  UNL     1      19.249  31.204  71.605  1.00  0.00     0.090 A
HETATM    9  C16 UNL     1      20.660  29.300  72.215  1.00  0.00     0.376 C
HETATM   10  C7  UNL     1      18.167  31.736  70.985  1.00  0.00     0.065 A
HETATM   11  N12 UNL     1      20.196  31.962  72.340  1.00  0.00    -0.203 N
HETATM   12  C15 UNL     1      21.037  31.375  73.364  1.00  0.00     0.512 C
HETATM   13  N14 UNL     1      20.797  29.945  73.477  1.00  0.00     0.005 N
ATOM     14 2H14 UNL     1      21.523  29.498  74.037  1.00  0.00     0.285 HD
ATOM     15 1H14 UNL     1      19.988  29.758  74.070  1.00  0.00     0.285 HD
BRANCH   4  16
HETATM   16  C3  UNL     1      16.660  28.660  69.519  1.00  0.00     0.314 C
HETATM   17  O3  UNL     1      17.137  27.491  69.284  1.00  0.00    -0.257 OA
BRANCH  16  18
HETATM   18  O2  UNL     1      15.406  28.867  69.064  1.00  0.00    -0.290 OA
BRANCH  18  19
HETATM   19  C2  UNL     1      14.996  28.846  67.720  1.00  0.00     0.347 C
BRANCH  19  20
HETATM   20  O1  UNL     1      15.028  30.122  67.144  1.00  0.00    -0.371 OA
HETATM   21  C1  UNL     1      15.013  30.013  65.767  1.00  0.00     0.204 C
ENDBRANCH  19  20
ENDBRANCH  18  19
ENDBRANCH  16  18
ENDBRANCH   4  16
BRANCH  11  22
HETATM   22  O5  UNL     1      20.320  33.276  72.086  1.00  0.00    -0.284 OA
ATOM     23  H5  UNL     1      21.170  33.687  72.188  1.00  0.00     0.245 HD
ENDBRANCH  11  22
BRANCH  12  24
HETATM   24  N13 UNL     1      20.654  31.973  74.629  1.00  0.00    -0.030 N
ATOM     25 3H13 UNL     1      20.909  32.959  74.699  1.00  0.00     0.279 HD
ATOM     26 2H13 UNL     1      19.645  32.090  74.727  1.00  0.00     0.279 HD
ATOM     27 1H13 UNL     1      21.063  31.402  75.369  1.00  0.00     0.279 HD
ENDBRANCH  12  24
BRANCH   9  28
HETATM   28  O6  UNL     1      21.733  29.553  71.351  1.00  0.00    -0.365 OA
ATOM     29  H6  UNL     1      22.412  28.938  71.599  1.00  0.00     0.212 HD
ENDBRANCH   9  28
ENDBRANCH   1   3
BRANCH   1  30
HETATM   30  C9  UNL     1      16.327  32.797  68.918  1.00  0.00     0.290 C
BRANCH  30  31
HETATM   31  O4  UNL     1      16.239  32.542  67.548  1.00  0.00    -0.369 OA
ATOM     32  H4  UNL     1      16.125  33.352  67.065  1.00  0.00     0.212 HD
ENDBRANCH  30  31
BRANCH  30  33
HETATM   33  C10 UNL     1      15.338  33.835  69.284  1.00  0.00     0.163 A
HETATM   34  N3  UNL     1      15.424  34.781  70.249  1.00  0.00    -0.268 N
HETATM   35  N4  UNL     1      14.309  35.476  70.205  1.00  0.00    -0.219 N
ATOM     36  H3  UNL     1      16.205  34.926  70.889  1.00  0.00     0.190 HD
HETATM   37  N5  UNL     1      13.509  35.022  69.255  1.00  0.00    -0.174 N
ATOM     38  H4  UNL     1      14.091  36.260  70.820  1.00  0.00     0.210 HD
HETATM   39  N11 UNL     1      14.145  34.022  68.702  1.00  0.00    -0.261 N
ATOM     40  H11 UNL     1      13.783  33.461  67.931  1.00  0.00     0.190 HD
BRANCH  37  41
HETATM   41  C11 UNL     1      12.236  35.587  68.985  1.00  0.00     0.162 A
HETATM   42  C12 UNL     1      12.042  36.555  67.997  1.00  0.00     0.166 A
HETATM   43  N6  UNL     1      13.183  36.949  67.271  1.00  0.00    -0.079 NA
HETATM   44  N7  UNL     1      10.826  37.077  67.760  1.00  0.00    -0.177 N
HETATM   45  C13 UNL     1       9.758  36.678  68.472  1.00  0.00     0.678 A
ATOM     46  H7  UNL     1      10.713  37.783  67.033  1.00  0.00     0.185 HD
HETATM   47  N9  UNL     1       9.943  35.750  69.419  1.00  0.00    -0.175 N
HETATM   48  C14 UNL     1      11.127  35.198  69.698  1.00  0.00     0.148 A
ATOM     49  H9  UNL     1       9.132  35.446  69.959  1.00  0.00     0.186 HD
BRANCH  45  50
HETATM   50  N8  UNL     1       8.569  37.177  68.251  1.00  0.00    -0.234 N
ATOM     51  H82 UNL     1       8.413  37.823  67.478  1.00  0.00     0.174 HD
ATOM     52  H81 UNL     1       7.774  36.933  68.842  1.00  0.00     0.174 HD
ENDBRANCH  45  50
BRANCH  48  53
HETATM   53  N10 UNL     1      11.246  34.293  70.638  1.00  0.00    -0.383 N
ATOM     54 2H10 UNL     1      12.164  33.994  70.968  1.00  0.00     0.157 HD
ATOM     55 1H10 UNL     1      10.408  33.879  71.049  1.00  0.00     0.157 HD
ENDBRANCH  48  53
ENDBRANCH  37  41
ENDBRANCH  30  33
ENDBRANCH   1  30
TORSDOF 14
ENDMDL