MODEL 5
REMARK VINA RESULT: -7.885963797      2.689      7.972
REMARK  13 active torsions:
REMARK  status: ('A' for Active; 'I' for Inactive)
REMARK    1  A    between atoms: N1_1  and  C1_4
REMARK    2  A    between atoms: C4_11  and  N5_12
REMARK    3  A    between atoms: C6_17  and  C7_18
REMARK    4  A    between atoms: C8_21  and  N9_22
REMARK    5  A    between atoms: C10_27  and  N12_28
REMARK    6  A    between atoms: C13_34  and  N13_35
REMARK    7  A    between atoms: N13_35  and  O1_37
REMARK    8  A    between atoms: O1_37  and  C14_38
REMARK    9  A    between atoms: C14_38  and  C15_39
REMARK   10  A    between atoms: C15_39  and  O2_40
REMARK   11  A    between atoms: C15_39  and  C16_42
REMARK   12  A    between atoms: C16_42  and  O3_43
REMARK   13  A    between atoms: N14_46  and  O4_48
ROOT
HETATM    1  C7  UNL     1      14.308  34.200  69.782  1.00  0.00     0.070 A
HETATM    2  N8  UNL     1      13.083  34.785  70.034  1.00  0.00    -0.342 N
ATOM      3  H8  UNL     1      12.881  35.150  70.965  1.00  0.00     0.167 HD
HETATM    4  C8  UNL     1      12.158  34.880  69.073  1.00  0.00     0.113 A
HETATM    5  C11 UNL     1      12.444  34.382  67.819  1.00  0.00     0.051 A
HETATM    6  C12 UNL     1      13.641  33.789  67.510  1.00  0.00     0.037 A
HETATM    7  C13 UNL     1      14.603  33.700  68.547  1.00  0.00     0.079 A
ENDROOT
BRANCH   1   8
HETATM    8  C6  UNL     1      15.319  34.201  70.855  1.00  0.00     0.207 A
HETATM    9  N7  UNL     1      16.557  34.735  70.386  1.00  0.00    -0.347 N
HETATM   10  C5  UNL     1      17.516  33.891  70.455  1.00  0.00     0.199 A
ATOM     11  H7  UNL     1      16.666  35.686  70.034  1.00  0.00     0.163 HD
HETATM   12  N5  UNL     1      17.059  32.655  70.985  1.00  0.00    -0.254 N
HETATM   13  N6  UNL     1      18.893  34.097  70.069  1.00  0.00    -0.063 NA
HETATM   14  C17 UNL     1      15.679  32.795  71.253  1.00  0.00     0.141 A
HETATM   15  N14 UNL     1      14.881  31.910  71.740  1.00  0.00    -0.254 N
ATOM     16  H14 UNL     1      13.896  32.123  71.893  1.00  0.00     0.195 HD
BRANCH  12  17
HETATM   17  C4  UNL     1      17.873  31.480  71.207  1.00  0.00     0.159 A
HETATM   18  C3  UNL     1      17.541  30.331  70.535  1.00  0.00     0.133 A
HETATM   19  C2  UNL     1      18.284  29.156  70.698  1.00  0.00     0.159 A
HETATM   20  N4  UNL     1      16.432  30.334  69.663  1.00  0.00    -0.095 NA
HETATM   21  N2  UNL     1      19.330  29.180  71.529  1.00  0.00    -0.177 N
HETATM   22  N3  UNL     1      17.938  27.979  70.004  1.00  0.00    -0.080 NA
HETATM   23  C1  UNL     1      19.660  30.308  72.192  1.00  0.00     0.678 A
ATOM     24  H2  UNL     1      19.886  28.335  71.664  1.00  0.00     0.185 HD
HETATM   25  N15 UNL     1      18.930  31.450  72.027  1.00  0.00    -0.174 N
ATOM     26  H15 UNL     1      19.193  32.294  72.536  1.00  0.00     0.186 HD
BRANCH  23  27
HETATM   27  N1  UNL     1      20.672  30.354  73.003  1.00  0.00    -0.234 N
ATOM     28  H12 UNL     1      20.477  30.334  74.004  1.00  0.00     0.174 HD
ATOM     29  H11 UNL     1      21.633  30.407  72.662  1.00  0.00     0.174 HD
ENDBRANCH  23  27
ENDBRANCH  12  17
BRANCH  15  30
HETATM   30  O4  UNL     1      15.389  30.672  72.048  1.00  0.00    -0.288 OA
ATOM     31  H4  UNL     1      14.789  29.938  72.098  1.00  0.00     0.244 HD
ENDBRANCH  15  30
ENDBRANCH   1   8
BRANCH   7  32
HETATM   32  N13 UNL     1      15.796  33.004  68.221  1.00  0.00    -0.265 N
ATOM     33  H13 UNL     1      16.609  33.214  68.800  1.00  0.00     0.194 HD
BRANCH  32  34
HETATM   34  O1  UNL     1      15.984  32.110  67.251  1.00  0.00    -0.277 OA
BRANCH  34  35
HETATM   35  C14 UNL     1      15.626  30.855  67.726  1.00  0.00     0.235 C
BRANCH  35  36
HETATM   36  C15 UNL     1      14.759  30.155  66.722  1.00  0.00     0.167 C
BRANCH  36  37
HETATM   37  O2  UNL     1      14.984  30.624  65.436  1.00  0.00    -0.391 OA
ATOM     38  H2  UNL     1      14.456  30.161  64.796  1.00  0.00     0.210 HD
ENDBRANCH  36  37
BRANCH  36  39
HETATM   39  C16 UNL     1      14.905  28.655  66.835  1.00  0.00     0.198 C
BRANCH  39  40
HETATM   40  O3  UNL     1      15.174  28.277  68.149  1.00  0.00    -0.398 OA
ATOM     41  H3  UNL     1      15.317  29.038  68.701  1.00  0.00     0.209 HD
ENDBRANCH  39  40
ENDBRANCH  36  39
ENDBRANCH  35  36
ENDBRANCH  34  35
ENDBRANCH  32  34
ENDBRANCH   7  32
BRANCH   4  42
HETATM   42  N9  UNL     1      10.893  35.481  69.307  1.00  0.00    -0.261 N
HETATM   43  C9  UNL     1       9.915  35.396  70.337  1.00  0.00     0.198 A
HETATM   44  N10 UNL     1       9.840  34.656  71.561  1.00  0.00    -0.063 NA
HETATM   45  N11 UNL     1       9.065  36.226  69.825  1.00  0.00    -0.320 N
HETATM   46  C10 UNL     1       9.983  36.398  68.717  1.00  0.00     0.399 A
ATOM     47  H11 UNL     1       8.151  36.597  70.087  1.00  0.00     0.166 HD
BRANCH  46  48
HETATM   48  N12 UNL     1      10.391  37.776  68.626  1.00  0.00    -0.040 N
ATOM     49 3H12 UNL     1      11.379  37.819  68.375  1.00  0.00     0.279 HD
ATOM     50 2H12 UNL     1       9.966  38.200  67.801  1.00  0.00     0.279 HD
ATOM     51 1H12 UNL     1      10.222  38.371  69.436  1.00  0.00     0.279 HD
ENDBRANCH  46  48
ENDBRANCH   4  42
TORSDOF 13
ENDMDL