MODEL 3
REMARK VINA RESULT: -8.586894224      2.375      5.108
REMARK  14 active torsions:
REMARK  status: ('A' for Active; 'I' for Inactive)
REMARK    1  A    between atoms: N1_1  and  C1_5
REMARK    2  A    between atoms: C2_7  and  O2_8
REMARK    3  A    between atoms: O2_8  and  C3_9
REMARK    4  A    between atoms: C4_10  and  S1_11
REMARK    5  A    between atoms: S1_11  and  C5_12
REMARK    6  A    between atoms: C5_12  and  C6_13
REMARK    7  A    between atoms: C7_17  and  O3_18
REMARK    8  A    between atoms: C9_24  and  C10_25
REMARK    9  A    between atoms: C10_25  and  C11_26
REMARK   10  A    between atoms: C13_31  and  C14_32
REMARK   11  A    between atoms: C14_32  and  O8_33
REMARK   12  A    between atoms: C14_32  and  O9_35
REMARK   13  A    between atoms: C17_43  and  N6_44
REMARK   14  A    between atoms: C17_43  and  O11_48
ROOT
HETATM    1  C3  UNL     1      16.935  29.756  70.745  1.00  0.00     0.164 A
HETATM    2  C4  UNL     1      16.845  30.946  71.461  1.00  0.00     0.150 A
HETATM    3  O7  UNL     1      17.987  31.417  71.890  1.00  0.00    -0.300 OA
HETATM    4  C13 UNL     1      19.158  30.865  71.697  1.00  0.00     0.112 A
HETATM    5  C15 UNL     1      19.310  29.685  70.994  1.00  0.00     0.095 A
HETATM    6  C16 UNL     1      18.138  29.131  70.511  1.00  0.00     0.211 A
HETATM    7  O10 UNL     1      18.217  28.049  69.860  1.00  0.00    -0.285 OA
ENDROOT
BRANCH   2   8
HETATM    8  S1  UNL     1      15.249  31.625  71.679  1.00  0.00    -0.100 SA
BRANCH   8   9
HETATM    9  C5  UNL     1      14.841  33.119  70.832  1.00  0.00     0.119 C
BRANCH   9  10
HETATM   10  C6  UNL     1      16.008  33.728  70.142  1.00  0.00     0.236 C
HETATM   11  N2  UNL     1      16.893  34.359  71.108  1.00  0.00    -0.034 N
HETATM   12  C7  UNL     1      17.799  35.152  70.249  1.00  0.00     0.373 C
ATOM     13  H22 UNL     1      16.420  34.893  71.837  1.00  0.00     0.281 HD
ATOM     14  H21 UNL     1      17.362  33.714  71.744  1.00  0.00     0.281 HD
HETATM   15  C8  UNL     1      16.786  35.693  69.271  1.00  0.00     0.099 A
HETATM   16  N3  UNL     1      16.500  36.692  68.419  1.00  0.00    -0.260 N
HETATM   17  C12 UNL     1      15.698  34.833  69.206  1.00  0.00     0.034 A
HETATM   18  O4  UNL     1      15.343  36.477  67.872  1.00  0.00    -0.241 OA
ATOM     19  H3  UNL     1      17.100  37.495  68.231  1.00  0.00     0.194 HD
HETATM   20  C9  UNL     1      14.807  35.366  68.308  1.00  0.00     0.097 A
BRANCH  12  21
HETATM   21  O3  UNL     1      18.650  34.238  69.632  1.00  0.00    -0.365 OA
ATOM     22  H3  UNL     1      18.578  34.396  68.698  1.00  0.00     0.212 HD
ENDBRANCH  12  21
BRANCH  20  23
HETATM   23  C10 UNL     1      13.473  34.783  67.908  1.00  0.00     0.181 C
BRANCH  23  24
HETATM   24  C11 UNL     1      12.427  35.462  68.685  1.00  0.00     0.178 C
HETATM   25  O5  UNL     1      11.719  36.340  68.158  1.00  0.00    -0.648 OA
HETATM   26  O6  UNL     1      12.224  35.130  70.006  1.00  0.00    -0.648 OA
ENDBRANCH  23  24
ENDBRANCH  20  23
ENDBRANCH   9  10
ENDBRANCH   8   9
ENDBRANCH   2   8
BRANCH   1  27
HETATM   27  O2  UNL     1      15.802  29.161  70.245  1.00  0.00    -0.294 OA
BRANCH  27  28
HETATM   28  C2  UNL     1      15.268  29.629  69.018  1.00  0.00     0.391 C
HETATM   29  O1  UNL     1      15.384  28.646  68.024  1.00  0.00    -0.304 OA
HETATM   30  C1  UNL     1      14.588  29.073  66.960  1.00  0.00     0.405 C
HETATM   31  C17 UNL     1      15.083  30.401  66.422  1.00  0.00     0.367 C
HETATM   32  N5  UNL     1      16.172  30.916  67.221  1.00  0.00    -0.070 NA
HETATM   33  N4  UNL     1      15.939  30.801  68.589  1.00  0.00    -0.284 N
ATOM     34  H4  UNL     1      16.234  31.521  69.247  1.00  0.00     0.181 HD
BRANCH  30  35
HETATM   35  N1  UNL     1      14.603  28.028  65.957  1.00  0.00    -0.046 N
ATOM     36  H13 UNL     1      14.568  27.092  66.358  1.00  0.00     0.277 HD
ATOM     37  H12 UNL     1      13.735  27.978  65.423  1.00  0.00     0.277 HD
ATOM     38  H11 UNL     1      15.422  28.179  65.368  1.00  0.00     0.277 HD
ENDBRANCH  30  35
BRANCH  31  39
HETATM   39  N6  UNL     1      13.979  31.334  66.347  1.00  0.00    -0.025 N
ATOM     40  H63 UNL     1      13.101  30.916  66.653  1.00  0.00     0.280 HD
ATOM     41  H62 UNL     1      14.045  32.067  67.053  1.00  0.00     0.280 HD
ATOM     42  H61 UNL     1      13.918  31.713  65.402  1.00  0.00     0.280 HD
ENDBRANCH  31  39
BRANCH  31  43
HETATM   43  O11 UNL     1      15.563  30.180  65.138  1.00  0.00    -0.348 OA
ATOM     44  H11 UNL     1      15.733  31.028  64.746  1.00  0.00     0.214 HD
ENDBRANCH  31  43
ENDBRANCH  27  28
ENDBRANCH   1  27
BRANCH   4  45
HETATM   45  C14 UNL     1      20.402  31.514  72.247  1.00  0.00     0.312 C
BRANCH  45  46
HETATM   46  O8  UNL     1      20.585  31.020  73.521  1.00  0.00    -0.365 OA
ATOM     47  H8  UNL     1      21.490  30.738  73.582  1.00  0.00     0.213 HD
ENDBRANCH  45  46
BRANCH  45  48
HETATM   48  O9  UNL     1      20.311  32.880  72.166  1.00  0.00    -0.365 OA
ATOM     49  H9  UNL     1      20.347  33.271  73.031  1.00  0.00     0.213 HD
ENDBRANCH  45  48
ENDBRANCH   4  45
TORSDOF 14
ENDMDL