MODEL 5
REMARK VINA RESULT: -6.198836760      1.165      1.637
REMARK  9 active torsions:
REMARK  status: ('A' for Active; 'I' for Inactive)
REMARK    1  A    between atoms: O1_2  and  C2_3
REMARK       I    between atoms: C2_3  and  N1_5
REMARK    2  A    between atoms: N1_5  and  C3_7
REMARK    3  A    between atoms: C3_7  and  C5_9
REMARK    4  A    between atoms: C5_9  and  N2_10
REMARK    5  A    between atoms: N2_10  and  C8_14
REMARK    6  A    between atoms: C6_11  and  C7_12
REMARK    7  A    between atoms: N3_17  and  C11_18
REMARK    8  A    between atoms: C11_18  and  C12_19
REMARK    9  A    between atoms: C14_24  and  N5_25
ROOT
HETATM    1  C8  UNL     1     -19.490  54.124  19.203  1.00  0.00     0.090 C
HETATM    2  C9  UNL     1     -19.201  53.627  17.813  1.00  0.00     0.040 C
HETATM    3  C10 UNL     1     -20.029  54.426  16.871  1.00  0.00     0.097 C
HETATM    4  N3  UNL     1     -19.785  55.876  17.002  1.00  0.00    -0.291 NA
HETATM    5  C16 UNL     1     -18.722  56.136  17.884  1.00  0.00     0.097 C
HETATM    6  C17 UNL     1     -18.873  55.497  19.280  1.00  0.00     0.040 C
ENDROOT
BRANCH   4   7
HETATM    7  C11 UNL     1     -19.544  56.286  15.654  1.00  0.00     0.078 C
BRANCH   7   8
HETATM    8  C12 UNL     1     -20.351  57.299  15.002  1.00  0.00     0.058 A
HETATM    9  C13 UNL     1     -21.362  56.824  14.154  1.00  0.00     0.134 A
HETATM   10 CL2  UNL     1     -21.597  55.066  14.231  1.00  0.00    -0.063 Cl
HETATM   11  N4  UNL     1     -22.082  57.574  13.386  1.00  0.00    -0.180 N
HETATM   12  C14 UNL     1     -21.890  58.929  13.345  1.00  0.00     0.678 A
ATOM     13  H4  UNL     1     -22.803  57.151  12.801  1.00  0.00     0.185 HD
HETATM   14  N6  UNL     1     -20.933  59.411  14.145  1.00  0.00    -0.176 N
HETATM   15  C15 UNL     1     -20.155  58.642  14.973  1.00  0.00     0.129 A
ATOM     16  H6  UNL     1     -20.771  60.417  14.139  1.00  0.00     0.186 HD
HETATM   17  N7  UNL     1     -19.230  59.165  15.700  1.00  0.00    -0.384 N
ATOM     18  H72 UNL     1     -18.651  58.593  16.315  1.00  0.00     0.157 HD
ATOM     19  H71 UNL     1     -19.083  60.174  15.679  1.00  0.00     0.157 HD
BRANCH  12  20
HETATM   20  N5  UNL     1     -22.545  59.656  12.609  1.00  0.00    -0.234 N
ATOM     21  H52 UNL     1     -22.624  59.479  11.607  1.00  0.00     0.174 HD
ATOM     22  H51 UNL     1     -23.054  60.467  12.962  1.00  0.00     0.174 HD
ENDBRANCH  12  20
ENDBRANCH   7   8
ENDBRANCH   4   7
BRANCH   1  23
HETATM   23  N2  UNL     1     -19.279  53.237  20.283  1.00  0.00    -0.366 N
HETATM   24  C6  UNL     1     -19.661  53.493  21.559  1.00  0.00     0.078 C
BRANCH  23  25
HETATM   25  C5  UNL     1     -19.098  51.928  19.812  1.00  0.00     0.088 C
BRANCH  25  26
HETATM   26  C3  UNL     1     -18.327  51.001  20.664  1.00  0.00     0.121 C
HETATM   27  C4  UNL     1     -19.033  49.673  21.008  1.00  0.00     0.038 C
BRANCH  26  28
HETATM   28  N1  UNL     1     -17.145  50.602  19.896  1.00  0.00    -0.328 N
HETATM   29  C2  UNL     1     -15.845  50.662  20.485  1.00  0.00     0.360 C
HETATM   30  O2  UNL     1     -15.670  51.037  21.676  1.00  0.00    -0.239 OA
ATOM     31  H1  UNL     1     -17.251  50.278  18.935  1.00  0.00     0.165 HD
BRANCH  29  32
HETATM   32  O1  UNL     1     -14.761  50.302  19.723  1.00  0.00    -0.309 OA
HETATM   33  C1  UNL     1     -13.412  50.628  20.013  1.00  0.00     0.215 C
ENDBRANCH  29  32
ENDBRANCH  26  28
ENDBRANCH  25  26
ENDBRANCH  23  25
BRANCH  24  34
HETATM   34  C7  UNL     1     -19.984  54.861  22.060  1.00  0.00     0.159 C
HETATM   35 CL1  UNL     1     -21.775  55.030  21.879  1.00  0.00    -0.125 Cl
ENDBRANCH  24  34
ENDBRANCH   1  23
TORSDOF 9
ENDMDL