MODEL 1
REMARK VINA RESULT: -6.978182039      0.000      0.000
REMARK  10 active torsions:
REMARK  status: ('A' for Active; 'I' for Inactive)
REMARK    1  A    between atoms: C3_6  and  N3_7
REMARK    2  A    between atoms: N3_7  and  C4_9
REMARK    3  A    between atoms: C4_9  and  C5_10
REMARK    4  A    between atoms: C8_21  and  N7_22
REMARK    5  A    between atoms: N7_22  and  C9_24
REMARK    6  A    between atoms: C9_24  and  C10_25
REMARK    7  A    between atoms: C10_25  and  C11_26
REMARK    8  A    between atoms: C11_26  and  N8_27
REMARK    9  A    between atoms: N8_27  and  C12_29
REMARK   10  A    between atoms: C12_29  and  C13_30
ROOT
HETATM    1  N1  UNL     1     -21.834  52.624  15.681  1.00  0.00    -0.190 NA
HETATM    2  C1  UNL     1     -21.156  53.459  16.096  1.00  0.00     0.120 C
HETATM    3  C2  UNL     1     -20.320  54.523  16.623  1.00  0.00     0.155 A
HETATM    4  N2  UNL     1     -20.032  55.611  15.914  1.00  0.00    -0.180 N
ATOM      5  H2  UNL     1     -20.421  55.675  14.974  1.00  0.00     0.185 HD
HETATM    6  C3  UNL     1     -19.276  56.619  16.333  1.00  0.00     0.681 A
HETATM    7  N6  UNL     1     -18.760  56.523  17.592  1.00  0.00    -0.175 N
ATOM      8  H6  UNL     1     -18.176  57.284  17.939  1.00  0.00     0.186 HD
HETATM    9  C8  UNL     1     -18.986  55.474  18.391  1.00  0.00     0.141 A
HETATM   10  C18 UNL     1     -19.785  54.437  17.910  1.00  0.00     0.116 A
HETATM   11 CL1  UNL     1     -20.119  53.035  18.904  1.00  0.00    -0.077 Cl
ENDROOT
BRANCH   6  12
HETATM   12  N3  UNL     1     -18.982  57.663  15.682  1.00  0.00    -0.220 N
ATOM     13  H3  UNL     1     -18.127  57.603  15.129  1.00  0.00     0.178 HD
BRANCH  12  14
HETATM   14  C4  UNL     1     -19.665  58.906  15.606  1.00  0.00     0.204 C
BRANCH  14  15
HETATM   15  C5  UNL     1     -20.605  58.919  14.428  1.00  0.00     0.090 A
HETATM   16  C6  UNL     1     -20.346  58.301  13.217  1.00  0.00     0.126 A
HETATM   17  N4  UNL     1     -21.418  58.543  12.446  1.00  0.00    -0.330 N
HETATM   18  C7  UNL     1     -22.316  59.289  13.152  1.00  0.00     0.222 A
ATOM     19  H4  UNL     1     -21.541  58.222  11.486  1.00  0.00     0.168 HD
HETATM   20  N5  UNL     1     -23.448  59.681  12.678  1.00  0.00    -0.365 N
HETATM   21  O1  UNL     1     -21.779  59.477  14.313  1.00  0.00    -0.281 OA
ATOM     22  H52 UNL     1     -23.873  59.533  11.762  1.00  0.00     0.159 HD
ATOM     23  H51 UNL     1     -24.120  60.239  13.206  1.00  0.00     0.159 HD
ENDBRANCH  14  15
ENDBRANCH  12  14
ENDBRANCH   6  12
BRANCH   9  24
HETATM   24  N7  UNL     1     -18.522  55.333  19.581  1.00  0.00    -0.374 N
ATOM     25  H7  UNL     1     -18.913  54.573  20.138  1.00  0.00     0.161 HD
BRANCH  24  26
HETATM   26  C9  UNL     1     -17.513  56.135  20.203  1.00  0.00     0.123 C
BRANCH  26  27
HETATM   27  C10 UNL     1     -18.221  57.111  21.127  1.00  0.00     0.039 C
BRANCH  27  28
HETATM   28  C11 UNL     1     -17.174  57.757  22.069  1.00  0.00     0.120 C
BRANCH  28  29
HETATM   29  N8  UNL     1     -16.594  58.809  21.341  1.00  0.00    -0.402 N
ATOM     30  H8  UNL     1     -17.207  59.460  20.850  1.00  0.00     0.158 HD
BRANCH  29  31
HETATM   31  C12 UNL     1     -15.215  59.003  21.260  1.00  0.00     0.061 C
BRANCH  31  32
HETATM   32  C13 UNL     1     -14.512  58.266  20.182  1.00  0.00     0.049 C
HETATM   33  C14 UNL     1     -13.835  56.998  20.524  1.00  0.00     0.013 C
HETATM   34  C15 UNL     1     -12.463  56.864  19.880  1.00  0.00     0.028 C
HETATM   35  C16 UNL     1     -12.458  57.318  18.447  1.00  0.00     0.232 C
HETATM   36  N9  UNL     1     -13.204  58.508  18.210  1.00  0.00    -0.074 N
HETATM   37  C17 UNL     1     -13.487  59.174  19.473  1.00  0.00     0.242 C
ATOM     38  H92 UNL     1     -12.738  59.126  17.546  1.00  0.00     0.277 HD
ATOM     39  H91 UNL     1     -14.053  58.328  17.674  1.00  0.00     0.277 HD
ENDBRANCH  31  32
ENDBRANCH  29  31
ENDBRANCH  28  29
ENDBRANCH  27  28
ENDBRANCH  26  27
ENDBRANCH  24  26
ENDBRANCH   9  24
TORSDOF 10
ENDMDL