MODEL 2
REMARK VINA RESULT: -6.577964222      6.245      8.814
REMARK  12 active torsions:
REMARK  status: ('A' for Active; 'I' for Inactive)
REMARK    1  A    between atoms: C2_5  and  C3_6
REMARK    2  A    between atoms: C3_6  and  C4_7
REMARK    3  A    between atoms: C4_7  and  C5_8
REMARK    4  A    between atoms: C5_8  and  C6_9
REMARK    5  A    between atoms: C6_9  and  C7_10
REMARK    6  A    between atoms: C7_10  and  C8_11
REMARK    7  A    between atoms: C10_14  and  N3_15
REMARK    8  A    between atoms: N3_15  and  C11_17
REMARK    9  A    between atoms: C12_19  and  C13_20
REMARK   10  A    between atoms: C13_20  and  O2_21
REMARK   11  A    between atoms: C14_23  and  O3_24
REMARK   12  A    between atoms: C15_26  and  O4_27
ROOT
HETATM    1  N1  UNL     1     -20.265  51.448  20.248  1.00  0.00    -0.081 NA
HETATM    2  C1  UNL     1     -19.842  52.564  19.476  1.00  0.00     0.143 A
HETATM    3  N2  UNL     1     -20.162  52.712  18.181  1.00  0.00    -0.347 N
ATOM      4  H2  UNL     1     -20.731  51.995  17.730  1.00  0.00     0.167 HD
HETATM    5  C2  UNL     1     -19.759  53.767  17.458  1.00  0.00     0.012 A
HETATM    6  C9  UNL     1     -18.995  54.751  18.015  1.00  0.00     0.056 A
HETATM    7  C10 UNL     1     -18.610  54.677  19.379  1.00  0.00     0.059 A
HETATM    8  C16 UNL     1     -19.057  53.571  20.054  1.00  0.00     0.114 A
HETATM    9  N4  UNL     1     -18.748  53.363  21.436  1.00  0.00    -0.096 NA
ENDROOT
BRANCH   7  10
HETATM   10  N3  UNL     1     -17.908  55.596  19.864  1.00  0.00    -0.360 N
ATOM     11  H3  UNL     1     -17.005  55.252  20.192  1.00  0.00     0.162 HD
BRANCH  10  12
HETATM   12  C11 UNL     1     -18.046  56.972  20.069  1.00  0.00     0.253 C
HETATM   13  O1  UNL     1     -16.893  57.594  19.533  1.00  0.00    -0.354 OA
HETATM   14  C12 UNL     1     -15.997  57.526  20.595  1.00  0.00     0.179 C
HETATM   15  C14 UNL     1     -16.848  58.224  21.670  1.00  0.00     0.182 C
HETATM   16  C15 UNL     1     -18.116  57.384  21.525  1.00  0.00     0.198 C
BRANCH  14  17
HETATM   17  C13 UNL     1     -14.733  58.294  20.332  1.00  0.00     0.198 C
BRANCH  17  18
HETATM   18  O2  UNL     1     -14.437  58.418  18.998  1.00  0.00    -0.398 OA
ATOM     19  H2  UNL     1     -13.722  57.859  18.715  1.00  0.00     0.209 HD
ENDBRANCH  17  18
ENDBRANCH  14  17
BRANCH  15  20
HETATM   20  O3  UNL     1     -17.160  59.517  21.272  1.00  0.00    -0.390 OA
ATOM     21  H3  UNL     1     -18.012  59.536  20.853  1.00  0.00     0.210 HD
ENDBRANCH  15  20
BRANCH  16  22
HETATM   22  O4  UNL     1     -17.954  56.215  22.288  1.00  0.00    -0.389 OA
ATOM     23  H4  UNL     1     -17.125  55.829  22.030  1.00  0.00     0.210 HD
ENDBRANCH  16  22
ENDBRANCH  10  12
ENDBRANCH   7  10
BRANCH   5  24
HETATM   24  C3  UNL     1     -20.157  53.858  16.022  1.00  0.00     0.057 C
BRANCH  24  25
HETATM   25  C4  UNL     1     -20.485  55.269  15.642  1.00  0.00     0.006 C
BRANCH  25  26
HETATM   26  C5  UNL     1     -21.564  55.329  14.613  1.00  0.00     0.000 C
BRANCH  26  27
HETATM   27  C6  UNL     1     -21.598  56.616  13.826  1.00  0.00     0.001 C
BRANCH  27  28
HETATM   28  C7  UNL     1     -20.501  57.514  14.356  1.00  0.00     0.011 C
BRANCH  28  29
HETATM   29  C8  UNL     1     -20.984  58.970  14.388  1.00  0.00     0.085 C
HETATM   30 BR1  UNL     1     -22.438  59.221  13.158  1.00  0.00    -0.097 Br
ENDBRANCH  28  29
ENDBRANCH  27  28
ENDBRANCH  26  27
ENDBRANCH  25  26
ENDBRANCH  24  25
ENDBRANCH   5  24
TORSDOF 12
ENDMDL