MODEL 2
REMARK VINA RESULT: -6.778495075      2.831      4.211
REMARK  10 active torsions:
REMARK  status: ('A' for Active; 'I' for Inactive)
REMARK    1  A    between atoms: O1_2  and  C2_3
REMARK    2  A    between atoms: C5_9  and  C6_10
REMARK    3  A    between atoms: C6_10  and  N2_11
REMARK    4  A    between atoms: N2_11  and  C7_13
REMARK    5  A    between atoms: C8_16  and  N4_17
REMARK    6  A    between atoms: C9_22  and  C10_23
REMARK    7  A    between atoms: C12_27  and  S1_28
REMARK    8  A    between atoms: S1_28  and  C13_29
REMARK    9  A    between atoms: C13_29  and  C14_30
REMARK   10  A    between atoms: C14_30  and  N7_31
ROOT
HETATM    1  C7  UNL     1     -24.735  48.797  14.287  1.00  0.00     0.158 A
HETATM    2  N3  UNL     1     -25.126  48.010  15.308  1.00  0.00    -0.174 N
ATOM      3  H3  UNL     1     -25.547  47.108  15.086  1.00  0.00     0.186 HD
HETATM    4  C8  UNL     1     -24.994  48.347  16.598  1.00  0.00     0.678 A
HETATM    5  N5  UNL     1     -24.447  49.527  16.928  1.00  0.00    -0.186 N
ATOM      6  H5  UNL     1     -24.343  49.790  17.907  1.00  0.00     0.184 HD
HETATM    7  C9  UNL     1     -24.032  50.368  15.946  1.00  0.00     0.119 A
HETATM    8  C16 UNL     1     -24.166  50.024  14.619  1.00  0.00     0.190 A
HETATM    9  F2  UNL     1     -23.754  50.858  13.650  1.00  0.00    -0.200 F
ENDROOT
BRANCH   7  10
HETATM   10  C10 UNL     1     -23.436  51.656  16.335  1.00  0.00     0.080 A
HETATM   11  C11 UNL     1     -23.739  52.431  17.424  1.00  0.00     0.122 A
HETATM   12  N6  UNL     1     -22.957  53.548  17.416  1.00  0.00    -0.344 N
HETATM   13  C12 UNL     1     -22.187  53.454  16.331  1.00  0.00     0.144 A
ATOM     14  H6  UNL     1     -22.961  54.303  18.102  1.00  0.00     0.167 HD
HETATM   15  N10 UNL     1     -22.474  52.309  15.675  1.00  0.00    -0.334 N
ATOM     16  H10 UNL     1     -22.029  51.994  14.813  1.00  0.00     0.168 HD
BRANCH  13  17
HETATM   17  S1  UNL     1     -20.960  54.627  15.780  1.00  0.00    -0.092 SA
BRANCH  17  18
HETATM   18  C13 UNL     1     -21.523  55.640  14.411  1.00  0.00     0.102 C
BRANCH  18  19
HETATM   19  C14 UNL     1     -20.826  56.974  14.386  1.00  0.00     0.132 C
BRANCH  19  20
HETATM   20  N7  UNL     1     -21.565  57.955  13.609  1.00  0.00    -0.366 N
HETATM   21  C15 UNL     1     -20.992  58.701  12.725  1.00  0.00     0.196 C
HETATM   22  N8  UNL     1     -19.615  58.602  12.465  1.00  0.00    -0.067 NA
HETATM   23  N9  UNL     1     -21.778  59.629  12.012  1.00  0.00    -0.067 NA
ATOM     24  H7  UNL     1     -22.567  58.057  13.768  1.00  0.00     0.161 HD
ENDBRANCH  19  20
ENDBRANCH  18  19
ENDBRANCH  17  18
ENDBRANCH  13  17
ENDBRANCH   7  10
BRANCH   4  25
HETATM   25  N4  UNL     1     -25.386  47.556  17.533  1.00  0.00    -0.234 N
ATOM     26  H42 UNL     1     -24.696  46.985  18.022  1.00  0.00     0.174 HD
ATOM     27  H41 UNL     1     -26.371  47.494  17.791  1.00  0.00     0.174 HD
ENDBRANCH   4  25
BRANCH   1  28
HETATM   28  N2  UNL     1     -24.868  48.457  13.038  1.00  0.00    -0.369 N
ATOM     29  H2  UNL     1     -24.104  48.554  12.370  1.00  0.00     0.161 HD
BRANCH  28  30
HETATM   30  C6  UNL     1     -26.164  47.935  12.649  1.00  0.00     0.167 C
BRANCH  30  31
HETATM   31  C5  UNL     1     -25.982  46.636  11.927  1.00  0.00     0.050 A
HETATM   32  C2  UNL     1     -25.367  45.499  12.381  1.00  0.00     0.152 A
HETATM   33  N1  UNL     1     -25.419  44.548  11.411  1.00  0.00    -0.343 N
HETATM   34  C3  UNL     1     -26.060  45.058  10.339  1.00  0.00     0.133 A
ATOM     35  H1  UNL     1     -25.037  43.605  11.482  1.00  0.00     0.167 HD
HETATM   36  C4  UNL     1     -26.418  46.358  10.642  1.00  0.00     0.143 A
HETATM   37  F1  UNL     1     -27.081  47.197   9.810  1.00  0.00    -0.204 F
BRANCH  32  38
HETATM   38  O1  UNL     1     -24.794  45.373  13.633  1.00  0.00    -0.340 OA
HETATM   39  C1  UNL     1     -23.459  45.002  13.803  1.00  0.00     0.211 C
ENDBRANCH  32  38
ENDBRANCH  30  31
ENDBRANCH  28  30
ENDBRANCH   1  28
TORSDOF 10
ENDMDL