MODEL 1
REMARK VINA RESULT: -5.876035651      0.000      0.000
REMARK  14 active torsions:
REMARK  status: ('A' for Active; 'I' for Inactive)
REMARK    1  A    between atoms: C2_2  and  C3_3
REMARK    2  A    between atoms: C3_3  and  C4_4
REMARK    3  A    between atoms: C4_4  and  C5_5
REMARK    4  A    between atoms: C6_6  and  C7_7
REMARK    5  A    between atoms: C8_10  and  N2_11
REMARK    6  A    between atoms: C9_16  and  N4_17
REMARK    7  A    between atoms: N4_17  and  C10_19
REMARK    8  A    between atoms: C10_19  and  C11_20
REMARK    9  A    between atoms: C11_20  and  C12_21
REMARK   10  A    between atoms: C12_21  and  O1_22
REMARK   11  A    between atoms: C13_24  and  C14_25
REMARK   12  A    between atoms: C14_25  and  C18_37
REMARK   13  A    between atoms: N5_26  and  N6_28
REMARK   14  A    between atoms: N6_28  and  C15_30
ROOT
HETATM    1  C7  UNL     1     -19.174  55.267  18.299  1.00  0.00     0.119 A
HETATM    2  N1  UNL     1     -18.163  55.271  19.233  1.00  0.00    -0.183 N
ATOM      3  H1  UNL     1     -17.481  56.029  19.216  1.00  0.00     0.185 HD
HETATM    4  C8  UNL     1     -18.045  54.329  20.152  1.00  0.00     0.678 A
HETATM    5  N3  UNL     1     -18.940  53.347  20.165  1.00  0.00    -0.176 N
ATOM      6  H3  UNL     1     -18.866  52.613  20.869  1.00  0.00     0.186 HD
HETATM    7  C9  UNL     1     -19.924  53.302  19.289  1.00  0.00     0.132 A
HETATM    8  C13 UNL     1     -20.090  54.293  18.277  1.00  0.00     0.072 A
ENDROOT
BRANCH   8   9
HETATM    9  C14 UNL     1     -21.127  54.064  17.273  1.00  0.00     0.081 C
HETATM   10  N5  UNL     1     -22.316  54.164  17.828  1.00  0.00    -0.298 N
ATOM     11  H5  UNL     1     -22.262  54.375  18.825  1.00  0.00     0.187 HD
BRANCH  10  12
HETATM   12  N6  UNL     1     -23.551  54.060  17.409  1.00  0.00    -0.271 N
ATOM     13  H6  UNL     1     -23.713  53.581  16.522  1.00  0.00     0.190 HD
BRANCH  12  14
HETATM   14  C15 UNL     1     -24.709  54.578  18.120  1.00  0.00     0.190 C
HETATM   15  N7  UNL     1     -24.724  55.037  19.314  1.00  0.00    -0.360 N
HETATM   16  C16 UNL     1     -26.024  55.475  19.727  1.00  0.00     0.142 C
ATOM     17  H7  UNL     1     -23.898  55.087  19.909  1.00  0.00     0.162 HD
HETATM   18  C17 UNL     1     -26.776  55.590  18.425  1.00  0.00     0.142 C
HETATM   19  N8  UNL     1     -26.018  54.659  17.599  1.00  0.00    -0.360 N
ATOM     20  H8  UNL     1     -26.371  54.155  16.787  1.00  0.00     0.162 HD
ENDBRANCH  12  14
ENDBRANCH  10  12
BRANCH   9  21
HETATM   21  C18 UNL     1     -21.147  53.691  15.884  1.00  0.00     0.140 C
HETATM   22  C19 UNL     1     -21.534  54.853  14.996  1.00  0.00     0.058 C
HETATM   23  C20 UNL     1     -21.805  52.425  15.477  1.00  0.00     0.058 C
HETATM   24  F1  UNL     1     -19.744  53.499  15.479  1.00  0.00    -0.237 F
ENDBRANCH   9  21
ENDBRANCH   8   9
BRANCH   1  25
HETATM   25  C6  UNL     1     -19.241  56.426  17.462  1.00  0.00    -0.047 C
HETATM   26  C5  UNL     1     -19.253  57.354  16.711  1.00  0.00    -0.100 C
BRANCH  26  27
HETATM   27  C4  UNL     1     -19.256  58.492  15.792  1.00  0.00     0.094 C
BRANCH  27  28
HETATM   28  C3  UNL     1     -19.928  58.085  14.480  1.00  0.00     0.012 C
BRANCH  28  29
HETATM   29  C2  UNL     1     -21.110  58.973  14.216  1.00  0.00    -0.004 C
HETATM   30  C1  UNL     1     -22.126  58.292  13.314  1.00  0.00     0.005 C
ENDBRANCH  28  29
ENDBRANCH  27  28
ENDBRANCH  26  27
ENDBRANCH   1  25
BRANCH   7  31
HETATM   31  N4  UNL     1     -20.755  52.315  19.344  1.00  0.00    -0.375 N
ATOM     32  H4  UNL     1     -21.037  51.876  18.468  1.00  0.00     0.161 HD
BRANCH  31  33
HETATM   33  C10 UNL     1     -21.302  51.803  20.554  1.00  0.00     0.123 C
BRANCH  33  34
HETATM   34  C11 UNL     1     -22.696  52.305  20.834  1.00  0.00     0.045 C
BRANCH  34  35
HETATM   35  C12 UNL     1     -23.694  51.460  20.086  1.00  0.00     0.165 C
BRANCH  35  36
HETATM   36  O1  UNL     1     -23.392  51.385  18.732  1.00  0.00    -0.401 OA
ATOM     37  H1  UNL     1     -24.131  51.073  18.224  1.00  0.00     0.209 HD
ENDBRANCH  35  36
ENDBRANCH  34  35
ENDBRANCH  33  34
ENDBRANCH  31  33
ENDBRANCH   7  31
BRANCH   4  38
HETATM   38  N2  UNL     1     -17.069  54.362  21.024  1.00  0.00    -0.234 N
ATOM     39  H22 UNL     1     -16.115  54.581  20.736  1.00  0.00     0.174 HD
ATOM     40  H21 UNL     1     -17.244  54.171  22.010  1.00  0.00     0.174 HD
ENDBRANCH   4  38
TORSDOF 14
ENDMDL