MODEL 4
REMARK VINA RESULT: -6.159436669      2.009      3.228
REMARK  14 active torsions:
REMARK  status: ('A' for Active; 'I' for Inactive)
REMARK    1  A    between atoms: C2_2  and  O1_4
REMARK    2  A    between atoms: C2_2  and  C4_6
REMARK    3  A    between atoms: C4_6  and  C5_7
REMARK    4  A    between atoms: C5_7  and  C6_8
REMARK    5  A    between atoms: C6_8  and  C7_9
REMARK    6  A    between atoms: C7_9  and  N1_10
REMARK    7  A    between atoms: N1_10  and  C8_12
REMARK    8  A    between atoms: C8_12  and  C9_14
REMARK    9  A    between atoms: C10_15  and  C11_16
REMARK   10  A    between atoms: C13_19  and  O2_20
REMARK   11  A    between atoms: C15_23  and  O3_24
REMARK   12  A    between atoms: C18_28  and  O4_29
REMARK   13  A    between atoms: C18_28  and  C19_31
REMARK   14  A    between atoms: C19_31  and  O5_32
ROOT
HETATM    1  C11 UNL     1     -19.345  52.550  19.892  1.00  0.00     0.061 C
HETATM    2  C12 UNL     1     -17.918  52.178  20.061  1.00  0.00     0.143 C
HETATM    3  F2  UNL     1     -17.388  51.705  18.840  1.00  0.00    -0.239 F
HETATM    4  C13 UNL     1     -16.981  53.255  20.479  1.00  0.00     0.161 C
HETATM    5  C14 UNL     1     -15.754  52.511  20.975  1.00  0.00     0.067 C
HETATM    6  C15 UNL     1     -16.162  51.068  21.155  1.00  0.00     0.128 C
HETATM    7  C16 UNL     1     -17.661  51.065  21.035  1.00  0.00     0.060 C
HETATM    8  C17 UNL     1     -18.256  51.433  22.341  1.00  0.00     0.051 C
HETATM    9  C18 UNL     1     -19.715  51.782  22.304  1.00  0.00     0.087 C
HETATM   10  C20 UNL     1     -20.235  52.369  21.064  1.00  0.00    -0.004 C
HETATM   11  C21 UNL     1     -21.423  51.481  20.624  1.00  0.00     0.019 C
HETATM   12  C22 UNL     1     -20.964  53.685  21.405  1.00  0.00     0.019 C
ENDROOT
BRANCH   1  13
HETATM   13  C10 UNL     1     -19.437  53.901  19.256  1.00  0.00    -0.017 C
HETATM   14  C9  UNL     1     -19.541  54.127  17.962  1.00  0.00     0.027 C
BRANCH  14  15
HETATM   15  C8  UNL     1     -19.624  55.524  17.477  1.00  0.00     0.288 C
HETATM   16  F1  UNL     1     -18.427  56.143  17.865  1.00  0.00    -0.223 F
BRANCH  15  17
HETATM   17  N1  UNL     1     -19.819  55.649  16.072  1.00  0.00    -0.390 N
ATOM     18  H1  UNL     1     -19.388  56.396  15.529  1.00  0.00     0.156 HD
BRANCH  17  19
HETATM   19  C7  UNL     1     -20.653  54.664  15.477  1.00  0.00     0.117 C
BRANCH  19  20
HETATM   20  C6  UNL     1     -21.646  55.395  14.585  1.00  0.00     0.019 C
BRANCH  20  21
HETATM   21  C5  UNL     1     -21.105  56.770  14.277  1.00  0.00     0.004 C
BRANCH  21  22
HETATM   22  C4  UNL     1     -21.607  57.314  12.957  1.00  0.00     0.037 C
BRANCH  22  23
HETATM   23  C2  UNL     1     -21.929  58.789  13.081  1.00  0.00     0.051 C
HETATM   24  C1  UNL     1     -21.315  59.403  14.308  1.00  0.00     0.045 C
HETATM   25  C3  UNL     1     -23.403  59.041  13.050  1.00  0.00     0.045 C
BRANCH  23  26
HETATM   26  O1  UNL     1     -21.333  59.415  11.963  1.00  0.00    -0.391 OA
ATOM     27  H1  UNL     1     -20.406  59.501  12.155  1.00  0.00     0.210 HD
ENDBRANCH  23  26
ENDBRANCH  22  23
ENDBRANCH  21  22
ENDBRANCH  20  21
ENDBRANCH  19  20
ENDBRANCH  17  19
ENDBRANCH  15  17
ENDBRANCH  14  15
ENDBRANCH   1  13
BRANCH   4  28
HETATM   28  O2  UNL     1     -17.427  54.171  21.382  1.00  0.00    -0.392 OA
ATOM     29  H2  UNL     1     -16.873  54.920  21.565  1.00  0.00     0.210 HD
ENDBRANCH   4  28
BRANCH   9  30
HETATM   30  O4  UNL     1     -20.384  50.578  22.668  1.00  0.00    -0.387 OA
ATOM     31  H4  UNL     1     -20.693  50.215  21.847  1.00  0.00     0.210 HD
ENDBRANCH   9  30
BRANCH   9  32
HETATM   32  C19 UNL     1     -19.940  52.660  23.551  1.00  0.00     0.202 C
BRANCH  32  33
HETATM   33  O5  UNL     1     -18.688  53.188  23.953  1.00  0.00    -0.398 OA
ATOM     34  H5  UNL     1     -18.318  52.608  24.609  1.00  0.00     0.209 HD
ENDBRANCH  32  33
ENDBRANCH   9  32
BRANCH   6  35
HETATM   35  O3  UNL     1     -15.538  50.296  20.176  1.00  0.00    -0.395 OA
ATOM     36  H3  UNL     1     -14.598  50.331  20.309  1.00  0.00     0.210 HD
ENDBRANCH   6  35
TORSDOF 14
ENDMDL