MODEL 2
REMARK VINA RESULT: -7.486217288      3.082      5.003
REMARK  13 active torsions:
REMARK  status: ('A' for Active; 'I' for Inactive)
REMARK    1  A    between atoms: C2_2  and  C3_3
REMARK    2  A    between atoms: C3_3  and  C4_4
REMARK    3  A    between atoms: C4_4  and  N1_5
REMARK    4  A    between atoms: N1_5  and  C5_7
REMARK    5  A    between atoms: C5_7  and  N2_9
REMARK    6  A    between atoms: N2_9  and  C6_11
REMARK    7  A    between atoms: C6_11  and  C7_12
REMARK    8  A    between atoms: C7_12  and  C8_13
REMARK    9  A    between atoms: C8_13  and  N3_14
REMARK   10  A    between atoms: N3_14  and  C9_16
REMARK   11  A    between atoms: C10_19  and  N5_20
REMARK   12  A    between atoms: N7_27  and  C13_28
REMARK   13  A    between atoms: C14_29  and  O1_30
ROOT
HETATM    1  C9  UNL     1     -21.446  53.681  15.601  1.00  0.00     0.681 A
HETATM    2  N4  UNL     1     -20.558  53.623  16.603  1.00  0.00    -0.176 N
ATOM      3  H4  UNL     1     -20.491  52.765  17.151  1.00  0.00     0.186 HD
HETATM    4  C10 UNL     1     -19.751  54.656  16.914  1.00  0.00     0.130 A
HETATM    5  C11 UNL     1     -19.822  55.834  16.186  1.00  0.00     0.071 A
HETATM    6  C12 UNL     1     -19.165  57.048  16.237  1.00  0.00     0.126 A
HETATM    7  N6  UNL     1     -19.706  57.778  15.244  1.00  0.00    -0.306 N
ATOM      8  H6  UNL     1     -19.433  58.734  15.017  1.00  0.00     0.186 HD
HETATM    9  N7  UNL     1     -20.636  57.092  14.604  1.00  0.00    -0.262 N
HETATM   10  C17 UNL     1     -20.744  55.852  15.168  1.00  0.00     0.153 A
HETATM   11  N8  UNL     1     -21.543  54.826  14.862  1.00  0.00    -0.174 N
ATOM     12  H8  UNL     1     -22.210  54.896  14.094  1.00  0.00     0.186 HD
ENDROOT
BRANCH   1  13
HETATM   13  N3  UNL     1     -22.235  52.733  15.257  1.00  0.00    -0.226 N
ATOM     14  H3  UNL     1     -22.294  52.538  14.257  1.00  0.00     0.177 HD
BRANCH  13  15
HETATM   15  C8  UNL     1     -23.045  51.914  16.107  1.00  0.00     0.139 C
BRANCH  15  16
HETATM   16  C7  UNL     1     -23.778  50.879  15.293  1.00  0.00     0.040 C
BRANCH  16  17
HETATM   17  C6  UNL     1     -25.263  50.871  15.685  1.00  0.00     0.123 C
BRANCH  17  18
HETATM   18  N2  UNL     1     -25.565  51.969  16.540  1.00  0.00    -0.367 N
ATOM     19  H2  UNL     1     -24.758  52.432  16.959  1.00  0.00     0.161 HD
BRANCH  18  20
HETATM   20  C5  UNL     1     -26.813  52.506  16.888  1.00  0.00     0.167 C
HETATM   21  S1  UNL     1     -27.878  51.488  17.687  1.00  0.00    -0.041 SA
BRANCH  20  22
HETATM   22  N1  UNL     1     -27.301  53.801  16.657  1.00  0.00    -0.367 N
ATOM     23  H1  UNL     1     -27.334  54.097  15.682  1.00  0.00     0.161 HD
BRANCH  22  24
HETATM   24  C4  UNL     1     -27.758  54.758  17.619  1.00  0.00     0.122 C
BRANCH  24  25
HETATM   25  C3  UNL     1     -26.629  55.713  17.975  1.00  0.00     0.019 C
BRANCH  25  26
HETATM   26  C2  UNL     1     -27.168  57.020  18.513  1.00  0.00    -0.003 C
HETATM   27  C1  UNL     1     -26.193  57.580  19.522  1.00  0.00     0.005 C
ENDBRANCH  25  26
ENDBRANCH  24  25
ENDBRANCH  22  24
ENDBRANCH  20  22
ENDBRANCH  18  20
ENDBRANCH  17  18
ENDBRANCH  16  17
ENDBRANCH  15  16
ENDBRANCH  13  15
ENDBRANCH   1  13
BRANCH   4  28
HETATM   28  N5  UNL     1     -18.901  54.597  17.879  1.00  0.00    -0.384 N
ATOM     29  H52 UNL     1     -17.938  54.351  17.651  1.00  0.00     0.157 HD
ATOM     30  H51 UNL     1     -19.162  54.786  18.847  1.00  0.00     0.157 HD
ENDBRANCH   4  28
BRANCH   9  31
HETATM   31  C13 UNL     1     -21.433  57.526  13.493  1.00  0.00     0.211 C
HETATM   32  C14 UNL     1     -20.550  58.031  12.373  1.00  0.00     0.154 C
HETATM   33  C15 UNL     1     -21.651  59.042  12.081  1.00  0.00     0.115 C
HETATM   34  C16 UNL     1     -22.052  58.886  13.557  1.00  0.00     0.270 C
HETATM   35  F1  UNL     1     -23.441  58.898  13.613  1.00  0.00    -0.204 F
HETATM   36  F2  UNL     1     -21.414  59.787  14.347  1.00  0.00    -0.204 F
BRANCH  32  37
HETATM   37  O1  UNL     1     -19.418  58.714  12.817  1.00  0.00    -0.393 OA
ATOM     38  H1  UNL     1     -19.004  58.316  13.573  1.00  0.00     0.210 HD
ENDBRANCH  32  37
ENDBRANCH   9  31
TORSDOF 13
ENDMDL