MODEL 3
REMARK VINA RESULT: -7.000663045      1.137      1.287
REMARK  11 active torsions:
REMARK  status: ('A' for Active; 'I' for Inactive)
REMARK    1  A    between atoms: C3_8  and  N3_9
REMARK    2  A    between atoms: N3_9  and  C4_11
REMARK    3  A    between atoms: C8_15  and  O2_16
REMARK    4  A    between atoms: N5_22  and  C11_24
REMARK    5  A    between atoms: C11_24  and  C12_25
REMARK    6  A    between atoms: C12_25  and  C13_26
REMARK    7  A    between atoms: C13_26  and  C14_27
REMARK    8  A    between atoms: C14_27  and  C15_28
REMARK    9  A    between atoms: C15_28  and  C16_29
REMARK   10  A    between atoms: C16_29  and  C17_30
REMARK   11  A    between atoms: C17_30  and  O3_31
ROOT
HETATM    1  O1  UNL     1     -20.956  54.199  21.839  1.00  0.00    -0.265 OA
HETATM    2  C1  UNL     1     -21.178  53.941  20.628  1.00  0.00     0.285 A
HETATM    3  N1  UNL     1     -22.168  53.112  20.256  1.00  0.00    -0.304 N
ATOM      4  H1  UNL     1     -22.743  52.690  20.986  1.00  0.00     0.171 HD
HETATM    5  C2  UNL     1     -22.444  52.807  18.978  1.00  0.00     0.154 A
HETATM    6  N2  UNL     1     -23.431  51.979  18.601  1.00  0.00    -0.174 N
ATOM      7  H2  UNL     1     -24.000  51.561  19.337  1.00  0.00     0.186 HD
HETATM    8  C3  UNL     1     -23.724  51.662  17.345  1.00  0.00     0.681 A
HETATM    9  N4  UNL     1     -22.963  52.221  16.382  1.00  0.00    -0.175 N
ATOM     10  H4  UNL     1     -23.160  51.999  15.406  1.00  0.00     0.186 HD
HETATM   11  C10 UNL     1     -21.935  53.077  16.674  1.00  0.00     0.147 A
HETATM   12  N5  UNL     1     -21.260  53.567  15.730  1.00  0.00    -0.374 N
ATOM     13  H5  UNL     1     -21.569  53.258  14.808  1.00  0.00     0.161 HD
HETATM   14  C18 UNL     1     -21.657  53.385  17.984  1.00  0.00     0.123 A
HETATM   15  N6  UNL     1     -20.657  54.222  18.337  1.00  0.00    -0.336 N
ATOM     16  H6  UNL     1     -20.083  54.643  17.606  1.00  0.00     0.167 HD
HETATM   17  C19 UNL     1     -20.394  54.517  19.622  1.00  0.00     0.172 A
HETATM   18 CL1  UNL     1     -19.123  55.585  20.136  1.00  0.00    -0.058 Cl
ENDROOT
BRANCH  12  19
HETATM   19  C11 UNL     1     -20.165  54.455  15.683  1.00  0.00     0.121 C
BRANCH  19  20
HETATM   20  C12 UNL     1     -20.626  55.864  15.301  1.00  0.00     0.020 C
BRANCH  20  21
HETATM   21  C13 UNL     1     -21.617  55.832  14.193  1.00  0.00     0.002 C
BRANCH  21  22
HETATM   22  C14 UNL     1     -21.456  57.009  13.236  1.00  0.00     0.000 C
BRANCH  22  23
HETATM   23  C15 UNL     1     -20.925  58.228  13.896  1.00  0.00     0.002 C
BRANCH  23  24
HETATM   24  C16 UNL     1     -21.836  59.402  13.897  1.00  0.00     0.026 C
BRANCH  24  25
HETATM   25  C17 UNL     1     -23.051  59.282  13.063  1.00  0.00     0.164 C
BRANCH  25  26
HETATM   26  O3  UNL     1     -23.377  60.423  12.352  1.00  0.00    -0.401 OA
ATOM     27  H3  UNL     1     -24.301  60.642  12.357  1.00  0.00     0.209 HD
ENDBRANCH  25  26
ENDBRANCH  24  25
ENDBRANCH  23  24
ENDBRANCH  22  23
ENDBRANCH  21  22
ENDBRANCH  20  21
ENDBRANCH  19  20
ENDBRANCH  12  19
BRANCH   8  28
HETATM   28  N3  UNL     1     -24.685  50.858  16.990  1.00  0.00    -0.221 N
ATOM     29  H3  UNL     1     -25.458  50.688  17.634  1.00  0.00     0.178 HD
BRANCH  28  30
HETATM   30  C4  UNL     1     -24.681  50.217  15.739  1.00  0.00     0.101 C
HETATM   31  C5  UNL     1     -23.972  48.882  15.718  1.00  0.00     0.026 C
HETATM   32  C6  UNL     1     -24.584  48.002  14.668  1.00  0.00     0.004 C
HETATM   33  C7  UNL     1     -25.062  48.753  13.458  1.00  0.00     0.032 C
HETATM   34  C8  UNL     1     -26.017  49.857  13.758  1.00  0.00     0.120 C
HETATM   35  C9  UNL     1     -26.119  49.999  15.261  1.00  0.00     0.057 C
BRANCH  34  36
HETATM   36  O2  UNL     1     -27.264  49.687  13.166  1.00  0.00    -0.396 OA
ATOM     37  H2  UNL     1     -27.235  49.185  12.360  1.00  0.00     0.210 HD
ENDBRANCH  34  36
ENDBRANCH  28  30
ENDBRANCH   8  28
TORSDOF 11
ENDMDL