MODEL 5
REMARK VINA RESULT: -6.689147508      1.606      1.677
REMARK  10 active torsions:
REMARK  status: ('A' for Active; 'I' for Inactive)
REMARK    1  A    between atoms: C4_4  and  C5_5
REMARK    2  A    between atoms: C6_8  and  N2_9
REMARK    3  A    between atoms: C7_14  and  N4_15
REMARK    4  A    between atoms: C9_20  and  O1_21
REMARK    5  A    between atoms: O1_21  and  C10_22
REMARK    6  A    between atoms: C10_22  and  C11_23
REMARK    7  A    between atoms: N6_29  and  C14_30
REMARK    8  A    between atoms: C14_30  and  C15_31
REMARK    9  A    between atoms: C15_31  and  C16_32
REMARK   10  A    between atoms: C16_32  and  N7_33
ROOT
HETATM    1  C1  UNL     1     -20.139  53.399  16.059  1.00  0.00     0.050 C
HETATM    2  C2  UNL     1     -19.471  54.053  17.207  1.00  0.00    -0.032 A
HETATM    3  C3  UNL     1     -19.125  53.329  18.332  1.00  0.00     0.026 A
HETATM    4  C4  UNL     1     -18.605  53.930  19.481  1.00  0.00     0.029 A
HETATM    5  C9  UNL     1     -18.458  55.275  19.465  1.00  0.00     0.110 A
HETATM    6  C12 UNL     1     -18.802  56.009  18.332  1.00  0.00     0.095 A
HETATM    7  N5  UNL     1     -18.777  57.322  18.085  1.00  0.00    -0.348 N
ATOM      8  H5  UNL     1     -18.456  58.034  18.741  1.00  0.00     0.167 HD
HETATM    9  C13 UNL     1     -19.225  57.560  16.873  1.00  0.00     0.184 A
HETATM   10  N6  UNL     1     -19.564  56.360  16.281  1.00  0.00    -0.341 N
HETATM   11  C18 UNL     1     -19.306  55.430  17.187  1.00  0.00     0.071 A
ENDROOT
BRANCH   4  12
HETATM   12  C5  UNL     1     -18.039  53.017  20.484  1.00  0.00     0.087 A
HETATM   13  N1  UNL     1     -16.803  52.521  20.473  1.00  0.00    -0.189 N
HETATM   14  C6  UNL     1     -16.322  51.605  21.365  1.00  0.00     0.678 A
ATOM     15  H1  UNL     1     -16.169  52.850  19.745  1.00  0.00     0.184 HD
HETATM   16  N3  UNL     1     -17.105  51.139  22.337  1.00  0.00    -0.176 N
HETATM   17  C7  UNL     1     -18.349  51.586  22.409  1.00  0.00     0.139 A
ATOM     18  H3  UNL     1     -16.755  50.455  23.008  1.00  0.00     0.186 HD
HETATM   19  C8  UNL     1     -18.862  52.516  21.512  1.00  0.00     0.106 A
HETATM   20 CL1  UNL     1     -20.543  52.930  21.650  1.00  0.00    -0.078 Cl
BRANCH  14  21
HETATM   21  N2  UNL     1     -15.109  51.186  21.271  1.00  0.00    -0.234 N
ATOM     22  H22 UNL     1     -14.835  50.614  20.472  1.00  0.00     0.174 HD
ATOM     23  H21 UNL     1     -14.427  51.424  21.991  1.00  0.00     0.174 HD
ENDBRANCH  14  21
BRANCH  17  24
HETATM   24  N4  UNL     1     -19.124  51.132  23.363  1.00  0.00    -0.384 N
ATOM     25  H42 UNL     1     -19.192  51.659  24.234  1.00  0.00     0.157 HD
ATOM     26  H41 UNL     1     -19.636  50.264  23.204  1.00  0.00     0.157 HD
ENDBRANCH  17  24
ENDBRANCH   4  12
BRANCH   5  27
HETATM   27  O1  UNL     1     -18.001  56.033  20.510  1.00  0.00    -0.345 OA
BRANCH  27  28
HETATM   28  C10 UNL     1     -16.668  56.340  20.770  1.00  0.00     0.207 C
BRANCH  28  29
HETATM   29  C11 UNL     1     -16.194  57.731  20.798  1.00  0.00     0.248 C
HETATM   30  F1  UNL     1     -15.545  58.005  19.585  1.00  0.00    -0.253 F
ENDBRANCH  28  29
ENDBRANCH  27  28
ENDBRANCH   5  27
BRANCH  10  31
HETATM   31  C14 UNL     1     -19.899  56.318  14.904  1.00  0.00     0.131 C
BRANCH  31  32
HETATM   32  C15 UNL     1     -20.623  57.609  14.503  1.00  0.00     0.040 C
BRANCH  32  33
HETATM   33  C16 UNL     1     -21.697  57.401  13.519  1.00  0.00     0.123 C
BRANCH  33  34
HETATM   34  N7  UNL     1     -22.564  58.508  13.346  1.00  0.00    -0.367 N
HETATM   35  C17 UNL     1     -22.415  59.453  12.485  1.00  0.00     0.196 C
HETATM   36  N8  UNL     1     -23.371  60.489  12.437  1.00  0.00    -0.067 NA
HETATM   37  N9  UNL     1     -21.305  59.426  11.613  1.00  0.00    -0.067 NA
ATOM     38  H7  UNL     1     -23.378  58.561  13.957  1.00  0.00     0.161 HD
ENDBRANCH  33  34
ENDBRANCH  32  33
ENDBRANCH  31  32
ENDBRANCH  10  31
TORSDOF 10
ENDMDL