MODEL 4
REMARK VINA RESULT: -6.662824697      2.385      3.942
REMARK  9 active torsions:
REMARK  status: ('A' for Active; 'I' for Inactive)
REMARK    1  A    between atoms: C4_11  and  N3_12
REMARK    2  A    between atoms: C5_14  and  C6_15
REMARK    3  A    between atoms: C9_20  and  N5_21
REMARK    4  A    between atoms: N5_21  and  C10_22
REMARK    5  A    between atoms: C10_22  and  C11_23
REMARK    6  A    between atoms: C11_23  and  C12_24
REMARK    7  A    between atoms: C12_24  and  N6_25
REMARK    8  A    between atoms: N6_25  and  C13_27
REMARK    9  A    between atoms: C13_27  and  C14_28
ROOT
HETATM    1  C6  UNL     1     -25.037  49.453  13.815  1.00  0.00     0.052 A
HETATM    2  C7  UNL     1     -23.788  49.325  13.281  1.00  0.00     0.048 A
HETATM    3  C8  UNL     1     -22.711  49.905  13.935  1.00  0.00     0.094 A
HETATM    4  N4  UNL     1     -22.952  50.569  15.072  1.00  0.00    -0.326 N
ATOM      5  H4  UNL     1     -22.161  50.995  15.553  1.00  0.00     0.169 HD
HETATM    6  C9  UNL     1     -24.182  50.711  15.626  1.00  0.00     0.258 A
HETATM    7  N8  UNL     1     -25.231  50.122  14.948  1.00  0.00    -0.315 N
ATOM      8  H8  UNL     1     -26.174  50.202  15.325  1.00  0.00     0.170 HD
ENDROOT
BRANCH   1   9
HETATM    9  C5  UNL     1     -26.215  48.843  13.126  1.00  0.00     0.119 C
HETATM   10  N3  UNL     1     -26.235  47.483  13.112  1.00  0.00    -0.348 N
ATOM     11  H3  UNL     1     -25.813  47.109  13.962  1.00  0.00     0.167 HD
BRANCH  10  12
HETATM   12  C4  UNL     1     -26.614  46.558  12.370  1.00  0.00     0.146 A
HETATM   13  C3  UNL     1     -27.320  45.440  12.736  1.00  0.00     0.117 A
HETATM   14  C2  UNL     1     -27.680  44.497  11.762  1.00  0.00     0.144 A
HETATM   15 CL2  UNL     1     -27.780  45.140  14.411  1.00  0.00    -0.077 Cl
HETATM   16  N2  UNL     1     -27.352  44.655  10.481  1.00  0.00    -0.180 N
HETATM   17 CL1  UNL     1     -28.580  43.088  12.286  1.00  0.00    -0.062 Cl
HETATM   18  C1  UNL     1     -26.656  45.751  10.108  1.00  0.00     0.678 A
ATOM     19  H2  UNL     1     -27.623  43.957   9.789  1.00  0.00     0.185 HD
HETATM   20  N1  UNL     1     -26.373  45.839   8.841  1.00  0.00    -0.234 N
HETATM   21  N9  UNL     1     -26.325  46.624  11.016  1.00  0.00    -0.175 N
ATOM     22  H12 UNL     1     -26.632  45.155   8.130  1.00  0.00     0.174 HD
ATOM     23  H11 UNL     1     -25.847  46.666   8.560  1.00  0.00     0.174 HD
ATOM     24  H9  UNL     1     -25.801  47.439  10.699  1.00  0.00     0.186 HD
ENDBRANCH  10  12
ENDBRANCH   1   9
BRANCH   6  25
HETATM   25  N5  UNL     1     -24.354  51.329  16.626  1.00  0.00    -0.388 NA
BRANCH  25  26
HETATM   26  C10 UNL     1     -24.524  52.023  17.753  1.00  0.00     0.164 C
BRANCH  26  27
HETATM   27  C11 UNL     1     -23.762  53.350  17.907  1.00  0.00     0.104 C
BRANCH  27  28
HETATM   28  C12 UNL     1     -22.341  52.986  18.304  1.00  0.00     0.066 C
BRANCH  28  29
HETATM   29  N6  UNL     1     -21.504  52.704  17.208  1.00  0.00    -0.380 N
ATOM     30  H6  UNL     1     -21.717  51.909  16.605  1.00  0.00     0.164 HD
BRANCH  29  31
HETATM   31  C13 UNL     1     -20.384  53.498  16.932  1.00  0.00     0.092 C
BRANCH  31  32
HETATM   32  C14 UNL     1     -20.423  54.400  15.749  1.00  0.00     0.224 C
HETATM   33  C15 UNL     1     -19.972  55.807  16.088  1.00  0.00     0.040 C
HETATM   34  C16 UNL     1     -20.399  56.592  14.882  1.00  0.00     0.030 C
HETATM   35  C17 UNL     1     -21.571  55.822  14.344  1.00  0.00     0.233 C
HETATM   36  N7  UNL     1     -21.693  54.614  15.138  1.00  0.00    -0.066 N
ATOM     37  H72 UNL     1     -22.024  53.811  14.602  1.00  0.00     0.278 HD
ATOM     38  H71 UNL     1     -22.463  54.648  15.807  1.00  0.00     0.278 HD
ENDBRANCH  31  32
ENDBRANCH  29  31
ENDBRANCH  28  29
ENDBRANCH  27  28
ENDBRANCH  26  27
ENDBRANCH  25  26
ENDBRANCH   6  25
TORSDOF 9
ENDMDL