MODEL 3
REMARK VINA RESULT: -5.500536442      2.705      4.594
REMARK  5 active torsions:
REMARK  status: ('A' for Active; 'I' for Inactive)
REMARK    1  A    between atoms: C2_2  and  C4_4
REMARK    2  A    between atoms: C4_4  and  N1_5
REMARK    3  A    between atoms: C5_8  and  C6_9
REMARK    4  A    between atoms: C9_14  and  N3_15
REMARK    5  A    between atoms: C10_20  and  N5_21
ROOT
HETATM    1  N1  UNL     1      44.146  13.857   0.764  1.00  0.00    -0.275 N
HETATM    2  N2  UNL     1      43.607  14.052  -0.398  1.00  0.00    -0.297 N
ATOM      3  H2  UNL     1      43.010  14.851  -0.610  1.00  0.00     0.187 HD
HETATM    4  C5  UNL     1      43.913  13.088  -1.306  1.00  0.00     0.082 A
HETATM    5  C8  UNL     1      44.722  12.221  -0.613  1.00  0.00     0.081 A
HETATM    6  C9  UNL     1      45.362  11.060  -0.918  1.00  0.00     0.131 A
HETATM    7  N4  UNL     1      46.114  10.397   0.007  1.00  0.00    -0.176 N
ATOM      8  H4  UNL     1      46.588   9.528  -0.234  1.00  0.00     0.186 HD
HETATM    9  C10 UNL     1      46.218  10.910   1.234  1.00  0.00     0.679 A
HETATM   10  N6  UNL     1      45.601  12.052   1.570  1.00  0.00    -0.174 N
ATOM     11  H6  UNL     1      45.701  12.414   2.518  1.00  0.00     0.186 HD
HETATM   12  C11 UNL     1      44.848  12.730   0.678  1.00  0.00     0.153 A
ENDROOT
BRANCH   1  13
HETATM   13  C4  UNL     1      43.983  14.721   1.928  1.00  0.00     0.154 C
BRANCH  13  14
HETATM   14  C2  UNL     1      44.489  16.108   1.731  1.00  0.00    -0.003 C
HETATM   15  C1  UNL     1      45.128  16.534   3.051  1.00  0.00     0.011 C
HETATM   16  C3  UNL     1      43.467  17.130   1.372  1.00  0.00     0.011 C
ENDBRANCH  13  14
ENDBRANCH   1  13
BRANCH   4  17
HETATM   17  C6  UNL     1      43.481  13.057  -2.699  1.00  0.00     0.154 C
HETATM   18  C7  UNL     1      44.528  13.244  -3.743  1.00  0.00     0.057 C
HETATM   19 CL1  UNL     1      42.467  11.599  -3.047  1.00  0.00    -0.095 Cl
HETATM   20 CL2  UNL     1      42.289  14.393  -2.949  1.00  0.00    -0.095 Cl
ENDBRANCH   4  17
BRANCH   6  21
HETATM   21  N3  UNL     1      45.242  10.573  -2.079  1.00  0.00    -0.384 N
ATOM     22  H32 UNL     1      44.753  11.110  -2.796  1.00  0.00     0.157 HD
ATOM     23  H31 UNL     1      45.649   9.660  -2.282  1.00  0.00     0.157 HD
ENDBRANCH   6  21
BRANCH   9  24
HETATM   24  N5  UNL     1      46.920  10.306   2.117  1.00  0.00    -0.234 N
ATOM     25  H52 UNL     1      46.646   9.367   2.405  1.00  0.00     0.174 HD
ATOM     26  H51 UNL     1      47.737  10.768   2.516  1.00  0.00     0.174 HD
ENDBRANCH   9  24
TORSDOF 5
ENDMDL