MODEL 3
REMARK VINA RESULT: -5.961963655      1.404      1.630
REMARK  5 active torsions:
REMARK  status: ('A' for Active; 'I' for Inactive)
REMARK    1  A    between atoms: C2_2  and  C3_3
REMARK    2  A    between atoms: C3_3  and  C4_4
REMARK    3  A    between atoms: C4_4  and  C5_5
REMARK    4  A    between atoms: C9_16  and  N3_17
REMARK    5  A    between atoms: C10_21  and  O1_23
ROOT
HETATM    1  C1  UNL     1      44.129  10.921  -0.747  1.00  0.00     0.078 C
HETATM    2  C2  UNL     1      45.225  11.688   0.002  1.00  0.00     0.225 C
HETATM    3  N2  UNL     1      46.457  11.683  -0.731  1.00  0.00    -0.011 N
ATOM      4  H21 UNL     1      47.073  12.432  -0.415  1.00  0.00     0.283 HD
ATOM      5  H22 UNL     1      46.310  11.985  -1.695  1.00  0.00     0.283 HD
HETATM    6  C9  UNL     1      47.123  10.426  -0.688  1.00  0.00     0.419 C
HETATM    7  C10 UNL     1      47.153   9.787   0.677  1.00  0.00     0.129 C
HETATM    8  C11 UNL     1      46.344   8.503   0.729  1.00  0.00     0.052 C
HETATM    9  C12 UNL     1      46.553  10.756   1.666  1.00  0.00     0.212 C
HETATM   10  O2  UNL     1      45.299  11.114   1.247  1.00  0.00    -0.351 OA
ENDROOT
BRANCH   2  11
HETATM   11  C3  UNL     1      44.699  13.133   0.106  1.00  0.00     0.074 C
BRANCH  11  12
HETATM   12  C4  UNL     1      44.061  13.299   1.468  1.00  0.00     0.063 C
BRANCH  12  13
HETATM   13  C5  UNL     1      44.393  14.654   2.007  1.00  0.00     0.033 A
HETATM   14  N1  UNL     1      43.801  15.820   1.705  1.00  0.00    -0.366 N
HETATM   15  C6  UNL     1      44.381  16.830   2.396  1.00  0.00     0.113 A
ATOM     16  H1  UNL     1      43.026  15.929   1.050  1.00  0.00     0.165 HD
HETATM   17  C7  UNL     1      45.392  16.312   3.180  1.00  0.00     0.073 A
HETATM   18 CL1  UNL     1      46.469  17.181   4.277  1.00  0.00    -0.081 Cl
HETATM   19  C8  UNL     1      45.386  14.952   2.924  1.00  0.00     0.079 A
HETATM   20 CL2  UNL     1      46.471  13.790   3.654  1.00  0.00    -0.080 Cl
ENDBRANCH  12  13
ENDBRANCH  11  12
ENDBRANCH   2  11
BRANCH   6  21
HETATM   21  N3  UNL     1      48.497  10.532  -1.145  1.00  0.00    -0.047 N
ATOM     22  H33 UNL     1      48.562  11.071  -2.008  1.00  0.00     0.276 HD
ATOM     23  H32 UNL     1      49.046  11.139  -0.536  1.00  0.00     0.276 HD
ATOM     24  H31 UNL     1      48.931   9.614  -1.245  1.00  0.00     0.276 HD
ENDBRANCH   6  21
BRANCH   7  25
HETATM   25  O1  UNL     1      48.464   9.449   1.067  1.00  0.00    -0.384 OA
ATOM     26  H1  UNL     1      48.531   8.537   1.323  1.00  0.00     0.210 HD
ENDBRANCH   7  25
TORSDOF 5
ENDMDL