MODEL 5
REMARK VINA RESULT: -5.234200286      3.804      6.874
REMARK  3 active torsions:
REMARK  status: ('A' for Active; 'I' for Inactive)
REMARK    1  A    between atoms: C2_2  and  N1_4
REMARK       I    between atoms: N1_4  and  C4_6
REMARK       I    between atoms: C4_6  and  N3_10
REMARK    2  A    between atoms: N3_10  and  N4_12
REMARK    3  A    between atoms: C5_14  and  C6_15
ROOT
HETATM    1  N1  UNL     1      45.922  15.783   3.160  1.00  0.00    -0.221 N
ATOM      2  H1  UNL     1      46.787  15.861   2.625  1.00  0.00     0.178 HD
HETATM    3  C4  UNL     1      44.832  15.064   2.632  1.00  0.00     0.686 C
HETATM    4  N2  UNL     1      43.681  15.623   2.523  1.00  0.00    -0.234 N
ATOM      5  H21 UNL     1      42.892  15.102   2.140  1.00  0.00     0.174 HD
ATOM      6  H22 UNL     1      43.593  16.591   2.831  1.00  0.00     0.174 HD
HETATM    7  N3  UNL     1      44.955  13.707   2.200  1.00  0.00    -0.133 N
ATOM      8  H3  UNL     1      45.496  13.033   2.742  1.00  0.00     0.205 HD
ENDROOT
BRANCH   7   9
HETATM    9  N4  UNL     1      44.323  13.330   1.027  1.00  0.00    -0.297 N
HETATM   10  C5  UNL     1      44.706  12.308   0.351  1.00  0.00     0.123 C
ATOM     11  H4  UNL     1      43.531  13.879   0.691  1.00  0.00     0.186 HD
BRANCH  10  12
HETATM   12  C6  UNL     1      44.008  11.927  -0.904  1.00  0.00     0.036 A
HETATM   13  C7  UNL     1      43.766  10.610  -1.190  1.00  0.00     0.089 A
HETATM   14 CL1  UNL     1      44.183   9.186  -0.232  1.00  0.00    -0.075 Cl
HETATM   15  S1  UNL     1      42.966  10.674  -2.689  1.00  0.00    -0.063 SA
HETATM   16  C8  UNL     1      42.956  12.361  -2.919  1.00  0.00     0.101 A
HETATM   17 CL2  UNL     1      42.289  13.286  -4.280  1.00  0.00    -0.074 Cl
HETATM   18  C9  UNL     1      43.587  12.837  -1.803  1.00  0.00     0.088 A
HETATM   19  N5  UNL     1      43.760  14.271  -1.659  1.00  0.00    -0.099 NA
ENDBRANCH  10  12
ENDBRANCH   7   9
BRANCH   1  20
HETATM   20  C2  UNL     1      45.822  16.414   4.464  1.00  0.00     0.091 C
HETATM   21  C1  UNL     1      47.074  17.175   4.798  1.00  0.00     0.032 C
HETATM   22  C3  UNL     1      45.527  15.329   5.484  1.00  0.00     0.032 C
ENDBRANCH   1  20
TORSDOF 3
ENDMDL