MODEL 2
REMARK VINA RESULT: -5.804242969      1.406      2.058
REMARK  4 active torsions:
REMARK  status: ('A' for Active; 'I' for Inactive)
REMARK    1  A    between atoms: C3_5  and  N2_6
REMARK    2  A    between atoms: C4_9  and  N3_10
REMARK    3  A    between atoms: N3_10  and  C5_12
REMARK    4  A    between atoms: C5_12  and  C6_13
ROOT
HETATM    1  C1  UNL     1      47.731  17.101   4.935  1.00  0.00     0.089 C
HETATM    2  C2  UNL     1      46.763  16.315   4.103  1.00  0.00     0.079 A
HETATM    3  N1  UNL     1      46.898  14.979   4.020  1.00  0.00    -0.331 N
ATOM      4  H1  UNL     1      47.651  14.503   4.517  1.00  0.00     0.168 HD
HETATM    5  C3  UNL     1      46.011  14.266   3.259  1.00  0.00     0.130 A
HETATM    6  C4  UNL     1      44.999  14.912   2.591  1.00  0.00     0.111 A
HETATM    7  C9  UNL     1      44.908  16.277   2.711  1.00  0.00     0.135 A
HETATM    8 CL1  UNL     1      43.649  17.127   1.887  1.00  0.00    -0.062 Cl
HETATM    9  N6  UNL     1      45.795  16.983   3.472  1.00  0.00    -0.335 N
ATOM     10  H6  UNL     1      45.720  17.996   3.556  1.00  0.00     0.168 HD
ENDROOT
BRANCH   6  11
HETATM   11  N3  UNL     1      44.090  14.173   1.810  1.00  0.00    -0.377 N
ATOM     12  H3  UNL     1      43.355  13.613   2.243  1.00  0.00     0.160 HD
BRANCH  11  13
HETATM   13  C5  UNL     1      44.234  14.236   0.359  1.00  0.00     0.196 C
BRANCH  13  14
HETATM   14  C6  UNL     1      44.083  12.919  -0.271  1.00  0.00     0.100 A
HETATM   15  N4  UNL     1      44.244  11.714   0.275  1.00  0.00    -0.338 N
HETATM   16  C7  UNL     1      44.018  10.739  -0.617  1.00  0.00     0.096 A
ATOM     17  H4  UNL     1      44.506  11.554   1.248  1.00  0.00     0.168 HD
HETATM   18 BR1  UNL     1      44.099   8.851  -0.404  1.00  0.00    -0.030 Br
HETATM   19  C8  UNL     1      43.698  11.368  -1.792  1.00  0.00     0.127 A
HETATM   20  N5  UNL     1      43.743  12.703  -1.557  1.00  0.00    -0.352 N
ATOM     21  H5  UNL     1      43.550  13.430  -2.247  1.00  0.00     0.166 HD
ENDBRANCH  13  14
ENDBRANCH  11  13
ENDBRANCH   6  11
BRANCH   5  22
HETATM   22  N2  UNL     1      46.117  12.991   3.163  1.00  0.00    -0.384 N
ATOM     23  H22 UNL     1      45.504  12.483   2.526  1.00  0.00     0.157 HD
ATOM     24  H21 UNL     1      46.807  12.488   3.721  1.00  0.00     0.157 HD
ENDBRANCH   5  22
TORSDOF 4
ENDMDL