MODEL 3
REMARK VINA RESULT: -6.148724610      1.623      2.635
REMARK  5 active torsions:
REMARK  status: ('A' for Active; 'I' for Inactive)
REMARK    1  A    between atoms: O1_1  and  C1_3
REMARK    2  A    between atoms: C1_3  and  C2_4
REMARK    3  A    between atoms: C2_4  and  C3_5
REMARK    4  A    between atoms: C3_5  and  N1_6
REMARK    5  A    between atoms: N1_6  and  C4_8
ROOT
HETATM    1  C4  UNL     1      44.316  15.450   1.948  1.00  0.00     0.680 A
HETATM    2  N2  UNL     1      44.656  14.167   2.167  1.00  0.00    -0.181 N
ATOM      3  H2  UNL     1      45.013  13.893   3.082  1.00  0.00     0.185 HD
HETATM    4  C5  UNL     1      44.536  13.232   1.193  1.00  0.00     0.132 A
HETATM    5  S1  UNL     1      44.955  11.690   1.487  1.00  0.00    -0.059 SA
HETATM    6  C6  UNL     1      44.059  13.580  -0.050  1.00  0.00     0.072 A
HETATM    7  C7  UNL     1      43.810  12.930  -1.236  1.00  0.00     0.089 A
HETATM    8 CL1  UNL     1      44.086  11.228  -1.489  1.00  0.00    -0.080 Cl
HETATM    9  C8  UNL     1      43.321  13.818  -2.167  1.00  0.00     0.128 A
HETATM   10 CL2  UNL     1      42.845  13.501  -3.833  1.00  0.00    -0.063 Cl
HETATM   11  N3  UNL     1      43.271  15.010  -1.550  1.00  0.00    -0.330 N
ATOM     12  H3  UNL     1      42.949  15.876  -1.981  1.00  0.00     0.168 HD
HETATM   13  C9  UNL     1      43.710  14.896  -0.273  1.00  0.00     0.137 A
HETATM   14  N4  UNL     1      43.851  15.782   0.737  1.00  0.00    -0.176 N
ATOM     15  H4  UNL     1      43.591  16.754   0.567  1.00  0.00     0.186 HD
ENDROOT
BRANCH   1  16
HETATM   16  N1  UNL     1      44.440  16.295   2.876  1.00  0.00    -0.226 N
ATOM     17  H1  UNL     1      43.848  17.124   2.823  1.00  0.00     0.177 HD
BRANCH  16  18
HETATM   18  C3  UNL     1      45.325  16.208   3.995  1.00  0.00     0.140 C
BRANCH  18  19
HETATM   19  C2  UNL     1      46.727  16.688   3.673  1.00  0.00     0.046 C
BRANCH  19  20
HETATM   20  C1  UNL     1      47.385  17.065   4.991  1.00  0.00     0.165 C
BRANCH  20  21
HETATM   21  O1  UNL     1      46.386  17.094   5.958  1.00  0.00    -0.401 OA
ATOM     22  H1  UNL     1      46.293  16.210   6.295  1.00  0.00     0.209 HD
ENDBRANCH  20  21
ENDBRANCH  19  20
ENDBRANCH  18  19
ENDBRANCH  16  18
ENDBRANCH   1  16
TORSDOF 5
ENDMDL