MODEL 4
REMARK VINA RESULT: -5.490026505      1.838      2.335
REMARK  6 active torsions:
REMARK  status: ('A' for Active; 'I' for Inactive)
REMARK    1  A    between atoms: C2_2  and  N1_5
REMARK    2  A    between atoms: N1_5  and  C4_7
REMARK    3  A    between atoms: C5_10  and  N3_11
REMARK    4  A    between atoms: C6_16  and  O1_17
REMARK    5  A    between atoms: O1_17  and  C7_18
REMARK    6  A    between atoms: C7_18  and  C8_19
ROOT
HETATM    1  C4  UNL     1      44.363  14.790   1.865  1.00  0.00     0.144 A
HETATM    2  N2  UNL     1      44.536  13.463   1.781  1.00  0.00    -0.175 N
ATOM      3  H2  UNL     1      44.876  12.949   2.594  1.00  0.00     0.186 HD
HETATM    4  C5  UNL     1      44.266  12.787   0.626  1.00  0.00     0.679 A
HETATM    5  N4  UNL     1      43.813  13.435  -0.474  1.00  0.00    -0.169 N
ATOM      6  H4  UNL     1      43.616  12.913  -1.328  1.00  0.00     0.186 HD
HETATM    7  C6  UNL     1      43.620  14.771  -0.441  1.00  0.00     0.183 A
HETATM    8  C10 UNL     1      43.900  15.427   0.729  1.00  0.00     0.129 A
HETATM    9 CL2  UNL     1      43.659  17.154   0.795  1.00  0.00    -0.076 Cl
ENDROOT
BRANCH   1  10
HETATM   10  N1  UNL     1      44.603  15.442   2.907  1.00  0.00    -0.352 N
ATOM     11  H1  UNL     1      43.847  16.083   3.148  1.00  0.00     0.163 HD
BRANCH  10  12
HETATM   12  C2  UNL     1      45.660  15.498   3.817  1.00  0.00     0.101 C
HETATM   13  C1  UNL     1      45.113  15.869   5.202  1.00  0.00     0.056 C
HETATM   14  C3  UNL     1      46.483  14.245   3.982  1.00  0.00     0.056 C
HETATM   15 CL1  UNL     1      46.789  16.815   3.399  1.00  0.00    -0.096 Cl
ENDBRANCH  10  12
ENDBRANCH   1  10
BRANCH   4  16
HETATM   16  N3  UNL     1      44.426  11.513   0.528  1.00  0.00    -0.234 N
ATOM     17  H32 UNL     1      43.938  11.044  -0.234  1.00  0.00     0.174 HD
ATOM     18  H31 UNL     1      45.014  10.991   1.178  1.00  0.00     0.174 HD
ENDBRANCH   4  16
BRANCH   7  19
HETATM   19  O1  UNL     1      43.150  15.441  -1.582  1.00  0.00    -0.333 OA
BRANCH  19  20
HETATM   20  C7  UNL     1      43.240  14.720  -2.795  1.00  0.00     0.193 C
BRANCH  20  21
HETATM   21  C8  UNL     1      41.870  14.432  -3.371  1.00  0.00     0.081 A
HETATM   22  C9  UNL     1      41.557  12.969  -3.739  1.00  0.00     0.091 A
HETATM   23  S1  UNL     1      41.904  14.054  -5.155  1.00  0.00    -0.160 SA
ENDBRANCH  20  21
ENDBRANCH  19  20
ENDBRANCH   7  19
TORSDOF 6
ENDMDL