MODEL 5
REMARK VINA RESULT: -5.586291052      2.788      4.396
REMARK  4 active torsions:
REMARK  status: ('A' for Active; 'I' for Inactive)
REMARK    1  A    between atoms: C2_2  and  N1_3
REMARK    2  A    between atoms: N1_3  and  C3_4
REMARK    3  A    between atoms: N1_3  and  C5_6
REMARK    4  A    between atoms: C9_16  and  N4_17
ROOT
HETATM    1  C5  UNL     1      45.406  10.852   0.300  1.00  0.00     0.086 A
HETATM    2  C6  UNL     1      46.278  10.474   1.362  1.00  0.00     0.132 A
HETATM    3 CL1  UNL     1      46.985   8.848   1.378  1.00  0.00    -0.062 Cl
HETATM    4  N2  UNL     1      46.565  11.319   2.350  1.00  0.00    -0.334 N
ATOM      5  H2  UNL     1      47.195  10.996   3.085  1.00  0.00     0.168 HD
HETATM    6  C7  UNL     1      46.085  12.551   2.441  1.00  0.00     0.133 A
HETATM    7 CL2  UNL     1      46.443  13.673   3.725  1.00  0.00    -0.062 Cl
HETATM    8  C8  UNL     1      45.230  12.975   1.428  1.00  0.00     0.104 A
HETATM    9  N3  UNL     1      44.720  14.216   1.465  1.00  0.00    -0.188 N
ATOM     10  H3  UNL     1      44.964  14.830   2.242  1.00  0.00     0.184 HD
HETATM   11  C9  UNL     1      43.896  14.670   0.505  1.00  0.00     0.678 A
HETATM   12  N5  UNL     1      43.558  13.901  -0.515  1.00  0.00    -0.176 N
ATOM     13  H5  UNL     1      42.931  14.251  -1.239  1.00  0.00     0.186 HD
HETATM   14  C10 UNL     1      44.059  12.620  -0.590  1.00  0.00     0.129 A
HETATM   15  N6  UNL     1      43.735  11.983  -1.553  1.00  0.00    -0.384 N
ATOM     16  H61 UNL     1      44.107  11.035  -1.609  1.00  0.00     0.157 HD
ATOM     17  H62 UNL     1      43.109  12.353  -2.267  1.00  0.00     0.157 HD
HETATM   18  C11 UNL     1      44.911  12.117   0.383  1.00  0.00     0.068 A
ENDROOT
BRANCH   1  19
HETATM   19  N1  UNL     1      45.156   9.858  -0.636  1.00  0.00    -0.378 N
BRANCH  19  20
HETATM   20  C2  UNL     1      45.898   9.511  -1.815  1.00  0.00     0.118 C
HETATM   21  C1  UNL     1      46.961  10.433  -2.276  1.00  0.00     0.026 C
ENDBRANCH  19  20
BRANCH  19  22
HETATM   22  C3  UNL     1      44.098   8.908  -0.301  1.00  0.00     0.118 C
HETATM   23  C4  UNL     1      43.210   8.404  -1.350  1.00  0.00     0.026 C
ENDBRANCH  19  22
ENDBRANCH   1  19
BRANCH  11  24
HETATM   24  N4  UNL     1      43.409  15.882   0.557  1.00  0.00    -0.234 N
ATOM     25  H42 UNL     1      42.424  16.020   0.333  1.00  0.00     0.174 HD
ATOM     26  H41 UNL     1      44.001  16.671   0.818  1.00  0.00     0.174 HD
ENDBRANCH  11  24
TORSDOF 4
ENDMDL