MODEL 2
REMARK VINA RESULT: -6.789284693      1.794      2.197
REMARK  4 active torsions:
REMARK  status: ('A' for Active; 'I' for Inactive)
REMARK    1  A    between atoms: N1_1  and  C1_4
REMARK    2  A    between atoms: C4_14  and  C5_15
REMARK    3  A    between atoms: C5_15  and  C6_16
REMARK    4  A    between atoms: C6_16  and  C7_17
ROOT
HETATM    1  C1  UNL     1      43.677  12.294  -1.792  1.00  0.00     0.132 A
HETATM    2  N2  UNL     1      43.741  10.960  -1.627  1.00  0.00    -0.317 N
ATOM      3  H2  UNL     1      43.587  10.331  -2.415  1.00  0.00     0.170 HD
HETATM    4  C2  UNL     1      44.011  10.470  -0.403  1.00  0.00     0.182 A
HETATM    5 CL1  UNL     1      44.102   8.720  -0.151  1.00  0.00    -0.045 Cl
HETATM    6  N3  UNL     1      44.218  11.303   0.652  1.00  0.00    -0.317 N
ATOM      7  H3  UNL     1      44.423  10.912   1.572  1.00  0.00     0.170 HD
HETATM    8  C3  UNL     1      44.156  12.637   0.492  1.00  0.00     0.140 A
HETATM    9  N4  UNL     1      44.310  13.697   1.323  1.00  0.00    -0.330 N
ATOM     10  H4  UNL     1      44.524  13.617   2.318  1.00  0.00     0.168 HD
HETATM   11  C4  UNL     1      44.151  14.845   0.691  1.00  0.00     0.083 A
HETATM   12  N7  UNL     1      43.881  14.478  -0.611  1.00  0.00    -0.340 N
ATOM     13  H7  UNL     1      43.704  15.133  -1.373  1.00  0.00     0.167 HD
HETATM   14  C10 UNL     1      43.883  13.158  -0.739  1.00  0.00     0.122 A
ENDROOT
BRANCH  11  15
HETATM   15  C5  UNL     1      44.204  16.229   1.153  1.00  0.00     0.083 C
BRANCH  15  16
HETATM   16  C6  UNL     1      43.852  16.510   2.555  1.00  0.00     0.066 C
BRANCH  16  17
HETATM   17  C7  UNL     1      44.871  16.379   3.604  1.00  0.00     0.027 A
HETATM   18  C8  UNL     1      44.752  16.084   4.941  1.00  0.00     0.115 A
HETATM   19  N5  UNL     1      46.022  16.119   5.436  1.00  0.00    -0.341 N
HETATM   20  C9  UNL     1      46.858  16.421   4.435  1.00  0.00     0.179 A
ATOM     21  H5  UNL     1      46.290  15.945   6.404  1.00  0.00     0.167 HD
HETATM   22 CL2  UNL     1      48.618  16.589   4.549  1.00  0.00    -0.045 Cl
HETATM   23  N6  UNL     1      46.191  16.589   3.290  1.00  0.00    -0.335 N
ATOM     24  H6  UNL     1      46.580  16.823   2.377  1.00  0.00     0.168 HD
ENDBRANCH  16  17
ENDBRANCH  15  16
ENDBRANCH  11  15
BRANCH   1  25
HETATM   25  N1  UNL     1      43.416  12.752  -2.973  1.00  0.00    -0.383 N
ATOM     26  H12 UNL     1      43.247  12.112  -3.750  1.00  0.00     0.157 HD
ATOM     27  H11 UNL     1      43.383  13.763  -3.102  1.00  0.00     0.157 HD
ENDBRANCH   1  25
TORSDOF 4
ENDMDL