MODEL 1
REMARK VINA RESULT: -6.650945526      0.000      0.000
REMARK  4 active torsions:
REMARK  status: ('A' for Active; 'I' for Inactive)
REMARK    1  A    between atoms: C4_8  and  C5_9
REMARK    2  A    between atoms: C5_9  and  N3_10
REMARK    3  A    between atoms: N3_10  and  C6_13
REMARK    4  A    between atoms: C13_24  and  N5_25
ROOT
HETATM    1  C1  UNL     1      44.762   9.049  -0.147  1.00  0.00     0.089 C
HETATM    2  C2  UNL     1      44.500  10.506  -0.336  1.00  0.00     0.080 A
HETATM    3  N1  UNL     1      44.406  11.323   0.732  1.00  0.00    -0.330 N
ATOM      4  H1  UNL     1      44.517  10.926   1.665  1.00  0.00     0.168 HD
HETATM    5  C3  UNL     1      44.169  12.645   0.614  1.00  0.00     0.139 A
HETATM    6  N2  UNL     1      44.029  13.668   1.474  1.00  0.00    -0.329 N
ATOM      7  H2  UNL     1      44.087  13.592   2.490  1.00  0.00     0.168 HD
HETATM    8  C4  UNL     1      43.799  14.805   0.798  1.00  0.00     0.109 A
HETATM    9  N4  UNL     1      43.796  14.479  -0.499  1.00  0.00    -0.338 N
ATOM     10  H4  UNL     1      43.645  15.137  -1.263  1.00  0.00     0.167 HD
HETATM   11  C12 UNL     1      44.020  13.167  -0.653  1.00  0.00     0.122 A
HETATM   12  C13 UNL     1      44.124  12.296  -1.712  1.00  0.00     0.131 A
HETATM   13  N6  UNL     1      44.360  10.982  -1.587  1.00  0.00    -0.331 N
ATOM     14  H6  UNL     1      44.430  10.372  -2.402  1.00  0.00     0.168 HD
ENDROOT
BRANCH   8  15
HETATM   15  C5  UNL     1      43.591  16.138   1.428  1.00  0.00     0.308 C
BRANCH  15  16
HETATM   16  N3  UNL     1      44.854  16.723   1.710  1.00  0.00    -0.064 N
ATOM     17  H32 UNL     1      45.513  16.573   0.947  1.00  0.00     0.278 HD
ATOM     18  H31 UNL     1      44.808  17.741   1.683  1.00  0.00     0.278 HD
BRANCH  16  19
HETATM   19  C6  UNL     1      45.385  16.251   2.966  1.00  0.00     0.192 C
HETATM   20  C7  UNL     1      44.415  16.311   4.092  1.00  0.00     0.033 C
HETATM   21  C8  UNL     1      45.074  15.556   5.234  1.00  0.00     0.008 C
HETATM   22  C9  UNL     1      46.310  16.239   5.686  1.00  0.00     0.079 C
HETATM   23  C10 UNL     1      47.187  16.797   4.648  1.00  0.00     0.245 C
HETATM   24  F1  UNL     1      47.753  17.986   5.106  1.00  0.00    -0.206 F
HETATM   25  F2  UNL     1      48.288  15.934   4.502  1.00  0.00    -0.206 F
HETATM   26  C11 UNL     1      46.626  17.033   3.304  1.00  0.00     0.112 C
ENDBRANCH  16  19
ENDBRANCH  15  16
ENDBRANCH   8  15
BRANCH  12  27
HETATM   27  N5  UNL     1      43.988  12.760  -2.908  1.00  0.00    -0.383 N
ATOM     28  H52 UNL     1      44.201  13.747  -3.053  1.00  0.00     0.157 HD
ATOM     29  H51 UNL     1      43.678  12.127  -3.645  1.00  0.00     0.157 HD
ENDBRANCH  12  27
TORSDOF 4
ENDMDL