MODEL 2
REMARK VINA RESULT: -6.688512770      2.394      3.864
REMARK  4 active torsions:
REMARK  status: ('A' for Active; 'I' for Inactive)
REMARK    1  A    between atoms: N1_1  and  C1_4
REMARK    2  A    between atoms: N5_16  and  C5_17
REMARK    3  A    between atoms: C5_17  and  C6_18
REMARK    4  A    between atoms: C6_18  and  C7_19
ROOT
HETATM    1  C1  UNL     1      44.815  17.373  -2.962  1.00  0.00     0.679 A
HETATM    2  N2  UNL     1      45.272  16.447  -3.840  1.00  0.00    -0.175 N
ATOM      3  H2  UNL     1      45.576  16.706  -4.778  1.00  0.00     0.186 HD
HETATM    4  C2  UNL     1      45.304  15.172  -3.416  1.00  0.00     0.145 A
HETATM    5  N3  UNL     1      45.736  14.277  -4.235  1.00  0.00    -0.383 N
ATOM      6  H31 UNL     1      45.761  13.309  -3.913  1.00  0.00     0.157 HD
ATOM      7  H32 UNL     1      46.040  14.540  -5.172  1.00  0.00     0.157 HD
HETATM    8  C3  UNL     1      44.892  14.815  -2.145  1.00  0.00     0.124 A
HETATM    9  N4  UNL     1      44.809  13.664  -1.455  1.00  0.00    -0.326 N
ATOM     10  H4  UNL     1      45.078  12.751  -1.823  1.00  0.00     0.168 HD
HETATM   11  C4  UNL     1      44.322  13.873  -0.209  1.00  0.00     0.183 A
HETATM   12 CL1  UNL     1      44.048  12.650   1.035  1.00  0.00    -0.044 Cl
HETATM   13  N5  UNL     1      44.091  15.192  -0.105  1.00  0.00    -0.307 N
HETATM   14  C12 UNL     1      44.426  15.787  -1.262  1.00  0.00     0.156 A
HETATM   15  N6  UNL     1      44.409  17.053  -1.723  1.00  0.00    -0.174 N
ATOM     16  H6  UNL     1      44.075  17.795  -1.108  1.00  0.00     0.186 HD
ENDROOT
BRANCH  13  17
HETATM   17  C5  UNL     1      43.565  15.835   1.072  1.00  0.00     0.133 C
BRANCH  17  18
HETATM   18  C6  UNL     1      44.645  16.274   2.023  1.00  0.00     0.025 C
BRANCH  18  19
HETATM   19  C7  UNL     1      44.742  15.439   3.249  1.00  0.00    -0.010 C
HETATM   20  C8  UNL     1      46.001  14.658   3.378  1.00  0.00     0.007 C
HETATM   21  C9  UNL     1      46.790  15.201   4.526  1.00  0.00     0.037 C
HETATM   22  C10 UNL     1      46.150  16.518   4.904  1.00  0.00     0.170 C
HETATM   23  F1  UNL     1      46.812  17.582   4.328  1.00  0.00    -0.249 F
HETATM   24  C11 UNL     1      44.728  16.384   4.449  1.00  0.00     0.042 C
ENDBRANCH  18  19
ENDBRANCH  17  18
ENDBRANCH  13  17
BRANCH   1  25
HETATM   25  N1  UNL     1      44.785  18.595  -3.372  1.00  0.00    -0.234 N
ATOM     26  H12 UNL     1      43.897  19.064  -3.553  1.00  0.00     0.174 HD
ATOM     27  H11 UNL     1      45.685  19.056  -3.505  1.00  0.00     0.174 HD
ENDBRANCH   1  25
TORSDOF 4
ENDMDL