MODEL 5
REMARK VINA RESULT: -6.057382388      2.808      4.924
REMARK  7 active torsions:
REMARK  status: ('A' for Active; 'I' for Inactive)
REMARK    1  A    between atoms: C2_2  and  O1_3
REMARK    2  A    between atoms: C2_2  and  C3_5
REMARK    3  A    between atoms: C11_23  and  O2_24
REMARK    4  A    between atoms: C11_23  and  C12_26
REMARK    5  A    between atoms: C12_26  and  O3_27
REMARK    6  A    between atoms: C12_26  and  N5_29
REMARK       I    between atoms: N5_29  and  C13_31
REMARK    7  A    between atoms: C13_31  and  C14_33
ROOT
HETATM    1  C3  UNL     1       6.842  86.642  43.520  1.00  0.00     0.250 C
HETATM    2  N1  UNL     1       6.198  86.580  44.811  1.00  0.00    -0.393 N
ATOM      3  H1  UNL     1       6.627  86.955  45.657  1.00  0.00     0.155 HD
HETATM    4  C4  UNL     1       4.919  85.954  44.813  1.00  0.00     0.144 C
HETATM    5  C5  UNL     1       4.589  85.559  46.237  1.00  0.00     0.251 C
HETATM    6  N2  UNL     1       4.190  84.193  46.378  1.00  0.00    -0.074 N
ATOM      7  H21 UNL     1       4.068  83.752  45.467  1.00  0.00     0.277 HD
ATOM      8  H22 UNL     1       3.233  84.125  46.724  1.00  0.00     0.277 HD
HETATM    9  C6  UNL     1       5.101  83.426  47.210  1.00  0.00     0.234 C
HETATM   10  C7  UNL     1       6.480  83.605  46.629  1.00  0.00     0.055 C
HETATM   11  C8  UNL     1       7.404  82.449  46.915  1.00  0.00     0.234 C
HETATM   12  N3  UNL     1       8.596  82.662  46.093  1.00  0.00    -0.074 N
ATOM     13  H31 UNL     1       9.407  82.188  46.489  1.00  0.00     0.277 HD
ATOM     14  H32 UNL     1       8.923  83.626  46.160  1.00  0.00     0.277 HD
HETATM   15  C9  UNL     1       8.386  82.277  44.718  1.00  0.00     0.251 C
HETATM   16  C10 UNL     1       9.150  83.199  43.753  1.00  0.00     0.146 C
HETATM   17  N4  UNL     1       8.324  84.222  43.277  1.00  0.00    -0.364 N
ATOM     18  H4  UNL     1       7.332  84.027  43.137  1.00  0.00     0.158 HD
HETATM   19  C11 UNL     1       8.805  85.500  42.988  1.00  0.00     0.290 C
HETATM   20  O6  UNL     1       8.211  86.522  43.750  1.00  0.00    -0.308 OA
ENDROOT
BRANCH  19  21
HETATM   21  O2  UNL     1       8.409  85.804  41.656  1.00  0.00    -0.345 OA
ATOM     22  H2  UNL     1       8.868  86.597  41.403  1.00  0.00     0.215 HD
ENDBRANCH  19  21
BRANCH  19  23
HETATM   23  C12 UNL     1      10.272  85.761  43.025  1.00  0.00     0.307 C
BRANCH  23  24
HETATM   24  O3  UNL     1      10.640  86.677  44.043  1.00  0.00    -0.369 OA
ATOM     25  H3  UNL     1       9.998  87.367  44.164  1.00  0.00     0.212 HD
ENDBRANCH  23  24
BRANCH  23  26
HETATM   26  N5  UNL     1      11.126  84.630  42.973  1.00  0.00    -0.323 N
HETATM   27  C13 UNL     1      11.403  83.974  41.748  1.00  0.00     0.281 C
HETATM   28  O4  UNL     1      10.872  84.418  40.698  1.00  0.00    -0.265 OA
ATOM     29  H5  UNL     1      11.549  84.283  43.834  1.00  0.00     0.165 HD
BRANCH  27  30
HETATM   30  C14 UNL     1      12.272  82.811  41.653  1.00  0.00     0.332 C
HETATM   31  O5  UNL     1      13.240  82.834  40.831  1.00  0.00    -0.297 OA
ENDBRANCH  27  30
ENDBRANCH  23  26
ENDBRANCH  19  23
BRANCH   1  32
HETATM   32  C2  UNL     1       6.588  87.971  42.842  1.00  0.00     0.162 C
HETATM   33  C1  UNL     1       5.813  87.855  41.574  1.00  0.00     0.044 C
BRANCH  32  34
HETATM   34  O1  UNL     1       5.910  88.831  43.711  1.00  0.00    -0.392 OA
ATOM     35  H1  UNL     1       5.644  88.344  44.482  1.00  0.00     0.210 HD
ENDBRANCH  32  34
ENDBRANCH   1  32
TORSDOF 7
ENDMDL