MODEL 2
REMARK VINA RESULT: -7.365156794      0.927      1.186
REMARK  11 active torsions:
REMARK  status: ('A' for Active; 'I' for Inactive)
REMARK    1  A    between atoms: N1_2  and  C2_4
REMARK    2  A    between atoms: C2_4  and  N2_6
REMARK    3  A    between atoms: N2_6  and  C3_8
REMARK    4  A    between atoms: C4_11  and  O1_12
REMARK    5  A    between atoms: O1_12  and  C5_13
REMARK    6  A    between atoms: C7_15  and  N4_16
REMARK    7  A    between atoms: C8_20  and  N5_21
REMARK    8  A    between atoms: C10_26  and  N6_27
REMARK    9  A    between atoms: C11_31  and  N7_32
REMARK   10  A    between atoms: C13_37  and  N8_38
REMARK   11  A    between atoms: C14_42  and  O2_43
ROOT
HETATM    1  C3  UNL     1       7.307  84.563  43.083  1.00  0.00     0.212 C
HETATM    2  N3  UNL     1       6.645  85.696  42.610  1.00  0.00    -0.372 N
ATOM      3  H3  UNL     1       5.629  85.686  42.519  1.00  0.00     0.158 HD
HETATM    4  C4  UNL     1       7.404  86.920  42.238  1.00  0.00     0.249 C
HETATM    5  C11 UNL     1       8.773  86.564  42.190  1.00  0.00     0.233 C
HETATM    6  C12 UNL     1      10.085  86.138  42.575  1.00  0.00     0.072 C
HETATM    7  C13 UNL     1       9.914  84.626  42.951  1.00  0.00     0.217 C
HETATM    8  C14 UNL     1       8.597  84.374  43.646  1.00  0.00     0.190 C
ENDROOT
BRANCH   4   9
HETATM    9  O1  UNL     1       6.919  87.251  40.962  1.00  0.00    -0.358 OA
BRANCH   9  10
HETATM   10  C5  UNL     1       5.637  87.754  40.946  1.00  0.00     0.156 C
HETATM   11  C6  UNL     1       5.044  87.427  39.600  1.00  0.00     0.069 C
HETATM   12  C7  UNL     1       3.686  88.073  39.466  1.00  0.00     0.216 C
HETATM   13  C8  UNL     1       3.931  89.550  39.463  1.00  0.00     0.215 C
HETATM   14  C9  UNL     1       4.674  90.078  40.622  1.00  0.00     0.070 C
HETATM   15  C10 UNL     1       5.626  89.190  41.307  1.00  0.00     0.214 C
BRANCH  12  16
HETATM   16  N4  UNL     1       2.760  87.635  40.469  1.00  0.00    -0.073 N
ATOM     17  H43 UNL     1       1.912  87.260  40.044  1.00  0.00     0.274 HD
ATOM     18  H42 UNL     1       3.098  86.793  40.935  1.00  0.00     0.274 HD
ATOM     19  H41 UNL     1       2.538  88.364  41.147  1.00  0.00     0.274 HD
ENDBRANCH  12  16
BRANCH  13  20
HETATM   20  N5  UNL     1       2.661  90.261  39.272  1.00  0.00    -0.073 N
ATOM     21  H53 UNL     1       2.743  91.258  39.473  1.00  0.00     0.274 HD
ATOM     22  H52 UNL     1       2.404  90.332  38.287  1.00  0.00     0.274 HD
ATOM     23  H51 UNL     1       1.931  89.816  39.828  1.00  0.00     0.274 HD
ENDBRANCH  13  20
BRANCH  15  24
HETATM   24  N6  UNL     1       5.501  89.304  42.772  1.00  0.00    -0.072 N
ATOM     25  H63 UNL     1       6.268  89.829  43.191  1.00  0.00     0.274 HD
ATOM     26  H62 UNL     1       4.740  89.923  43.052  1.00  0.00     0.274 HD
ATOM     27  H61 UNL     1       5.408  88.367  43.164  1.00  0.00     0.274 HD
ENDBRANCH  15  24
ENDBRANCH   9  10
ENDBRANCH   4   9
BRANCH   5  28
HETATM   28  N7  UNL     1       8.661  85.618  41.140  1.00  0.00    -0.071 N
ATOM     29  H73 UNL     1       8.647  84.632  41.402  1.00  0.00     0.274 HD
ATOM     30  H72 UNL     1       7.765  85.562  40.657  1.00  0.00     0.274 HD
ATOM     31  H71 UNL     1       9.462  85.945  40.600  1.00  0.00     0.274 HD
ENDBRANCH   5  28
BRANCH   1  32
HETATM   32  N2  UNL     1       6.348  83.961  44.013  1.00  0.00    -0.344 N
ATOM     33  H2  UNL     1       5.832  83.151  43.669  1.00  0.00     0.164 HD
BRANCH  32  34
HETATM   34  C2  UNL     1       6.060  84.370  45.314  1.00  0.00     0.168 C
HETATM   35  S1  UNL     1       4.965  85.563  45.560  1.00  0.00    -0.041 SA
BRANCH  34  36
HETATM   36  N1  UNL     1       6.718  83.817  46.458  1.00  0.00    -0.372 N
HETATM   37  C1  UNL     1       6.158  82.605  47.019  1.00  0.00     0.148 C
ATOM     38  H1  UNL     1       7.546  84.257  46.860  1.00  0.00     0.161 HD
ENDBRANCH  34  36
ENDBRANCH  32  34
ENDBRANCH   1  32
BRANCH   8  39
HETATM   39  O2  UNL     1       8.720  83.077  44.149  1.00  0.00    -0.390 OA
ATOM     40  H2  UNL     1       8.077  82.926  44.831  1.00  0.00     0.210 HD
ENDBRANCH   8  39
BRANCH   7  41
HETATM   41  N8  UNL     1      10.965  84.230  43.858  1.00  0.00    -0.072 N
ATOM     42  H83 UNL     1      11.223  84.981  44.499  1.00  0.00     0.274 HD
ATOM     43  H82 UNL     1      10.641  83.552  44.548  1.00  0.00     0.274 HD
ATOM     44  H81 UNL     1      11.764  83.885  43.328  1.00  0.00     0.274 HD
ENDBRANCH   7  41
TORSDOF 11
ENDMDL