MODEL 5
REMARK VINA RESULT: -5.092006980      3.583      5.083
REMARK  7 active torsions:
REMARK  status: ('A' for Active; 'I' for Inactive)
REMARK       I    between atoms: C1_4  and  N2_5
REMARK       I    between atoms: C1_4  and  N5_14
REMARK    1  A    between atoms: N2_5  and  N3_7
REMARK    2  A    between atoms: N3_7  and  C2_8
REMARK    3  A    between atoms: C2_8  and  C3_9
REMARK    4  A    between atoms: C3_9  and  N4_10
REMARK       I    between atoms: N5_14  and  C4_16
REMARK    5  A    between atoms: C4_16  and  C5_18
REMARK    6  A    between atoms: C5_18  and  O2_19
REMARK    7  A    between atoms: C13_34  and  N8_35
ROOT
HETATM    1  C5  UNL     1       6.772  86.332  41.924  1.00  0.00     0.143 C
HETATM    2  C6  UNL     1       5.836  85.123  41.816  1.00  0.00     0.067 C
HETATM    3  C7  UNL     1       4.589  85.420  42.570  1.00  0.00     0.117 C
HETATM    4  N6  UNL     1       3.503  84.518  42.302  1.00  0.00    -0.419 N
ATOM      5  H6  UNL     1       3.149  83.872  43.008  1.00  0.00     0.153 HD
HETATM    6  C8  UNL     1       2.954  84.582  40.999  1.00  0.00     0.140 C
HETATM    7  C9  UNL     1       1.977  85.687  40.754  1.00  0.00     0.186 C
HETATM    8  O3  UNL     1       2.465  86.950  40.938  1.00  0.00    -0.388 OA
HETATM    9  C10 UNL     1       2.319  87.726  39.818  1.00  0.00     0.187 C
HETATM   10  C11 UNL     1       3.249  88.887  39.718  1.00  0.00     0.148 C
HETATM   11  N7  UNL     1       4.304  88.935  40.670  1.00  0.00    -0.357 N
ATOM     12  H7  UNL     1       4.023  89.139  41.629  1.00  0.00     0.162 HD
HETATM   13  C12 UNL     1       5.687  88.741  40.470  1.00  0.00     0.248 C
HETATM   14  O4  UNL     1       6.517  89.611  40.929  1.00  0.00    -0.271 OA
HETATM   15  C13 UNL     1       6.331  87.616  39.770  1.00  0.00     0.278 C
HETATM   16  C14 UNL     1       7.245  86.780  40.570  1.00  0.00     0.090 C
ENDROOT
BRANCH   1  17
HETATM   17  C4  UNL     1       7.986  85.851  42.627  1.00  0.00     0.270 C
HETATM   18  N5  UNL     1       8.039  84.540  43.138  1.00  0.00    -0.156 N
HETATM   19  C1  UNL     1       9.178  84.033  43.816  1.00  0.00     0.690 C
ATOM     20  H5  UNL     1       7.229  83.933  43.017  1.00  0.00     0.187 HD
HETATM   21  N1  UNL     1       9.186  82.830  44.272  1.00  0.00    -0.234 N
HETATM   22  N2  UNL     1      10.334  84.835  44.009  1.00  0.00    -0.137 N
ATOM     23  H12 UNL     1      10.005  82.465  44.759  1.00  0.00     0.174 HD
ATOM     24  H11 UNL     1       8.356  82.254  44.133  1.00  0.00     0.174 HD
ATOM     25  H2  UNL     1      10.379  85.500  44.781  1.00  0.00     0.201 HD
HETATM   26  O1  UNL     1       8.951  86.639  42.749  1.00  0.00    -0.269 OA
BRANCH  22  27
HETATM   27  N3  UNL     1      11.397  84.701  43.136  1.00  0.00    -0.125 NA
BRANCH  27  28
HETATM   28  C2  UNL     1      11.125  83.875  41.992  1.00  0.00     0.162 C
BRANCH  28  29
HETATM   29  C3  UNL     1      12.415  83.219  41.485  1.00  0.00     0.247 C
BRANCH  29  30
HETATM   30  N4  UNL     1      12.218  82.851  40.084  1.00  0.00    -0.078 N
ATOM     31  H43 UNL     1      11.445  82.198  39.953  1.00  0.00     0.274 HD
ATOM     32  H42 UNL     1      11.845  83.618  39.524  1.00  0.00     0.274 HD
ATOM     33  H41 UNL     1      13.101  82.493  39.723  1.00  0.00     0.274 HD
ENDBRANCH  29  30
ENDBRANCH  28  29
ENDBRANCH  27  28
ENDBRANCH  22  27
ENDBRANCH   1  17
BRANCH   1  34
HETATM   34  O2  UNL     1       6.223  87.344  42.675  1.00  0.00    -0.380 OA
ATOM     35  H2  UNL     1       5.592  87.800  42.132  1.00  0.00     0.211 HD
ENDBRANCH   1  34
BRANCH  15  36
HETATM   36  N8  UNL     1       5.436  86.793  39.004  1.00  0.00    -0.066 N
ATOM     37  H83 UNL     1       5.941  86.330  38.248  1.00  0.00     0.275 HD
ATOM     38  H82 UNL     1       5.149  85.979  39.548  1.00  0.00     0.275 HD
ATOM     39  H81 UNL     1       4.617  87.280  38.637  1.00  0.00     0.275 HD
ENDBRANCH  15  36
TORSDOF 7
ENDMDL