MODEL 3
REMARK VINA RESULT: -8.286887474      3.607      8.250
REMARK  10 active torsions:
REMARK  status: ('A' for Active; 'I' for Inactive)
REMARK    1  A    between atoms: C2_2  and  C3_3
REMARK    2  A    between atoms: C3_3  and  N1_4
REMARK    3  A    between atoms: N1_4  and  C4_6
REMARK    4  A    between atoms: C4_6  and  N2_8
REMARK    5  A    between atoms: N2_8  and  N3_10
REMARK       I    between atoms: N3_10  and  C5_12
REMARK       I    between atoms: C5_12  and  N4_14
REMARK    6  A    between atoms: N4_14  and  N5_16
REMARK       I    between atoms: N5_16  and  C6_18
REMARK       I    between atoms: C6_18  and  N6_20
REMARK    7  A    between atoms: N6_20  and  N7_22
REMARK       I    between atoms: N7_22  and  C7_24
REMARK    8  A    between atoms: C7_24  and  C8_26
REMARK    9  A    between atoms: C9_30  and  O4_31
REMARK   10  A    between atoms: C9_30  and  O5_33
ROOT
HETATM    1  N5  UNL     1       8.102  88.405  40.078  1.00  0.00    -0.246 N
ATOM      2  H5  UNL     1       7.954  89.412  40.156  1.00  0.00     0.192 HD
HETATM    3  C6  UNL     1       7.023  87.559  39.713  1.00  0.00     0.353 C
HETATM    4  O2  UNL     1       7.155  86.308  39.616  1.00  0.00    -0.244 OA
HETATM    5  N6  UNL     1       5.758  88.138  39.448  1.00  0.00    -0.248 N
ATOM      6  H6  UNL     1       5.620  89.146  39.522  1.00  0.00     0.192 HD
ENDROOT
BRANCH   1   7
HETATM    7  N4  UNL     1       9.383  87.861  40.334  1.00  0.00    -0.246 N
HETATM    8  C5  UNL     1       9.716  87.152  41.493  1.00  0.00     0.353 C
HETATM    9  N3  UNL     1      10.986  86.633  41.736  1.00  0.00    -0.248 N
HETATM   10  O1  UNL     1       8.797  86.979  42.372  1.00  0.00    -0.244 OA
ATOM     11  H3  UNL     1      11.714  86.775  41.036  1.00  0.00     0.192 HD
ATOM     12  H4  UNL     1      10.109  87.994  39.630  1.00  0.00     0.192 HD
BRANCH   9  13
HETATM   13  N2  UNL     1      11.305  85.924  42.898  1.00  0.00    -0.272 N
ATOM     14  H2  UNL     1      11.598  86.463  43.713  1.00  0.00     0.189 HD
BRANCH  13  15
HETATM   15  C4  UNL     1      11.253  84.518  43.030  1.00  0.00     0.186 C
HETATM   16  S1  UNL     1      12.226  83.599  42.118  1.00  0.00    -0.040 SA
BRANCH  15  17
HETATM   17  N1  UNL     1      10.380  83.931  43.967  1.00  0.00    -0.366 N
ATOM     18  H1  UNL     1      10.782  83.550  44.824  1.00  0.00     0.161 HD
BRANCH  17  19
HETATM   19  C3  UNL     1       8.963  83.839  43.789  1.00  0.00     0.121 C
BRANCH  19  20
HETATM   20  C2  UNL     1       8.347  82.797  44.684  1.00  0.00     0.015 C
HETATM   21  C1  UNL     1       6.929  83.217  45.053  1.00  0.00     0.006 C
ENDBRANCH  19  20
ENDBRANCH  17  19
ENDBRANCH  15  17
ENDBRANCH  13  15
ENDBRANCH   9  13
ENDBRANCH   1   7
BRANCH   5  22
HETATM   22  N7  UNL     1       4.699  87.296  39.082  1.00  0.00    -0.262 N
HETATM   23  C7  UNL     1       3.447  87.495  39.694  1.00  0.00     0.293 C
HETATM   24  O3  UNL     1       3.293  88.400  40.535  1.00  0.00    -0.267 OA
ATOM     25  H7  UNL     1       4.832  86.559  38.390  1.00  0.00     0.190 HD
BRANCH  23  26
HETATM   26  C8  UNL     1       2.320  86.596  39.309  1.00  0.00     0.431 C
HETATM   27  N8  UNL     1       1.147  86.737  40.121  1.00  0.00     0.045 N
HETATM   28  C9  UNL     1       1.264  85.331  40.350  1.00  0.00     0.464 C
ATOM     29  H82 UNL     1       1.102  87.405  40.891  1.00  0.00     0.290 HD
ATOM     30  H81 UNL     1       0.290  87.155  39.761  1.00  0.00     0.290 HD
HETATM   31  O6  UNL     1       2.528  85.337  39.821  1.00  0.00    -0.267 OA
BRANCH  28  32
HETATM   32  O4  UNL     1       1.185  84.956  41.696  1.00  0.00    -0.320 OA
ATOM     33  H4  UNL     1       0.328  85.083  42.088  1.00  0.00     0.217 HD
ENDBRANCH  28  32
BRANCH  28  34
HETATM   34  O5  UNL     1       0.436  84.546  39.516  1.00  0.00    -0.320 OA
ATOM     35  H5  UNL     1       0.882  83.806  39.120  1.00  0.00     0.217 HD
ENDBRANCH  28  34
ENDBRANCH  23  26
ENDBRANCH   5  22
TORSDOF 10
ENDMDL