MODEL 3
REMARK VINA RESULT: -8.356059757      3.543      7.705
REMARK  9 active torsions:
REMARK  status: ('A' for Active; 'I' for Inactive)
REMARK       I    between atoms: C1_4  and  N2_5
REMARK       I    between atoms: C1_4  and  N8_31
REMARK    1  A    between atoms: N2_5  and  N3_7
REMARK    2  A    between atoms: N3_7  and  C2_9
REMARK    3  A    between atoms: C2_9  and  N4_11
REMARK    4  A    between atoms: N4_11  and  C3_13
REMARK    5  A    between atoms: C4_15  and  C5_16
REMARK    6  A    between atoms: C5_16  and  O2_17
REMARK    7  A    between atoms: C6_19  and  N5_20
REMARK       I    between atoms: N5_20  and  C7_22
REMARK    8  A    between atoms: C9_26  and  N7_27
REMARK    9  A    between atoms: N8_31  and  N9_33
ROOT
HETATM    1  C3  UNL     1       6.590  86.594  43.336  1.00  0.00     0.254 C
HETATM    2  O1  UNL     1       7.270  86.657  42.130  1.00  0.00    -0.355 OA
HETATM    3  C4  UNL     1       6.504  87.140  41.090  1.00  0.00     0.170 C
HETATM    4  C6  UNL     1       5.693  88.334  41.412  1.00  0.00     0.119 C
HETATM    5  C8  UNL     1       5.989  88.949  42.759  1.00  0.00     0.065 C
HETATM    6  C9  UNL     1       6.204  87.956  43.850  1.00  0.00     0.234 C
ENDROOT
BRANCH   1   7
HETATM    7  N4  UNL     1       7.491  86.001  44.304  1.00  0.00    -0.338 N
ATOM      8  H4  UNL     1       7.904  86.605  45.016  1.00  0.00     0.164 HD
BRANCH   7   9
HETATM    9  C2  UNL     1       7.824  84.633  44.311  1.00  0.00     0.189 C
HETATM   10  S1  UNL     1       6.874  83.612  45.146  1.00  0.00    -0.039 SA
BRANCH   9  11
HETATM   11  N3  UNL     1       8.943  84.158  43.617  1.00  0.00    -0.262 N
ATOM     12  H3  UNL     1       9.189  83.169  43.669  1.00  0.00     0.190 HD
BRANCH  11  13
HETATM   13  N2  UNL     1       9.722  85.022  42.859  1.00  0.00    -0.129 N
HETATM   14  C1  UNL     1      11.117  84.974  42.762  1.00  0.00     0.709 C
HETATM   15  N1  UNL     1      11.774  86.053  42.538  1.00  0.00    -0.232 N
HETATM   16  N8  UNL     1      11.876  83.769  42.900  1.00  0.00    -0.071 N
ATOM     17  H12 UNL     1      11.233  86.912  42.439  1.00  0.00     0.174 HD
ATOM     18  H11 UNL     1      12.791  86.019  42.467  1.00  0.00     0.174 HD
ATOM     19  H8  UNL     1      11.944  83.341  43.823  1.00  0.00     0.212 HD
ATOM     20  H2  UNL     1       9.239  85.749  42.331  1.00  0.00     0.205 HD
BRANCH  16  21
HETATM   21  N9  UNL     1      12.520  83.159  41.842  1.00  0.00    -0.024 N
HETATM   22  O4  UNL     1      13.591  83.612  41.416  1.00  0.00    -0.516 OA
HETATM   23  O5  UNL     1      11.987  82.050  41.252  1.00  0.00    -0.516 OA
ENDBRANCH  16  21
ENDBRANCH  11  13
ENDBRANCH   9  11
ENDBRANCH   7   9
ENDBRANCH   1   7
BRANCH   6  24
HETATM   24  N7  UNL     1       5.053  87.809  44.717  1.00  0.00    -0.071 N
ATOM     25  H73 UNL     1       5.075  86.941  45.253  1.00  0.00     0.274 HD
ATOM     26  H72 UNL     1       5.069  88.458  45.504  1.00  0.00     0.274 HD
ATOM     27  H71 UNL     1       4.210  87.899  44.150  1.00  0.00     0.274 HD
ENDBRANCH   6  24
BRANCH   3  28
HETATM   28  C5  UNL     1       7.470  87.368  39.918  1.00  0.00     0.198 C
BRANCH  28  29
HETATM   29  O2  UNL     1       8.397  88.347  40.183  1.00  0.00    -0.398 OA
ATOM     30  H2  UNL     1       9.132  88.324  39.582  1.00  0.00     0.209 HD
ENDBRANCH  28  29
ENDBRANCH   3  28
BRANCH   4  31
HETATM   31  N5  UNL     1       5.790  89.392  40.442  1.00  0.00    -0.338 N
HETATM   32  C7  UNL     1       4.641  89.986  39.833  1.00  0.00     0.329 C
HETATM   33  N6  UNL     1       4.724  91.018  38.887  1.00  0.00    -0.040 NA
HETATM   34  O3  UNL     1       3.521  89.557  40.171  1.00  0.00    -0.251 OA
ATOM     35  H5  UNL     1       6.716  89.731  40.178  1.00  0.00     0.164 HD
ENDBRANCH   4  31
TORSDOF 9
ENDMDL