MODEL 5
REMARK VINA RESULT: -7.346915050      1.745      2.075
REMARK  7 active torsions:
REMARK  status: ('A' for Active; 'I' for Inactive)
REMARK       I    between atoms: N1_2  and  C2_4
REMARK       I    between atoms: C2_4  and  N2_6
REMARK    1  A    between atoms: N2_6  and  N3_7
REMARK    2  A    between atoms: N2_6  and  N13_35
REMARK       I    between atoms: N4_9  and  C3_11
REMARK       I    between atoms: C3_11  and  N5_13
REMARK    3  A    between atoms: N5_13  and  N6_15
REMARK    4  A    between atoms: C4_17  and  C5_18
REMARK    5  A    between atoms: C7_23  and  N9_24
REMARK    6  A    between atoms: C8_29  and  N11_30
REMARK    7  A    between atoms: N11_30  and  N12_32
ROOT
HETATM    1  N6  UNL     1       7.761  86.152  42.171  1.00  0.00    -0.307 N
ATOM      2  H6  UNL     1       8.436  86.161  41.407  1.00  0.00     0.186 HD
HETATM    3  C4  UNL     1       8.315  85.698  43.176  1.00  0.00     0.126 C
ENDROOT
BRANCH   1   4
HETATM    4  N5  UNL     1       6.607  86.634  41.720  1.00  0.00    -0.251 N
HETATM    5  C3  UNL     1       6.290  86.608  40.325  1.00  0.00     0.354 C
HETATM    6  N4  UNL     1       5.060  87.152  39.908  1.00  0.00    -0.234 N
HETATM    7  O2  UNL     1       7.098  86.112  39.526  1.00  0.00    -0.244 OA
HETATM    8  N3  UNL     1       3.996  86.442  39.863  1.00  0.00    -0.213 N
ATOM      9  H4  UNL     1       5.015  88.133  39.635  1.00  0.00     0.193 HD
ATOM     10  H3  UNL     1       3.952  85.456  40.118  1.00  0.00     0.210 HD
ATOM     11  H5  UNL     1       5.937  87.030  42.379  1.00  0.00     0.191 HD
BRANCH   8  12
HETATM   12  N2  UNL     1       2.876  87.209  39.410  1.00  0.00    -0.125 N
HETATM   13  C2  UNL     1       1.616  86.587  39.370  1.00  0.00     0.357 C
HETATM   14  N1  UNL     1       0.463  87.325  38.948  1.00  0.00    -0.344 N
HETATM   15  O1  UNL     1       1.522  85.378  39.713  1.00  0.00    -0.243 OA
HETATM   16  C1  UNL     1      -0.812  86.641  38.924  1.00  0.00     0.151 C
ATOM     17  H1  UNL     1       0.538  88.305  38.672  1.00  0.00     0.163 HD
BRANCH  12  18
HETATM   18  N13 UNL     1       3.139  88.518  39.054  1.00  0.00    -0.249 N
HETATM   19  C9  UNL     1       3.550  89.386  39.907  1.00  0.00     0.217 C
HETATM   20  N14 UNL     1       3.761  89.063  41.275  1.00  0.00    -0.065 NA
HETATM   21  N15 UNL     1       3.782  90.705  39.423  1.00  0.00    -0.065 NA
ATOM     22  H13 UNL     1       3.003  88.804  38.084  1.00  0.00     0.191 HD
ENDBRANCH  12  18
ENDBRANCH   8  12
ENDBRANCH   1   4
BRANCH   3  23
HETATM   23  C5  UNL     1       9.746  85.314  43.045  1.00  0.00     0.068 A
HETATM   24  C6  UNL     1      10.699  86.225  42.631  1.00  0.00     0.147 A
HETATM   25  N7  UNL     1      10.267  87.559  42.369  1.00  0.00    -0.081 NA
HETATM   26  N8  UNL     1      12.005  85.866  42.486  1.00  0.00    -0.178 N
HETATM   27  C7  UNL     1      12.388  84.607  42.748  1.00  0.00     0.678 A
ATOM     28  H8  UNL     1      12.693  86.555  42.179  1.00  0.00     0.185 HD
HETATM   29  N10 UNL     1      11.454  83.725  43.150  1.00  0.00    -0.175 N
HETATM   30  C8  UNL     1      10.161  84.019  43.312  1.00  0.00     0.150 A
ATOM     31  H10 UNL     1      11.753  82.769  43.344  1.00  0.00     0.186 HD
BRANCH  27  32
HETATM   32  N9  UNL     1      13.648  84.219  42.625  1.00  0.00    -0.234 N
ATOM     33  H92 UNL     1      14.013  83.486  43.232  1.00  0.00     0.174 HD
ATOM     34  H91 UNL     1      14.276  84.636  41.938  1.00  0.00     0.174 HD
ENDBRANCH  27  32
BRANCH  30  35
HETATM   35  N11 UNL     1       9.258  83.180  43.708  1.00  0.00    -0.291 N
ATOM     36  H11 UNL     1       8.589  82.768  43.057  1.00  0.00     0.188 HD
BRANCH  35  37
HETATM   37  N12 UNL     1       9.240  82.858  45.083  1.00  0.00    -0.344 N
ATOM     38 2H12 UNL     1       8.388  82.975  45.633  1.00  0.00     0.176 HD
ATOM     39 1H12 UNL     1      10.109  82.511  45.489  1.00  0.00     0.176 HD
ENDBRANCH  35  37
ENDBRANCH  30  35
ENDBRANCH   3  23
TORSDOF 7
ENDMDL