MODEL 5
REMARK VINA RESULT: -6.837782930      2.730      5.072
REMARK  11 active torsions:
REMARK  status: ('A' for Active; 'I' for Inactive)
REMARK    1  A    between atoms: S1_2  and  C2_3
REMARK    2  A    between atoms: C2_3  and  N3_9
REMARK    3  A    between atoms: N1_4  and  N2_6
REMARK    4  A    between atoms: N3_9  and  C3_11
REMARK    5  A    between atoms: C6_14  and  N4_15
REMARK    6  A    between atoms: C7_19  and  O1_20
REMARK    7  A    between atoms: C8_22  and  N5_23
REMARK    8  A    between atoms: C9_27  and  N6_28
REMARK       I    between atoms: N6_28  and  C10_30
REMARK    9  A    between atoms: C10_30  and  C11_32
REMARK   10  A    between atoms: C11_32  and  N7_33
REMARK   11  A    between atoms: C11_32  and  C12_37
ROOT
HETATM    1  C3  UNL     1       7.776  83.950  44.064  1.00  0.00     0.108 C
HETATM    2  C4  UNL     1       7.767  82.921  45.158  1.00  0.00     0.029 C
HETATM    3  C5  UNL     1       7.599  83.478  46.530  1.00  0.00     0.037 C
HETATM    4  C6  UNL     1       6.168  83.553  46.898  1.00  0.00     0.214 C
HETATM    5  C7  UNL     1       5.229  84.164  45.971  1.00  0.00     0.181 C
HETATM    6  C8  UNL     1       5.774  85.176  45.003  1.00  0.00     0.238 C
HETATM    7  C9  UNL     1       6.456  84.596  43.827  1.00  0.00     0.140 C
ENDROOT
BRANCH   7   8
HETATM    8  N6  UNL     1       6.608  85.618  42.816  1.00  0.00    -0.350 N
HETATM    9  C10 UNL     1       5.628  85.833  41.811  1.00  0.00     0.257 C
HETATM   10  O2  UNL     1       4.597  85.116  41.796  1.00  0.00    -0.271 OA
ATOM     11  H6  UNL     1       7.445  86.203  42.825  1.00  0.00     0.163 HD
BRANCH   9  12
HETATM   12  C11 UNL     1       5.811  86.890  40.785  1.00  0.00     0.362 C
BRANCH  12  13
HETATM   13  N7  UNL     1       6.876  86.475  39.880  1.00  0.00    -0.058 N
ATOM     14  H73 UNL     1       6.981  87.103  39.083  1.00  0.00     0.275 HD
ATOM     15  H72 UNL     1       7.804  86.605  40.282  1.00  0.00     0.275 HD
ATOM     16  H71 UNL     1       6.702  85.510  39.599  1.00  0.00     0.275 HD
ENDBRANCH  12  13
BRANCH  12  17
HETATM   17  C12 UNL     1       6.054  88.213  41.359  1.00  0.00     0.271 C
HETATM   18  N8  UNL     1       5.775  88.500  42.722  1.00  0.00    -0.060 NA
HETATM   19  O3  UNL     1       6.519  89.125  40.644  1.00  0.00    -0.274 OA
ENDBRANCH  12  17
ENDBRANCH   9  12
ENDBRANCH   7   8
BRANCH   1  20
HETATM   20  N3  UNL     1       8.880  84.858  44.147  1.00  0.00    -0.363 N
ATOM     21  H3  UNL     1       8.878  85.587  44.860  1.00  0.00     0.162 HD
BRANCH  20  22
HETATM   22  C2  UNL     1       9.985  84.758  43.244  1.00  0.00     0.154 C
HETATM   23  N1  UNL     1      11.002  84.169  43.675  1.00  0.00    -0.287 N
ATOM     24  H1  UNL     1      10.952  83.815  44.631  1.00  0.00     0.188 HD
BRANCH  22  25
HETATM   25  S1  UNL     1       9.850  85.447  41.631  1.00  0.00    -0.097 SA
HETATM   26  C1  UNL     1       9.869  87.239  41.639  1.00  0.00     0.099 C
ENDBRANCH  22  25
BRANCH  23  27
HETATM   27  N2  UNL     1      12.170  83.949  43.007  1.00  0.00    -0.343 N
ATOM     28  H22 UNL     1      12.078  83.462  42.115  1.00  0.00     0.176 HD
ATOM     29  H21 UNL     1      13.109  84.217  43.304  1.00  0.00     0.176 HD
ENDBRANCH  23  27
ENDBRANCH  20  22
ENDBRANCH   1  20
BRANCH   6  30
HETATM   30  N5  UNL     1       6.471  86.204  45.690  1.00  0.00    -0.070 N
ATOM     31  H53 UNL     1       5.868  87.003  45.888  1.00  0.00     0.274 HD
ATOM     32  H52 UNL     1       6.690  85.936  46.650  1.00  0.00     0.274 HD
ATOM     33  H51 UNL     1       7.307  86.481  45.175  1.00  0.00     0.274 HD
ENDBRANCH   6  30
BRANCH   5  34
HETATM   34  O1  UNL     1       4.206  84.819  46.696  1.00  0.00    -0.391 OA
ATOM     35  H1  UNL     1       3.631  85.276  46.093  1.00  0.00     0.210 HD
ENDBRANCH   5  34
BRANCH   4  36
HETATM   36  N4  UNL     1       5.728  82.177  47.185  1.00  0.00    -0.072 N
ATOM     37  H43 UNL     1       5.176  81.767  46.432  1.00  0.00     0.274 HD
ATOM     38  H42 UNL     1       6.491  81.500  47.170  1.00  0.00     0.274 HD
ATOM     39  H41 UNL     1       5.233  82.204  48.077  1.00  0.00     0.274 HD
ENDBRANCH   4  36
TORSDOF 11
ENDMDL