MODEL 2
REMARK VINA RESULT: -8.606120135      3.288      5.715
REMARK  5 active torsions:
REMARK  status: ('A' for Active; 'I' for Inactive)
REMARK       I    between atoms: N1_2  and  C2_4
REMARK    1  A    between atoms: C2_4  and  C3_6
REMARK    2  A    between atoms: C7_10  and  N2_11
REMARK    3  A    between atoms: C9_18  and  O2_19
REMARK    4  A    between atoms: C10_24  and  N6_25
REMARK       I    between atoms: N6_25  and  C11_27
REMARK       I    between atoms: C11_27  and  N8_31
REMARK    5  A    between atoms: N8_31  and  N9_33
ROOT
HETATM    1  N2  UNL     1       7.161  87.014  40.929  1.00  0.00    -0.144 N
HETATM    2  C8  UNL     1       8.479  87.280  40.467  1.00  0.00     0.678 C
HETATM    3  N3  UNL     1       8.818  88.285  39.738  1.00  0.00    -0.235 N
ATOM      4  H31 UNL     1       9.764  88.477  39.406  1.00  0.00     0.174 HD
ATOM      5  H32 UNL     1       8.057  88.917  39.490  1.00  0.00     0.174 HD
HETATM    6  N4  UNL     1       9.554  86.387  40.818  1.00  0.00    -0.174 N
ATOM      7  H4  UNL     1      10.395  86.310  40.246  1.00  0.00     0.182 HD
HETATM    8  C9  UNL     1       9.379  85.606  42.021  1.00  0.00     0.445 C
HETATM    9  N5  UNL     1       8.049  85.063  42.009  1.00  0.00     0.009 N
ATOM     10  H51 UNL     1       7.917  84.382  42.757  1.00  0.00     0.287 HD
ATOM     11  H52 UNL     1       7.903  84.449  41.208  1.00  0.00     0.287 HD
HETATM   12  C10 UNL     1       7.047  86.111  42.063  1.00  0.00     0.427 C
ENDROOT
BRANCH   1  13
HETATM   13  C7  UNL     1       6.083  87.644  40.244  1.00  0.00     0.245 C
HETATM   14  C6  UNL     1       5.990  89.126  40.465  1.00  0.00     0.055 C
HETATM   15  C5  UNL     1       4.934  89.660  39.517  1.00  0.00     0.007 C
HETATM   16  C4  UNL     1       3.623  88.925  39.662  1.00  0.00     0.042 C
HETATM   17  C3  UNL     1       3.940  87.454  39.627  1.00  0.00     0.216 C
HETATM   18  O5  UNL     1       4.837  87.111  40.635  1.00  0.00    -0.351 OA
BRANCH  17  19
HETATM   19  C2  UNL     1       2.743  86.605  39.619  1.00  0.00     0.246 C
HETATM   20  N1  UNL     1       2.565  85.480  40.462  1.00  0.00    -0.363 N
HETATM   21  C1  UNL     1       1.399  84.650  40.457  1.00  0.00     0.149 C
ATOM     22  H1  UNL     1       3.314  85.248  41.113  1.00  0.00     0.162 HD
HETATM   23  O1  UNL     1       1.817  86.881  38.824  1.00  0.00    -0.271 OA
ENDBRANCH  17  19
ENDBRANCH   1  13
BRANCH  12  24
HETATM   24  N6  UNL     1       7.182  86.779  43.321  1.00  0.00    -0.178 N
HETATM   25  C11 UNL     1       6.218  86.554  44.340  1.00  0.00     0.694 C
HETATM   26  N7  UNL     1       4.969  86.738  44.055  1.00  0.00    -0.233 N
HETATM   27  N8  UNL     1       6.555  86.138  45.657  1.00  0.00    -0.072 N
ATOM     28  H72 UNL     1       4.726  87.036  43.111  1.00  0.00     0.174 HD
ATOM     29  H71 UNL     1       4.276  86.577  44.786  1.00  0.00     0.174 HD
ATOM     30  H8  UNL     1       7.202  86.699  46.211  1.00  0.00     0.212 HD
ATOM     31  H6  UNL     1       7.965  87.412  43.486  1.00  0.00     0.181 HD
BRANCH  27  32
HETATM   32  N9  UNL     1       6.012  84.971  46.204  1.00  0.00    -0.024 N
HETATM   33  O3  UNL     1       6.697  83.955  46.399  1.00  0.00    -0.516 OA
HETATM   34  O4  UNL     1       4.671  84.906  46.551  1.00  0.00    -0.516 OA
ENDBRANCH  27  32
ENDBRANCH  12  24
BRANCH   8  35
HETATM   35  O2  UNL     1      10.315  84.587  42.130  1.00  0.00    -0.354 OA
ATOM     36  H2  UNL     1      10.841  84.662  42.918  1.00  0.00     0.214 HD
ENDBRANCH   8  35
TORSDOF 5
ENDMDL