MODEL 3
REMARK VINA RESULT: -6.555083398      1.451      5.820
REMARK  12 active torsions:
REMARK  status: ('A' for Active; 'I' for Inactive)
REMARK    1  A    between atoms: N1_1  and  C1_5
REMARK    2  A    between atoms: C3_7  and  N2_8
REMARK    3  A    between atoms: C5_13  and  N3_14
REMARK       I    between atoms: N3_14  and  C6_16
REMARK    4  A    between atoms: C6_16  and  C7_18
REMARK    5  A    between atoms: C7_18  and  N4_19
REMARK    6  A    between atoms: C7_18  and  C8_23
REMARK    7  A    between atoms: C8_23  and  C9_24
REMARK    8  A    between atoms: C9_24  and  O2_25
REMARK    9  A    between atoms: C9_24  and  C10_27
REMARK   10  A    between atoms: C12_32  and  N6_33
REMARK   11  A    between atoms: C14_38  and  N7_39
REMARK   12  A    between atoms: C15_43  and  N8_44
ROOT
HETATM    1  C7  UNL     1       9.497  85.813  41.363  1.00  0.00     0.277 C
ENDROOT
BRANCH   1   2
HETATM    2  C6  UNL     1       8.630  86.614  40.440  1.00  0.00     0.248 C
HETATM    3  N3  UNL     1       7.291  86.875  40.741  1.00  0.00    -0.353 N
ATOM      4  H3  UNL     1       6.941  86.492  41.619  1.00  0.00     0.163 HD
HETATM    5  O1  UNL     1       9.231  87.000  39.415  1.00  0.00    -0.271 OA
BRANCH   3   6
HETATM    6  C5  UNL     1       6.345  87.633  39.942  1.00  0.00     0.116 C
HETATM    7  C4  UNL     1       6.315  89.072  40.267  1.00  0.00     0.060 C
HETATM    8  C3  UNL     1       5.102  89.873  40.141  1.00  0.00     0.187 C
HETATM    9  C2  UNL     1       4.060  89.434  39.162  1.00  0.00     0.065 C
HETATM   10  C1  UNL     1       3.176  88.341  39.652  1.00  0.00     0.187 C
HETATM   11  C16 UNL     1       3.894  87.333  40.535  1.00  0.00     0.067 C
HETATM   12  C15 UNL     1       5.098  86.874  39.802  1.00  0.00     0.208 C
BRANCH   8  13
HETATM   13  N2  UNL     1       4.499  90.180  41.456  1.00  0.00    -0.075 N
ATOM     14  H23 UNL     1       3.786  90.906  41.382  1.00  0.00     0.274 HD
ATOM     15  H22 UNL     1       3.910  89.416  41.788  1.00  0.00     0.274 HD
ATOM     16  H21 UNL     1       5.216  90.426  42.139  1.00  0.00     0.274 HD
ENDBRANCH   8  13
BRANCH  10  17
HETATM   17  N1  UNL     1       1.974  88.802  40.298  1.00  0.00    -0.075 N
ATOM     18  H13 UNL     1       1.882  88.384  41.223  1.00  0.00     0.274 HD
ATOM     19  H12 UNL     1       2.062  89.783  40.560  1.00  0.00     0.274 HD
ATOM     20  H11 UNL     1       1.124  88.652  39.753  1.00  0.00     0.274 HD
ENDBRANCH  10  17
BRANCH  12  21
HETATM   21  N8  UNL     1       4.662  86.684  38.400  1.00  0.00    -0.073 N
ATOM     22  H83 UNL     1       5.189  85.930  37.960  1.00  0.00     0.274 HD
ATOM     23  H82 UNL     1       3.726  86.281  38.368  1.00  0.00     0.274 HD
ATOM     24  H81 UNL     1       4.708  87.531  37.833  1.00  0.00     0.274 HD
ENDBRANCH  12  21
ENDBRANCH   3   6
ENDBRANCH   1   2
BRANCH   1  25
HETATM   25  N4  UNL     1      10.097  84.765  40.575  1.00  0.00    -0.066 N
ATOM     26  H43 UNL     1       9.580  83.887  40.619  1.00  0.00     0.275 HD
ATOM     27  H42 UNL     1      10.009  84.919  39.571  1.00  0.00     0.275 HD
ATOM     28  H41 UNL     1      11.065  84.675  40.885  1.00  0.00     0.275 HD
ENDBRANCH   1  25
BRANCH   1  29
HETATM   29  C8  UNL     1       8.794  85.257  42.521  1.00  0.00     0.076 C
BRANCH  29  30
HETATM   30  C9  UNL     1       8.131  86.298  43.357  1.00  0.00     0.153 C
BRANCH  30  31
HETATM   31  O2  UNL     1       8.949  87.396  43.656  1.00  0.00    -0.393 OA
ATOM     32  H2  UNL     1       9.673  87.192  44.236  1.00  0.00     0.210 HD
ENDBRANCH  30  31
BRANCH  30  33
HETATM   33  C10 UNL     1       7.427  85.828  44.567  1.00  0.00     0.244 C
HETATM   34  N5  UNL     1       6.759  84.557  44.264  1.00  0.00    -0.065 N
HETATM   35  C11 UNL     1       6.192  83.946  45.460  1.00  0.00     0.265 C
ATOM     36  H52 UNL     1       6.054  84.672  43.536  1.00  0.00     0.277 HD
ATOM     37  H51 UNL     1       7.385  83.914  43.779  1.00  0.00     0.277 HD
HETATM   38  C12 UNL     1       5.333  84.940  46.217  1.00  0.00     0.211 C
HETATM   39  C13 UNL     1       5.007  86.037  45.213  1.00  0.00     0.069 C
HETATM   40  C14 UNL     1       6.296  86.778  44.941  1.00  0.00     0.218 C
BRANCH  38  41
HETATM   41  N6  UNL     1       4.131  84.363  46.744  1.00  0.00    -0.073 N
ATOM     42  H63 UNL     1       4.232  84.161  47.739  1.00  0.00     0.274 HD
ATOM     43  H62 UNL     1       3.385  85.058  46.789  1.00  0.00     0.274 HD
ATOM     44  H61 UNL     1       3.825  83.534  46.235  1.00  0.00     0.274 HD
ENDBRANCH  38  41
BRANCH  40  45
HETATM   45  N7  UNL     1       6.030  87.777  43.956  1.00  0.00    -0.073 N
ATOM     46  H73 UNL     1       6.404  88.679  44.251  1.00  0.00     0.274 HD
ATOM     47  H72 UNL     1       6.597  87.620  43.123  1.00  0.00     0.274 HD
ATOM     48  H71 UNL     1       5.044  87.861  43.708  1.00  0.00     0.274 HD
ENDBRANCH  40  45
ENDBRANCH  30  33
ENDBRANCH  29  30
ENDBRANCH   1  29
TORSDOF 12
ENDMDL