MODEL 2
REMARK VINA RESULT: -7.315336815      4.166      8.470
REMARK  8 active torsions:
REMARK  status: ('A' for Active; 'I' for Inactive)
REMARK    1  A    between atoms: C2_2  and  O1_3
REMARK    2  A    between atoms: C2_2  and  C3_5
REMARK    3  A    between atoms: C3_5  and  N2_17
REMARK    4  A    between atoms: C4_6  and  C5_7
REMARK    5  A    between atoms: C5_7  and  N1_8
REMARK    6  A    between atoms: C5_7  and  C6_12
REMARK    7  A    between atoms: C6_12  and  O2_13
REMARK    8  A    between atoms: C6_12  and  O3_15
ROOT
HETATM    1  N2  UNL     1       5.264  87.267  39.642  1.00  0.00    -0.344 N
ATOM      2  H2  UNL     1       5.692  87.432  38.731  1.00  0.00     0.167 HD
HETATM    3  C7  UNL     1       6.017  86.720  40.510  1.00  0.00     0.079 C
HETATM    4  C8  UNL     1       5.601  86.394  41.878  1.00  0.00     0.103 C
HETATM    5  C9  UNL     1       6.167  85.075  42.391  1.00  0.00     0.239 C
HETATM    6  N3  UNL     1       6.482  85.184  43.784  1.00  0.00    -0.075 N
ATOM      7  H31 UNL     1       5.755  85.702  44.276  1.00  0.00     0.277 HD
ATOM      8  H32 UNL     1       7.270  85.817  43.924  1.00  0.00     0.277 HD
HETATM    9  C10 UNL     1       6.725  83.929  44.426  1.00  0.00     0.234 C
HETATM   10  C11 UNL     1       7.946  83.204  43.972  1.00  0.00     0.046 C
HETATM   11  C12 UNL     1       9.162  83.489  44.807  1.00  0.00     0.115 C
HETATM   12  N4  UNL     1       9.974  84.555  44.330  1.00  0.00    -0.420 N
ATOM     13  H4  UNL     1       9.764  85.531  44.540  1.00  0.00     0.153 HD
HETATM   14  C13 UNL     1      11.094  84.182  43.545  1.00  0.00     0.141 C
HETATM   15  C14 UNL     1      10.896  84.345  42.056  1.00  0.00     0.251 C
HETATM   16  N5  UNL     1      10.561  85.682  41.670  1.00  0.00    -0.072 N
ATOM     17  H51 UNL     1      11.407  86.229  41.505  1.00  0.00     0.277 HD
ATOM     18  H52 UNL     1      10.174  86.196  42.461  1.00  0.00     0.277 HD
HETATM   19  C15 UNL     1       9.680  85.760  40.536  1.00  0.00     0.251 C
HETATM   20  C16 UNL     1       8.539  86.701  40.857  1.00  0.00     0.148 C
HETATM   21  N6  UNL     1       7.372  86.424  40.058  1.00  0.00    -0.378 N
ATOM     22  H6  UNL     1       7.498  86.004  39.137  1.00  0.00     0.160 HD
ENDROOT
BRANCH   1  23
HETATM   23  C3  UNL     1       3.882  87.689  39.768  1.00  0.00     0.060 C
HETATM   24  C4  UNL     1       2.878  86.814  39.235  1.00  0.00     0.042 C
BRANCH  23  25
HETATM   25  C2  UNL     1       3.853  89.149  39.865  1.00  0.00     0.066 C
HETATM   26  C1  UNL     1       4.956  90.044  39.589  1.00  0.00     0.078 C
BRANCH  25  27
HETATM   27  O1  UNL     1       2.631  89.682  39.430  1.00  0.00    -0.363 OA
ATOM     28  H1  UNL     1       2.154  89.067  38.886  1.00  0.00     0.217 HD
ENDBRANCH  25  27
ENDBRANCH  23  25
BRANCH  24  29
HETATM   29  C5  UNL     1       1.564  86.471  39.765  1.00  0.00     0.263 C
BRANCH  29  30
HETATM   30  N1  UNL     1       1.821  85.645  41.031  1.00  0.00    -0.067 N
ATOM     31  H13 UNL     1       1.991  86.213  41.861  1.00  0.00     0.275 HD
ATOM     32  H12 UNL     1       0.991  85.163  41.379  1.00  0.00     0.275 HD
ATOM     33  H11 UNL     1       2.592  85.015  40.805  1.00  0.00     0.275 HD
ENDBRANCH  29  30
BRANCH  29  34
HETATM   34  C6  UNL     1       0.485  85.765  39.089  1.00  0.00     0.287 C
BRANCH  34  35
HETATM   35  O2  UNL     1       0.473  84.394  39.318  1.00  0.00    -0.369 OA
ATOM     36  H2  UNL     1      -0.267  83.942  38.930  1.00  0.00     0.212 HD
ENDBRANCH  34  35
BRANCH  34  37
HETATM   37  O3  UNL     1       0.446  86.022  37.702  1.00  0.00    -0.369 OA
ATOM     38  H3  UNL     1       0.196  86.916  37.498  1.00  0.00     0.212 HD
ENDBRANCH  34  37
ENDBRANCH  29  34
ENDBRANCH  24  29
ENDBRANCH   1  23
TORSDOF 8
ENDMDL