MODEL 1
REMARK VINA RESULT: -6.135481559      0.000      0.000
REMARK  5 active torsions:
REMARK  status: ('A' for Active; 'I' for Inactive)
REMARK    1  A    between atoms: C2_2  and  N1_4
REMARK    2  A    between atoms: C2_2  and  C4_8
REMARK       I    between atoms: C4_8  and  N2_10
REMARK    3  A    between atoms: N2_10  and  C5_12
REMARK    4  A    between atoms: C5_12  and  C6_13
REMARK       I    between atoms: C6_13  and  N3_15
REMARK    5  A    between atoms: N3_15  and  C7_17
ROOT
HETATM    1  C6  UNL     1      45.077  24.716  45.229  1.00  0.00     0.235 C
HETATM    2  O2  UNL     1      44.061  24.150  45.753  1.00  0.00    -0.272 OA
HETATM    3  N3  UNL     1      44.915  25.875  44.435  1.00  0.00    -0.354 N
ATOM      4  H3  UNL     1      45.726  26.328  44.014  1.00  0.00     0.162 HD
ENDROOT
BRANCH   1   5
HETATM    5  C5  UNL     1      46.443  24.179  45.435  1.00  0.00     0.225 C
BRANCH   5   6
HETATM    6  N2  UNL     1      47.245  24.447  44.272  1.00  0.00    -0.350 N
HETATM    7  C4  UNL     1      48.658  24.435  44.393  1.00  0.00     0.253 C
HETATM    8  O1  UNL     1      49.189  24.194  45.499  1.00  0.00    -0.271 OA
ATOM      9  H2  UNL     1      46.805  24.643  43.373  1.00  0.00     0.163 HD
BRANCH   7  10
HETATM   10  C2  UNL     1      49.472  24.715  43.184  1.00  0.00     0.196 C
HETATM   11  C1  UNL     1      48.733  25.746  42.363  1.00  0.00     0.056 C
HETATM   12  C3  UNL     1      50.813  25.228  43.657  1.00  0.00     0.056 C
BRANCH  10  13
HETATM   13  N1  UNL     1      49.671  23.526  42.404  1.00  0.00    -0.062 N
ATOM     14  H13 UNL     1      49.988  22.741  42.974  1.00  0.00     0.275 HD
ATOM     15  H12 UNL     1      48.789  23.127  42.082  1.00  0.00     0.275 HD
ATOM     16  H11 UNL     1      50.307  23.723  41.632  1.00  0.00     0.275 HD
ENDBRANCH  10  13
ENDBRANCH   7  10
ENDBRANCH   5   6
ENDBRANCH   1   5
BRANCH   3  17
HETATM   17  C7  UNL     1      43.599  26.407  44.225  1.00  0.00     0.092 C
HETATM   18  C8  UNL     1      43.300  26.555  42.760  1.00  0.00     0.009 C
HETATM   19  C9  UNL     1      41.837  26.911  42.576  1.00  0.00     0.011 C
HETATM   20  C13 UNL     1      44.111  27.663  42.125  1.00  0.00     0.011 C
HETATM   21  C10 UNL     1      41.537  28.160  43.343  1.00  0.00    -0.013 C
HETATM   22  C11 UNL     1      42.339  29.304  42.728  1.00  0.00     0.009 C
HETATM   23  C16 UNL     1      41.933  28.086  44.795  1.00  0.00     0.011 C
HETATM   24  C12 UNL     1      43.797  28.984  42.830  1.00  0.00    -0.013 C
HETATM   25  C14 UNL     1      44.239  28.826  44.257  1.00  0.00     0.011 C
HETATM   26  C15 UNL     1      43.415  27.760  44.900  1.00  0.00     0.009 C
ENDBRANCH   3  17
TORSDOF 5
ENDMDL