MODEL 4
REMARK VINA RESULT: -5.024434895      6.835      9.096
REMARK  5 active torsions:
REMARK  status: ('A' for Active; 'I' for Inactive)
REMARK    1  A    between atoms: N1_2  and  C2_5
REMARK    2  A    between atoms: C8_11  and  C9_12
REMARK    3  A    between atoms: C8_11  and  C10_15
REMARK    4  A    between atoms: C9_12  and  O1_13
REMARK    5  A    between atoms: C16_21  and  C17_22
ROOT
HETATM    1  C2  UNL     1      44.059  22.091  51.356  1.00  0.00     0.195 C
HETATM    2  C3  UNL     1      45.129  23.089  50.961  1.00  0.00     0.029 C
HETATM    3  C4  UNL     1      46.058  22.827  52.162  1.00  0.00     0.014 C
HETATM    4  C5  UNL     1      45.100  22.746  53.365  1.00  0.00     0.014 C
HETATM    5  C6  UNL     1      43.770  22.669  52.690  1.00  0.00     0.033 C
HETATM    6  C7  UNL     1      44.032  24.196  52.609  1.00  0.00     0.003 A
HETATM    7  C8  UNL     1      44.379  24.391  51.212  1.00  0.00     0.000 C
HETATM    8  C13 UNL     1      43.493  24.874  53.681  1.00  0.00    -0.019 A
HETATM    9  C14 UNL     1      43.572  26.391  53.825  1.00  0.00     0.017 C
HETATM   10  C15 UNL     1      42.263  24.324  54.422  1.00  0.00     0.017 C
HETATM   11  C16 UNL     1      44.782  24.135  53.799  1.00  0.00     0.070 A
ENDROOT
BRANCH   7  12
HETATM   12  C9  UNL     1      43.109  24.502  50.414  1.00  0.00     0.175 C
BRANCH  12  13
HETATM   13  O1  UNL     1      42.055  25.122  50.999  1.00  0.00    -0.400 OA
ATOM     14  H1  UNL     1      41.254  24.623  51.100  1.00  0.00     0.209 HD
ENDBRANCH  12  13
ENDBRANCH   7  12
BRANCH   7  15
HETATM   15  C10 UNL     1      45.275  25.514  50.861  1.00  0.00    -0.003 A
HETATM   16  C11 UNL     1      45.495  25.963  49.441  1.00  0.00     0.006 A
HETATM   17  C12 UNL     1      44.799  26.836  50.405  1.00  0.00     0.006 A
ENDBRANCH   7  15
BRANCH   1  18
HETATM   18  N1  UNL     1      44.780  20.826  51.591  1.00  0.00    -0.074 N
HETATM   19  C1  UNL     1      44.084  19.719  51.004  1.00  0.00     0.267 C
ATOM     20  H12 UNL     1      44.958  20.675  52.584  1.00  0.00     0.277 HD
ATOM     21  H11 UNL     1      45.745  20.878  51.266  1.00  0.00     0.277 HD
ENDBRANCH   1  18
BRANCH  11  22
HETATM   22  C17 UNL     1      45.773  24.806  54.551  1.00  0.00     0.183 C
HETATM   23  O2  UNL     1      45.752  24.615  55.825  1.00  0.00    -0.647 OA
HETATM   24  O3  UNL     1      46.793  25.657  54.154  1.00  0.00    -0.647 OA
ENDBRANCH  11  22
TORSDOF 5
ENDMDL