MODEL 3
REMARK VINA RESULT: -6.340746852      4.817      6.659
REMARK  3 active torsions:
REMARK  status: ('A' for Active; 'I' for Inactive)
REMARK       I    between atoms: C1_4  and  N3_6
REMARK    1  A    between atoms: C5_10  and  C6_11
REMARK       I    between atoms: C6_11  and  N4_13
REMARK    2  A    between atoms: N4_13  and  C7_15
REMARK    3  A    between atoms: C11_19  and  C12_20
ROOT
HETATM    1  C6  UNL     1      44.120  24.262  49.938  1.00  0.00     0.223 C
HETATM    2  O1  UNL     1      42.858  24.163  49.815  1.00  0.00    -0.273 OA
HETATM    3  N4  UNL     1      44.822  23.393  50.781  1.00  0.00    -0.355 N
ATOM      4  H4  UNL     1      45.834  23.481  50.871  1.00  0.00     0.162 HD
ENDROOT
BRANCH   1   5
HETATM    5  C5  UNL     1      44.859  25.319  49.175  1.00  0.00     0.096 C
HETATM    6  C4  UNL     1      44.120  26.629  49.242  1.00  0.00     0.017 C
HETATM    7  C3  UNL     1      43.821  27.211  47.887  1.00  0.00     0.021 C
HETATM    8  C2  UNL     1      45.102  27.208  47.070  1.00  0.00     0.125 C
HETATM    9  N3  UNL     1      45.442  25.817  46.836  1.00  0.00    -0.355 N
HETATM   10  C1  UNL     1      46.194  25.383  45.727  1.00  0.00     0.183 C
HETATM   11  C13 UNL     1      45.004  24.800  47.767  1.00  0.00     0.139 C
HETATM   12  N1  UNL     1      45.595  24.933  44.697  1.00  0.00    -0.374 N
HETATM   13  N2  UNL     1      47.597  25.450  45.764  1.00  0.00    -0.064 NA
ATOM     14  H12 UNL     1      46.140  24.618  43.894  1.00  0.00     0.158 HD
ATOM     15  H11 UNL     1      44.577  24.884  44.671  1.00  0.00     0.158 HD
ENDBRANCH   1   5
BRANCH   3  16
HETATM   16  C7  UNL     1      44.123  22.374  51.518  1.00  0.00     0.098 C
HETATM   17  C8  UNL     1      44.162  22.757  52.984  1.00  0.00     0.026 C
HETATM   18  C9  UNL     1      45.390  22.019  53.474  1.00  0.00     0.003 C
HETATM   19  C10 UNL     1      45.185  20.651  52.809  1.00  0.00     0.017 C
HETATM   20  C11 UNL     1      44.884  21.076  51.390  1.00  0.00     0.109 C
BRANCH  20  21
HETATM   21  C12 UNL     1      44.049  20.022  50.732  1.00  0.00     0.179 C
HETATM   22  O2  UNL     1      43.704  19.047  51.411  1.00  0.00    -0.648 OA
HETATM   23  O3  UNL     1      43.700  20.171  49.417  1.00  0.00    -0.648 OA
ENDBRANCH  20  21
ENDBRANCH   3  16
TORSDOF 3
ENDMDL