MODEL 5
REMARK VINA RESULT: -6.398566712     11.057     13.522
REMARK  4 active torsions:
REMARK  status: ('A' for Active; 'I' for Inactive)
REMARK    1  A    between atoms: C2_2  and  N1_3
REMARK       I    between atoms: N1_3  and  C3_5
REMARK       I    between atoms: C3_5  and  N3_9
REMARK    2  A    between atoms: N3_9  and  C4_11
REMARK       I    between atoms: N4_12  and  C5_14
REMARK    3  A    between atoms: C5_14  and  C6_16
REMARK    4  A    between atoms: C12_22  and  O2_23
ROOT
HETATM    1  C4  UNL     1      50.314  24.249  43.135  1.00  0.00     0.200 C
HETATM    2  N4  UNL     1      49.091  24.248  43.457  1.00  0.00    -0.322 N
ATOM      3  H4  UNL     1      48.401  24.068  42.728  1.00  0.00     0.169 HD
HETATM    4  C5  UNL     1      48.627  24.484  44.775  1.00  0.00     0.231 C
HETATM    5  O1  UNL     1      49.282  24.140  45.781  1.00  0.00    -0.272 OA
ENDROOT
BRANCH   4   6
HETATM    6  C6  UNL     1      47.327  25.160  44.950  1.00  0.00     0.045 C
HETATM    7  C7  UNL     1      47.500  26.266  45.967  1.00  0.00     0.024 C
HETATM    8  C8  UNL     1      46.200  27.009  46.078  1.00  0.00    -0.010 C
HETATM    9  C9  UNL     1      45.730  27.529  44.745  1.00  0.00     0.009 C
HETATM   10  C13 UNL     1      45.179  26.055  46.660  1.00  0.00     0.042 C
HETATM   11  C10 UNL     1      45.554  26.402  43.779  1.00  0.00    -0.010 C
HETATM   12  C11 UNL     1      44.531  25.437  44.330  1.00  0.00     0.042 C
HETATM   13  C15 UNL     1      46.848  25.656  43.628  1.00  0.00     0.024 C
HETATM   14  C12 UNL     1      44.996  24.919  45.665  1.00  0.00     0.060 C
HETATM   15  C14 UNL     1      46.295  24.195  45.491  1.00  0.00     0.057 C
BRANCH  14  16
HETATM   16  O2  UNL     1      43.992  24.074  46.147  1.00  0.00    -0.390 OA
ATOM     17  H2  UNL     1      44.099  23.237  45.709  1.00  0.00     0.210 HD
ENDBRANCH  14  16
ENDBRANCH   4   6
BRANCH   1  18
HETATM   18  N3  UNL     1      50.732  24.008  41.802  1.00  0.00    -0.188 N
HETATM   19  C3  UNL     1      51.995  24.435  41.309  1.00  0.00     0.672 C
HETATM   20  N1  UNL     1      52.181  24.712  39.929  1.00  0.00    -0.227 N
HETATM   21  N2  UNL     1      52.987  24.579  42.106  1.00  0.00    -0.235 N
ATOM     22  H1  UNL     1      51.750  24.106  39.231  1.00  0.00     0.177 HD
ATOM     23  H22 UNL     1      53.892  24.885  41.752  1.00  0.00     0.174 HD
ATOM     24  H21 UNL     1      52.853  24.380  43.097  1.00  0.00     0.174 HD
ATOM     25  H3  UNL     1      50.103  23.508  41.174  1.00  0.00     0.185 HD
BRANCH  20  26
HETATM   26  C2  UNL     1      52.975  25.847  39.499  1.00  0.00     0.133 C
HETATM   27  C1  UNL     1      52.209  27.125  39.736  1.00  0.00     0.027 C
ENDBRANCH  20  26
ENDBRANCH   1  18
TORSDOF 4
ENDMDL