MODEL 2
REMARK VINA RESULT: -4.949705777      2.405      6.565
REMARK  6 active torsions:
REMARK  status: ('A' for Active; 'I' for Inactive)
REMARK    1  A    between atoms: C2_2  and  O1_3
REMARK    2  A    between atoms: C4_6  and  C5_7
REMARK    3  A    between atoms: C5_7  and  N1_8
REMARK       I    between atoms: N1_8  and  C6_10
REMARK       I    between atoms: C6_10  and  N2_12
REMARK    4  A    between atoms: N2_12  and  C7_14
REMARK    5  A    between atoms: C7_14  and  N3_16
REMARK    6  A    between atoms: N3_16  and  C8_18
ROOT
HETATM    1  N1  UNL     1      39.497  26.144  53.220  1.00  0.00    -0.342 N
ATOM      2  H1  UNL     1      38.781  26.127  52.493  1.00  0.00     0.164 HD
HETATM    3  C6  UNL     1      40.809  25.603  52.934  1.00  0.00     0.322 C
HETATM    4  O2  UNL     1      41.637  25.664  53.870  1.00  0.00    -0.247 OA
HETATM    5  N2  UNL     1      41.038  25.064  51.655  1.00  0.00    -0.286 N
ATOM      6  H2  UNL     1      40.268  25.081  50.986  1.00  0.00     0.173 HD
ENDROOT
BRANCH   1   7
HETATM    7  C5  UNL     1      39.181  26.702  54.496  1.00  0.00     0.129 C
BRANCH   7   8
HETATM    8  C4  UNL     1      37.984  26.057  55.124  1.00  0.00     0.009 C
HETATM    9  C3  UNL     1      37.795  26.342  56.593  1.00  0.00     0.043 C
HETATM   10  C2  UNL     1      38.519  25.057  56.902  1.00  0.00     0.055 C
HETATM   11  C1  UNL     1      39.979  25.193  57.255  1.00  0.00     0.045 C
HETATM   12  C13 UNL     1      38.212  24.585  55.504  1.00  0.00     0.043 C
BRANCH  10  13
HETATM   13  O1  UNL     1      37.808  24.285  57.834  1.00  0.00    -0.390 OA
ATOM     14  H1  UNL     1      37.434  24.809  58.533  1.00  0.00     0.210 HD
ENDBRANCH  10  13
ENDBRANCH   7   8
ENDBRANCH   1   7
BRANCH   5  15
HETATM   15  C7  UNL     1      42.247  24.510  51.242  1.00  0.00     0.177 C
HETATM   16  S1  UNL     1      42.878  25.196  49.850  1.00  0.00    -0.041 SA
BRANCH  15  17
HETATM   17  N3  UNL     1      42.974  23.456  51.851  1.00  0.00    -0.339 N
ATOM     18  H3  UNL     1      42.574  22.517  51.853  1.00  0.00     0.164 HD
BRANCH  17  19
HETATM   19  C8  UNL     1      44.267  23.671  52.470  1.00  0.00     0.291 C
HETATM   20  C9  UNL     1      44.400  23.354  53.918  1.00  0.00     0.083 C
HETATM   21  C10 UNL     1      44.803  21.965  53.409  1.00  0.00     0.242 C
HETATM   22  N4  UNL     1      45.193  22.605  52.171  1.00  0.00    -0.054 N
HETATM   23  C11 UNL     1      44.872  21.753  51.057  1.00  0.00     0.274 C
HETATM   24  C12 UNL     1      46.591  23.007  52.157  1.00  0.00     0.274 C
ENDBRANCH  17  19
ENDBRANCH  15  17
ENDBRANCH   5  15
TORSDOF 6
ENDMDL