MODEL 4
REMARK VINA RESULT: -5.497989752      8.855     11.553
REMARK  3 active torsions:
REMARK  status: ('A' for Active; 'I' for Inactive)
REMARK    1  A    between atoms: C3_3  and  N1_4
REMARK    2  A    between atoms: C6_7  and  N2_8
REMARK       I    between atoms: N2_8  and  C7_10
REMARK       I    between atoms: C7_10  and  N4_14
REMARK       I    between atoms: N4_14  and  C8_16
REMARK    3  A    between atoms: C13_22  and  C14_23
ROOT
HETATM    1  C1  UNL     1      53.040  21.886  40.390  1.00  0.00     0.013 C
HETATM    2  C2  UNL     1      53.002  23.070  40.659  1.00  0.00    -0.089 C
HETATM    3  C3  UNL     1      52.980  24.509  40.985  1.00  0.00     0.330 C
ENDROOT
BRANCH   3   4
HETATM    4  N1  UNL     1      51.865  24.818  41.813  1.00  0.00    -0.053 N
HETATM    5  C4  UNL     1      50.987  23.667  42.004  1.00  0.00     0.241 C
HETATM    6  C5  UNL     1      50.052  23.961  43.161  1.00  0.00     0.064 C
HETATM    7  C6  UNL     1      49.893  25.497  43.294  1.00  0.00     0.075 C
HETATM    8  C10 UNL     1      49.689  26.000  41.834  1.00  0.00     0.064 C
HETATM    9  C12 UNL     1      51.180  26.056  43.673  1.00  0.00    -0.029 C
HETATM   10  C11 UNL     1      51.056  25.833  41.190  1.00  0.00     0.241 C
HETATM   11  C13 UNL     1      51.505  27.124  44.336  1.00  0.00    -0.020 C
HETATM   12  C16 UNL     1      52.353  25.229  43.125  1.00  0.00     0.275 C
BRANCH   7  13
HETATM   13  N2  UNL     1      48.736  25.781  44.057  1.00  0.00    -0.213 N
HETATM   14  C7  UNL     1      48.355  25.199  45.285  1.00  0.00     0.675 C
HETATM   15  N3  UNL     1      49.243  24.853  46.132  1.00  0.00    -0.235 N
HETATM   16  N4  UNL     1      46.999  24.978  45.615  1.00  0.00    -0.161 N
ATOM     17  H32 UNL     1      50.221  25.012  45.894  1.00  0.00     0.174 HD
ATOM     18  H31 UNL     1      48.968  24.433  47.019  1.00  0.00     0.174 HD
HETATM   19  C8  UNL     1      45.867  25.261  44.853  1.00  0.00     0.231 C
ATOM     20  H4  UNL     1      46.826  24.558  46.527  1.00  0.00     0.187 HD
HETATM   21  C9  UNL     1      44.512  24.941  45.411  1.00  0.00     0.118 C
HETATM   22  O1  UNL     1      45.853  25.770  43.713  1.00  0.00    -0.273 OA
ATOM     23  H2  UNL     1      48.106  26.486  43.676  1.00  0.00     0.178 HD
ENDBRANCH   7  13
BRANCH  11  24
HETATM   24  C14 UNL     1      50.616  28.148  44.937  1.00  0.00     0.023 C
HETATM   25  C15 UNL     1      50.169  29.180  43.890  1.00  0.00     0.009 C
ENDBRANCH  11  24
ENDBRANCH   3   4
TORSDOF 3
ENDMDL