MODEL 2
REMARK VINA RESULT: -6.022808159      1.901      2.318
REMARK  4 active torsions:
REMARK  status: ('A' for Active; 'I' for Inactive)
REMARK    1  A    between atoms: C2_2  and  C5_5
REMARK    2  A    between atoms: C5_5  and  N1_6
REMARK    3  A    between atoms: C5_5  and  C8_15
REMARK       I    between atoms: N1_6  and  C6_8
REMARK       I    between atoms: C6_8  and  N2_10
REMARK       I    between atoms: C8_15  and  N5_17
REMARK    4  A    between atoms: N5_17  and  C9_19
ROOT
HETATM    1  C5  UNL     1      43.617  24.751  53.921  1.00  0.00     0.185 C
ENDROOT
BRANCH   1   2
HETATM    2  C2  UNL     1      44.479  25.948  53.567  1.00  0.00    -0.022 C
HETATM    3  C1  UNL     1      45.936  25.497  53.656  1.00  0.00     0.017 C
HETATM    4  C3  UNL     1      44.254  26.444  52.174  1.00  0.00     0.017 C
HETATM    5  C4  UNL     1      44.339  27.092  54.520  1.00  0.00     0.017 C
ENDBRANCH   1   2
BRANCH   1   6
HETATM    6  N1  UNL     1      43.335  24.071  52.651  1.00  0.00    -0.329 N
HETATM    7  C6  UNL     1      43.727  22.735  52.430  1.00  0.00     0.323 C
HETATM    8  O1  UNL     1      44.344  22.064  53.330  1.00  0.00    -0.247 OA
HETATM    9  N2  UNL     1      43.482  22.031  51.230  1.00  0.00    -0.285 N
HETATM   10  C7  UNL     1      44.272  21.110  50.759  1.00  0.00     0.204 C
ATOM     11  H2  UNL     1      42.639  22.259  50.702  1.00  0.00     0.172 HD
HETATM   12  N3  UNL     1      43.938  20.454  49.534  1.00  0.00    -0.066 NA
HETATM   13  N4  UNL     1      45.434  20.802  51.495  1.00  0.00    -0.066 NA
ATOM     14  H1  UNL     1      42.845  24.576  51.913  1.00  0.00     0.165 HD
ENDBRANCH   1   6
BRANCH   1  15
HETATM   15  C8  UNL     1      42.337  25.158  54.563  1.00  0.00     0.241 C
HETATM   16  O2  UNL     1      42.346  25.235  55.845  1.00  0.00    -0.271 OA
HETATM   17  N5  UNL     1      41.152  25.455  53.843  1.00  0.00    -0.355 N
ATOM     18  H5  UNL     1      41.126  25.404  52.825  1.00  0.00     0.162 HD
BRANCH  17  19
HETATM   19  C9  UNL     1      39.975  25.836  54.606  1.00  0.00     0.084 C
HETATM   20  C10 UNL     1      38.995  26.617  53.720  1.00  0.00     0.025 C
HETATM   21  C11 UNL     1      37.793  26.672  54.670  1.00  0.00     0.002 C
HETATM   22  C12 UNL     1      37.832  25.374  55.449  1.00  0.00     0.002 C
HETATM   23  C13 UNL     1      39.131  24.676  55.026  1.00  0.00     0.025 C
ENDBRANCH  17  19
ENDBRANCH   1  15
TORSDOF 4
ENDMDL