MODEL 1
REMARK VINA RESULT: -5.338083270      0.000      0.000
REMARK  7 active torsions:
REMARK  status: ('A' for Active; 'I' for Inactive)
REMARK    1  A    between atoms: N1_2  and  C2_4
REMARK    2  A    between atoms: C2_4  and  N2_6
REMARK       I    between atoms: N2_6  and  C3_8
REMARK       I    between atoms: C3_8  and  N3_10
REMARK    3  A    between atoms: N3_10  and  C4_12
REMARK    4  A    between atoms: C4_12  and  C5_13
REMARK    5  A    between atoms: C5_13  and  N4_14
REMARK    6  A    between atoms: N4_14  and  C6_16
REMARK    7  A    between atoms: C6_16  and  N5_18
ROOT
HETATM    1  N2  UNL     1      44.586  21.442  51.985  1.00  0.00    -0.286 N
ATOM      2  H2  UNL     1      44.389  21.543  50.989  1.00  0.00     0.173 HD
HETATM    3  C3  UNL     1      44.341  22.558  52.794  1.00  0.00     0.322 C
HETATM    4  O1  UNL     1      44.536  22.577  54.027  1.00  0.00    -0.247 OA
HETATM    5  N3  UNL     1      43.831  23.775  52.201  1.00  0.00    -0.341 N
ATOM      6  H3  UNL     1      43.657  23.804  51.196  1.00  0.00     0.164 HD
ENDROOT
BRANCH   5   7
HETATM    7  C4  UNL     1      43.564  24.949  52.996  1.00  0.00     0.144 C
BRANCH   7   8
HETATM    8  C5  UNL     1      42.143  24.931  53.443  1.00  0.00     0.141 C
BRANCH   8   9
HETATM    9  N4  UNL     1      41.939  24.345  54.743  1.00  0.00    -0.366 N
ATOM     10  H4  UNL     1      42.229  23.376  54.876  1.00  0.00     0.161 HD
BRANCH   9  11
HETATM   11  C6  UNL     1      41.369  25.010  55.842  1.00  0.00     0.169 C
HETATM   12  S2  UNL     1      42.302  25.880  56.839  1.00  0.00    -0.041 SA
BRANCH  11  13
HETATM   13  N5  UNL     1      39.981  24.941  56.084  1.00  0.00    -0.358 N
HETATM   14  C7  UNL     1      38.926  24.762  55.067  1.00  0.00     0.125 C
HETATM   15  C8  UNL     1      37.728  24.298  55.903  1.00  0.00     0.021 C
HETATM   16  C9  UNL     1      37.909  25.180  57.125  1.00  0.00     0.021 C
HETATM   17  C10 UNL     1      39.385  25.032  57.402  1.00  0.00     0.125 C
ENDBRANCH  11  13
ENDBRANCH   9  11
ENDBRANCH   8   9
ENDBRANCH   7   8
ENDBRANCH   5   7
BRANCH   1  18
HETATM   18  C2  UNL     1      45.073  20.205  52.408  1.00  0.00     0.175 C
HETATM   19  S1  UNL     1      44.610  18.884  51.496  1.00  0.00    -0.041 SA
BRANCH  18  20
HETATM   20  N1  UNL     1      45.903  19.939  53.506  1.00  0.00    -0.371 N
HETATM   21  C1  UNL     1      45.802  18.654  54.191  1.00  0.00     0.148 C
ATOM     22  H1  UNL     1      46.574  20.638  53.824  1.00  0.00     0.161 HD
ENDBRANCH  18  20
ENDBRANCH   1  18
TORSDOF 7
ENDMDL