MODEL 4
REMARK VINA RESULT: -5.988180156      8.019     10.073
REMARK  4 active torsions:
REMARK  status: ('A' for Active; 'I' for Inactive)
REMARK    1  A    between atoms: C2_2  and  N1_4
REMARK    2  A    between atoms: N1_4  and  S1_6
REMARK    3  A    between atoms: S1_6  and  N2_9
REMARK       I    between atoms: N2_9  and  C5_11
REMARK       I    between atoms: N4_13  and  C6_15
REMARK       I    between atoms: C6_15  and  N6_19
REMARK    4  A    between atoms: N6_19  and  C7_21
ROOT
HETATM    1  N2  UNL     1      45.465  25.020  44.707  1.00  0.00    -0.244 N
ATOM      2  H2  UNL     1      44.906  25.256  43.888  1.00  0.00     0.182 HD
HETATM    3  C5  UNL     1      46.874  25.081  44.592  1.00  0.00     0.217 C
HETATM    4  N3  UNL     1      47.590  25.910  45.491  1.00  0.00    -0.062 NA
HETATM    5  N4  UNL     1      47.520  24.418  43.709  1.00  0.00    -0.163 N
ATOM      6  H4  UNL     1      47.024  23.815  43.052  1.00  0.00     0.187 HD
HETATM    7  C6  UNL     1      48.931  24.527  43.650  1.00  0.00     0.674 C
HETATM    8  N5  UNL     1      49.596  24.193  44.704  1.00  0.00    -0.235 N
ATOM      9  H51 UNL     1      50.612  24.271  44.662  1.00  0.00     0.174 HD
ATOM     10  H52 UNL     1      49.127  23.865  45.548  1.00  0.00     0.174 HD
HETATM   11  N6  UNL     1      49.576  24.977  42.491  1.00  0.00    -0.218 N
ATOM     12  H6  UNL     1      49.971  24.281  41.860  1.00  0.00     0.178 HD
ENDROOT
BRANCH   1  13
HETATM   13  S1  UNL     1      44.637  24.572  46.152  1.00  0.00     0.305 S
HETATM   14  O1  UNL     1      43.281  23.967  45.832  1.00  0.00    -0.188 OA
HETATM   15  O2  UNL     1      45.421  23.493  46.841  1.00  0.00    -0.188 OA
BRANCH  13  16
HETATM   16  N1  UNL     1      44.382  25.948  47.110  1.00  0.00    -0.194 NA
HETATM   17  C4  UNL     1      43.953  27.072  46.334  1.00  0.00     0.131 C
BRANCH  16  18
HETATM   18  C2  UNL     1      43.486  25.749  48.212  1.00  0.00     0.067 C
HETATM   19  C1  UNL     1      44.215  25.516  49.526  1.00  0.00     0.027 C
HETATM   20  C3  UNL     1      42.479  26.853  48.374  1.00  0.00     0.027 C
ENDBRANCH  16  18
ENDBRANCH  13  16
ENDBRANCH   1  13
BRANCH  11  21
HETATM   21  C7  UNL     1      49.712  26.360  42.140  1.00  0.00     0.036 C
HETATM   22  C8  UNL     1      50.240  27.188  43.309  1.00  0.00     0.038 C
HETATM   23  C9  UNL     1      48.424  27.006  41.706  1.00  0.00     0.038 C
HETATM   24  C10 UNL     1      50.742  26.512  41.019  1.00  0.00     0.038 C
ENDBRANCH  11  21
TORSDOF 4
ENDMDL