MODEL 1
REMARK VINA RESULT: -6.290616681      0.000      0.000
REMARK  2 active torsions:
REMARK  status: ('A' for Active; 'I' for Inactive)
REMARK    1  A    between atoms: C3_4  and  C4_5
REMARK       I    between atoms: N2_11  and  C8_12
REMARK       I    between atoms: C8_12  and  N4_18
REMARK    2  A    between atoms: N3_13  and  C9_15
REMARK       I    between atoms: N4_18  and  C12_20
ROOT
HETATM    1  C1  UNL     1      19.573 -13.603  19.991  1.00  0.00     0.224 C
HETATM    2  N1  UNL     1      18.475 -13.501  19.645  1.00  0.00    -0.444 NA
HETATM    3  C2  UNL     1      17.138 -13.388  19.203  1.00  0.00     0.293 C
HETATM    4  C3  UNL     1      17.033 -13.644  17.737  1.00  0.00     0.143 C
HETATM    5  C5  UNL     1      15.653 -14.169  17.408  1.00  0.00     0.022 C
HETATM    6  C6  UNL     1      15.619 -15.617  17.908  1.00  0.00     0.022 C
HETATM    7  C7  UNL     1      16.114 -15.668  19.333  1.00  0.00     0.145 C
HETATM    8  N2  UNL     1      16.300 -14.345  19.893  1.00  0.00    -0.184 N
HETATM    9  C8  UNL     1      15.651 -14.012  21.117  1.00  0.00     0.681 C
HETATM   10  N3  UNL     1      14.384 -13.937  21.108  1.00  0.00    -0.222 N
ATOM     11  H3  UNL     1      13.913 -14.122  20.222  1.00  0.00     0.178 HD
HETATM   12  N4  UNL     1      16.472 -13.790  22.250  1.00  0.00    -0.164 N
ATOM     13  H4  UNL     1      16.755 -12.836  22.475  1.00  0.00     0.187 HD
HETATM   14  C12 UNL     1      16.913 -14.852  23.082  1.00  0.00     0.200 C
HETATM   15  N5  UNL     1      16.241 -15.951  23.036  1.00  0.00    -0.373 N
ATOM     16  H51 UNL     1      16.558 -16.714  23.634  1.00  0.00     0.158 HD
ATOM     17  H52 UNL     1      15.436 -16.001  22.412  1.00  0.00     0.158 HD
HETATM   18  N6  UNL     1      18.018 -14.783  23.939  1.00  0.00    -0.063 NA
ENDROOT
BRANCH   4  19
HETATM   19  C4  UNL     1      17.347 -12.462  16.906  1.00  0.00     0.181 C
HETATM   20  O1  UNL     1      18.370 -12.341  16.211  1.00  0.00    -0.648 OA
HETATM   21  O2  UNL     1      16.430 -11.419  16.908  1.00  0.00    -0.648 OA
ENDBRANCH   4  19
BRANCH  10  22
HETATM   22  C9  UNL     1      13.552 -13.615  22.241  1.00  0.00     0.091 C
HETATM   23  C10 UNL     1      13.101 -12.176  22.037  1.00  0.00     0.032 C
HETATM   24  C11 UNL     1      12.306 -14.474  22.148  1.00  0.00     0.032 C
ENDBRANCH  10  22
TORSDOF 2
ENDMDL