MODEL 4
REMARK VINA RESULT: -6.862899885      1.287      1.514
REMARK  3 active torsions:
REMARK  status: ('A' for Active; 'I' for Inactive)
REMARK    1  A    between atoms: C3_3  and  N1_4
REMARK    2  A    between atoms: C3_3  and  C15_22
REMARK       I    between atoms: N1_4  and  C4_6
REMARK       I    between atoms: C4_6  and  N2_8
REMARK    3  A    between atoms: N2_8  and  C5_10
ROOT
HETATM    1  C1  UNL     1      11.917 -15.114  20.282  1.00  0.00     0.015 C
HETATM    2  C2  UNL     1      12.583 -14.298  20.833  1.00  0.00    -0.081 C
HETATM    3  C3  UNL     1      13.432 -13.298  21.523  1.00  0.00     0.266 C
ENDROOT
BRANCH   3   4
HETATM    4  N1  UNL     1      14.305 -14.002  22.430  1.00  0.00    -0.319 N
HETATM    5  C4  UNL     1      15.704 -13.935  22.207  1.00  0.00     0.317 C
HETATM    6  O1  UNL     1      16.197 -13.287  21.248  1.00  0.00    -0.247 OA
HETATM    7  N2  UNL     1      16.603 -14.605  23.064  1.00  0.00    -0.336 N
ATOM      8  H2  UNL     1      16.223 -15.137  23.847  1.00  0.00     0.164 HD
ATOM      9  H1  UNL     1      13.926 -14.535  23.213  1.00  0.00     0.166 HD
BRANCH   7  10
HETATM   10  C5  UNL     1      18.041 -14.572  22.885  1.00  0.00     0.108 C
HETATM   11  C6  UNL     1      18.368 -15.385  21.668  1.00  0.00     0.032 C
HETATM   12  C7  UNL     1      19.835 -15.541  21.421  1.00  0.00    -0.010 C
HETATM   13  C8  UNL     1      20.688 -14.483  22.013  1.00  0.00     0.009 C
HETATM   14  C12 UNL     1      20.240 -16.939  21.831  1.00  0.00     0.029 C
HETATM   15  C9  UNL     1      21.050 -14.664  23.441  1.00  0.00    -0.010 C
HETATM   16  C10 UNL     1      21.429 -16.113  23.770  1.00  0.00     0.029 C
HETATM   17  C14 UNL     1      19.927 -14.333  24.400  1.00  0.00     0.031 C
HETATM   18  C11 UNL     1      20.249 -16.948  23.360  1.00  0.00     0.077 C
HETATM   19  N3  UNL     1      19.015 -16.574  23.936  1.00  0.00    -0.411 N
HETATM   20  C13 UNL     1      18.750 -15.195  24.078  1.00  0.00     0.100 C
ATOM     21  H3  UNL     1      18.340 -17.276  24.240  1.00  0.00     0.154 HD
ENDBRANCH   7  10
ENDBRANCH   3   4
BRANCH   3  22
HETATM   22  C15 UNL     1      12.521 -12.382  22.216  1.00  0.00     0.209 C
HETATM   23  O2  UNL     1      12.063 -12.677  23.335  1.00  0.00    -0.646 OA
HETATM   24  O3  UNL     1      12.167 -11.188  21.631  1.00  0.00    -0.646 OA
ENDBRANCH   3  22
TORSDOF 3
ENDMDL