MODEL 2
REMARK VINA RESULT: -7.801077417      0.978      1.139
REMARK  3 active torsions:
REMARK  status: ('A' for Active; 'I' for Inactive)
REMARK       I    between atoms: N3_4  and  C2_6
REMARK       I    between atoms: C2_6  and  N4_8
REMARK    1  A    between atoms: N4_8  and  C3_10
REMARK    2  A    between atoms: C10_17  and  N5_18
REMARK    3  A    between atoms: N5_18  and  C11_21
ROOT
HETATM    1  C3  UNL     1      17.959 -14.079  21.993  1.00  0.00     0.037 C
HETATM    2  C4  UNL     1      19.026 -13.255  21.332  1.00  0.00     0.036 C
HETATM    3  C5  UNL     1      20.306 -14.085  21.171  1.00  0.00    -0.009 C
HETATM    4  C6  UNL     1      20.009 -15.346  20.399  1.00  0.00     0.009 C
HETATM    5  C7  UNL     1      19.039 -16.157  21.216  1.00  0.00    -0.009 C
HETATM    6  C8  UNL     1      17.739 -15.402  21.270  1.00  0.00     0.036 C
HETATM    7  C9  UNL     1      19.550 -16.454  22.598  1.00  0.00     0.043 C
HETATM    8  C10 UNL     1      19.801 -15.130  23.338  1.00  0.00     0.129 C
HETATM    9  C14 UNL     1      20.823 -14.378  22.550  1.00  0.00     0.043 C
HETATM   10  C15 UNL     1      18.457 -14.440  23.378  1.00  0.00     0.070 C
ENDROOT
BRANCH   1  11
HETATM   11  N4  UNL     1      16.725 -13.345  22.109  1.00  0.00    -0.333 N
HETATM   12  C2  UNL     1      16.072 -12.661  21.068  1.00  0.00     0.322 C
HETATM   13  N3  UNL     1      14.865 -11.980  21.329  1.00  0.00    -0.285 N
HETATM   14  O1  UNL     1      16.573 -12.665  19.922  1.00  0.00    -0.247 OA
HETATM   15  C1  UNL     1      13.924 -11.769  20.497  1.00  0.00     0.204 C
ATOM     16  H3  UNL     1      14.732 -11.624  22.276  1.00  0.00     0.172 HD
HETATM   17  N1  UNL     1      14.044 -12.236  19.174  1.00  0.00    -0.066 NA
HETATM   18  N2  UNL     1      12.765 -11.072  20.887  1.00  0.00    -0.066 NA
ATOM     19  H4  UNL     1      16.285 -13.319  23.029  1.00  0.00     0.165 HD
ENDBRANCH   1  11
BRANCH   8  20
HETATM   20  N5  UNL     1      20.196 -15.384  24.700  1.00  0.00    -0.062 N
ATOM     21  H52 UNL     1      19.373 -15.524  25.287  1.00  0.00     0.278 HD
ATOM     22  H51 UNL     1      20.627 -16.305  24.777  1.00  0.00     0.278 HD
BRANCH  20  23
HETATM   23  C11 UNL     1      21.048 -14.389  25.270  1.00  0.00     0.187 A
HETATM   24  C12 UNL     1      20.480 -13.621  26.426  1.00  0.00     0.035 A
HETATM   25  C13 UNL     1      21.593 -14.559  26.649  1.00  0.00     0.035 A
ENDBRANCH  20  23
ENDBRANCH   8  20
TORSDOF 3
ENDMDL