MODEL 3
REMARK VINA RESULT: -6.563449367      2.974      7.858
REMARK  7 active torsions:
REMARK  status: ('A' for Active; 'I' for Inactive)
REMARK       I    between atoms: C1_2  and  N1_3
REMARK    1  A    between atoms: C1_2  and  C7_15
REMARK    2  A    between atoms: N1_3  and  N2_5
REMARK    3  A    between atoms: N2_5  and  C2_7
REMARK    4  A    between atoms: C2_7  and  N3_9
REMARK    5  A    between atoms: N3_9  and  C3_11
REMARK    6  A    between atoms: C3_11  and  C4_12
REMARK       I    between atoms: C7_15  and  N4_17
REMARK    7  A    between atoms: N4_17  and  C8_19
ROOT
HETATM    1  O1  UNL     1      16.362 -13.585  22.229  1.00  0.00    -0.261 OA
HETATM    2  C1  UNL     1      16.380 -14.791  22.661  1.00  0.00     0.327 C
HETATM    3  N1  UNL     1      15.280 -15.625  22.323  1.00  0.00    -0.260 N
ATOM      4  H1  UNL     1      15.242 -16.592  22.644  1.00  0.00     0.190 HD
ENDROOT
BRANCH   2   5
HETATM    5  C7  UNL     1      17.512 -15.224  23.457  1.00  0.00     0.311 C
HETATM    6  O2  UNL     1      17.413 -16.312  24.084  1.00  0.00    -0.262 OA
HETATM    7  N4  UNL     1      18.663 -14.419  23.487  1.00  0.00    -0.348 N
ATOM      8  H4  UNL     1      18.677 -13.545  22.962  1.00  0.00     0.163 HD
BRANCH   7   9
HETATM    9  C8  UNL     1      19.836 -14.809  24.255  1.00  0.00     0.084 C
HETATM   10  C9  UNL     1      21.002 -14.688  23.309  1.00  0.00     0.025 C
HETATM   11  C10 UNL     1      22.352 -14.749  23.877  1.00  0.00     0.002 C
HETATM   12  C11 UNL     1      22.517 -14.201  25.258  1.00  0.00     0.000 C
HETATM   13  C12 UNL     1      21.311 -14.340  26.122  1.00  0.00     0.002 C
HETATM   14  C13 UNL     1      20.071 -13.861  25.409  1.00  0.00     0.025 C
ENDBRANCH   7   9
ENDBRANCH   2   5
BRANCH   3  15
HETATM   15  N2  UNL     1      14.262 -15.098  21.548  1.00  0.00    -0.273 N
ATOM     16  H2  UNL     1      14.499 -14.620  20.679  1.00  0.00     0.189 HD
BRANCH  15  17
HETATM   17  C2  UNL     1      12.921 -15.199  21.917  1.00  0.00     0.186 C
HETATM   18  S1  UNL     1      12.053 -16.421  21.195  1.00  0.00    -0.040 SA
BRANCH  17  19
HETATM   19  N3  UNL     1      12.242 -14.352  22.829  1.00  0.00    -0.366 N
ATOM     20  H3  UNL     1      12.263 -14.551  23.829  1.00  0.00     0.161 HD
BRANCH  19  21
HETATM   21  C3  UNL     1      11.517 -13.198  22.326  1.00  0.00     0.126 C
BRANCH  21  22
HETATM   22  C4  UNL     1      12.255 -11.910  22.621  1.00  0.00     0.003 A
HETATM   23  C5  UNL     1      11.472 -10.846  23.296  1.00  0.00     0.007 A
HETATM   24  C6  UNL     1      11.841 -10.689  21.866  1.00  0.00     0.007 A
ENDBRANCH  21  22
ENDBRANCH  19  21
ENDBRANCH  17  19
ENDBRANCH  15  17
ENDBRANCH   3  15
TORSDOF 7
ENDMDL