MODEL 2
REMARK VINA RESULT: -6.190455896      2.563      6.560
REMARK  6 active torsions:
REMARK  status: ('A' for Active; 'I' for Inactive)
REMARK       I    between atoms: C2_2  and  N1_4
REMARK    1  A    between atoms: N1_4  and  C3_6
REMARK    2  A    between atoms: C3_6  and  C4_7
REMARK    3  A    between atoms: C4_7  and  N2_8
REMARK       I    between atoms: N2_8  and  C5_10
REMARK       I    between atoms: C5_10  and  N5_20
REMARK    4  A    between atoms: N3_11  and  C6_13
REMARK    5  A    between atoms: C6_13  and  N4_15
REMARK       I    between atoms: N4_15  and  C7_17
REMARK    6  A    between atoms: N5_20  and  C9_22
ROOT
HETATM    1  N2  UNL     1      16.496 -14.493  22.982  1.00  0.00    -0.225 N
ATOM      2  H2  UNL     1      16.391 -14.870  23.924  1.00  0.00     0.177 HD
HETATM    3  C5  UNL     1      15.346 -14.102  22.264  1.00  0.00     0.676 C
HETATM    4  N3  UNL     1      15.328 -12.880  21.829  1.00  0.00    -0.166 N
ATOM      5  H3  UNL     1      16.124 -12.270  22.019  1.00  0.00     0.186 HD
HETATM    6  N5  UNL     1      14.238 -14.942  21.994  1.00  0.00    -0.218 N
ATOM      7  H5  UNL     1      13.315 -14.576  22.226  1.00  0.00     0.178 HD
ENDROOT
BRANCH   1   8
HETATM    8  C4  UNL     1      17.801 -14.372  22.420  1.00  0.00     0.157 C
BRANCH   8   9
HETATM    9  C3  UNL     1      18.841 -15.176  23.163  1.00  0.00     0.143 C
BRANCH   9  10
HETATM   10  N1  UNL     1      19.727 -14.353  23.933  1.00  0.00    -0.360 N
HETATM   11  C2  UNL     1      19.605 -14.359  25.342  1.00  0.00     0.213 C
HETATM   12  C1  UNL     1      20.514 -13.515  26.154  1.00  0.00     0.117 C
HETATM   13  O1  UNL     1      18.753 -15.054  25.944  1.00  0.00    -0.274 OA
ATOM     14  H1  UNL     1      20.431 -13.775  23.474  1.00  0.00     0.162 HD
ENDBRANCH   9  10
ENDBRANCH   8   9
ENDBRANCH   1   8
BRANCH   4  15
HETATM   15  C6  UNL     1      14.220 -12.369  21.090  1.00  0.00     0.193 C
HETATM   16  S1  UNL     1      13.937 -12.838  19.557  1.00  0.00    -0.040 SA
BRANCH  15  17
HETATM   17  N4  UNL     1      13.344 -11.438  21.692  1.00  0.00    -0.304 N
HETATM   18  C7  UNL     1      12.381 -11.795  22.660  1.00  0.00     0.219 C
HETATM   19  C8  UNL     1      11.480 -10.789  23.270  1.00  0.00     0.117 C
HETATM   20  O2  UNL     1      12.278 -12.990  23.023  1.00  0.00    -0.274 OA
ATOM     21  H4  UNL     1      13.410 -10.460  21.412  1.00  0.00     0.171 HD
ENDBRANCH  15  17
ENDBRANCH   4  15
BRANCH   6  22
HETATM   22  C9  UNL     1      14.291 -16.240  21.434  1.00  0.00     0.036 C
HETATM   23  C10 UNL     1      12.920 -16.531  20.812  1.00  0.00     0.038 C
HETATM   24  C11 UNL     1      14.504 -17.307  22.483  1.00  0.00     0.038 C
HETATM   25  C12 UNL     1      15.311 -16.442  20.359  1.00  0.00     0.038 C
ENDBRANCH   6  22
TORSDOF 6
ENDMDL