MODEL 1
REMARK VINA RESULT: -8.208904388      0.000      0.000
REMARK  4 active torsions:
REMARK  status: ('A' for Active; 'I' for Inactive)
REMARK    1  A    between atoms: C2_2  and  N1_3
REMARK    2  A    between atoms: C2_2  and  C8_10
REMARK       I    between atoms: N1_3  and  C3_4
REMARK    3  A    between atoms: C3_4  and  C4_6
REMARK       I    between atoms: C8_10  and  N2_12
REMARK    4  A    between atoms: N2_12  and  C9_14
REMARK       I    between atoms: N3_17  and  C12_18
ROOT
HETATM    1  C8  UNL     1      14.964 -13.133  19.115  1.00  0.00     0.253 C
HETATM    2  O2  UNL     1      14.371 -12.507  18.218  1.00  0.00    -0.270 OA
HETATM    3  N2  UNL     1      14.483 -13.227  20.411  1.00  0.00    -0.354 N
ATOM      4  H2  UNL     1      15.044 -13.728  21.102  1.00  0.00     0.163 HD
ENDROOT
BRANCH   3   5
HETATM    5  C9  UNL     1      13.205 -12.642  20.840  1.00  0.00     0.087 C
HETATM    6  C10 UNL     1      13.306 -11.194  21.107  1.00  0.00     0.045 C
HETATM    7  C11 UNL     1      12.067 -10.650  21.793  1.00  0.00     0.127 C
HETATM    8  N3  UNL     1      11.610 -11.505  22.850  1.00  0.00    -0.356 N
HETATM    9  C12 UNL     1      11.210 -10.985  24.080  1.00  0.00     0.183 C
HETATM   10  C13 UNL     1      11.570 -12.951  22.667  1.00  0.00     0.127 C
HETATM   11  N4  UNL     1      10.529 -11.571  24.970  1.00  0.00    -0.374 N
HETATM   12  N5  UNL     1      11.497  -9.578  24.409  1.00  0.00    -0.064 NA
ATOM     13  H42 UNL     1      10.331 -12.546  24.743  1.00  0.00     0.158 HD
ATOM     14  H41 UNL     1      10.237 -11.191  25.870  1.00  0.00     0.158 HD
HETATM   15  C14 UNL     1      12.858 -13.449  22.083  1.00  0.00     0.045 C
ENDBRANCH   3   5
BRANCH   1  16
HETATM   16  C2  UNL     1      16.288 -13.813  18.685  1.00  0.00     0.254 C
HETATM   17  C1  UNL     1      15.900 -15.264  18.577  1.00  0.00     0.058 C
BRANCH  16  18
HETATM   18  N1  UNL     1      17.306 -13.418  19.474  1.00  0.00    -0.400 NA
HETATM   19  C3  UNL     1      18.353 -13.011  20.287  1.00  0.00     0.295 C
HETATM   20  O1  UNL     1      18.380 -12.254  21.258  1.00  0.00    -0.257 OA
BRANCH  19  21
HETATM   21  C4  UNL     1      19.753 -13.582  19.941  1.00  0.00     0.043 C
HETATM   22  C5  UNL     1      19.873 -15.031  20.374  1.00  0.00     0.026 C
HETATM   23  C6  UNL     1      20.789 -12.830  20.756  1.00  0.00     0.026 C
HETATM   24  C7  UNL     1      20.055 -13.399  18.480  1.00  0.00     0.026 C
ENDBRANCH  19  21
ENDBRANCH  16  18
ENDBRANCH   1  16
TORSDOF 4
ENDMDL