MODEL 5
REMARK VINA RESULT: -6.653700176      6.719      9.107
REMARK  4 active torsions:
REMARK  status: ('A' for Active; 'I' for Inactive)
REMARK    1  A    between atoms: C2_2  and  N1_4
REMARK       I    between atoms: N1_4  and  C4_5
REMARK       I    between atoms: C4_5  and  N2_7
REMARK    2  A    between atoms: N2_7  and  N3_9
REMARK       I    between atoms: N3_9  and  C5_11
REMARK       I    between atoms: C5_11  and  N4_13
REMARK    3  A    between atoms: N4_13  and  C6_15
REMARK    4  A    between atoms: C6_15  and  C7_16
REMARK       I    between atoms: C7_16  and  N5_18
ROOT
HETATM    1  N3  UNL     1      13.470 -12.358  19.608  1.00  0.00    -0.247 N
ATOM      2  H3  UNL     1      12.869 -11.751  19.052  1.00  0.00     0.192 HD
HETATM    3  C5  UNL     1      14.499 -12.912  18.828  1.00  0.00     0.339 C
HETATM    4  O2  UNL     1      15.241 -13.754  19.256  1.00  0.00    -0.245 OA
HETATM    5  N4  UNL     1      14.564 -12.352  17.510  1.00  0.00    -0.312 N
ATOM      6  H4  UNL     1      13.843 -11.658  17.312  1.00  0.00     0.170 HD
ENDROOT
BRANCH   1   7
HETATM    7  N2  UNL     1      13.055 -12.412  20.905  1.00  0.00    -0.236 N
HETATM    8  C4  UNL     1      12.424 -11.133  21.311  1.00  0.00     0.407 C
HETATM    9  N1  UNL     1      11.716 -10.931  22.470  1.00  0.00    -0.391 NA
HETATM   10  O1  UNL     1      12.625 -10.243  20.399  1.00  0.00    -0.229 OA
ATOM     11  H2  UNL     1      13.163 -13.223  21.514  1.00  0.00     0.193 HD
BRANCH   9  12
HETATM   12  C2  UNL     1      11.012 -10.719  23.616  1.00  0.00     0.160 C
HETATM   13  C1  UNL     1      11.495  -9.633  24.540  1.00  0.00     0.047 C
HETATM   14  C3  UNL     1      10.801 -11.977  24.518  1.00  0.00     0.047 C
ENDBRANCH   9  12
ENDBRANCH   1   7
BRANCH   5  15
HETATM   15  C6  UNL     1      15.436 -12.588  16.457  1.00  0.00     0.167 C
BRANCH  15  16
HETATM   16  C7  UNL     1      14.987 -12.257  15.062  1.00  0.00     0.259 C
HETATM   17  O3  UNL     1      13.974 -11.548  14.996  1.00  0.00    -0.267 OA
HETATM   18  N5  UNL     1      15.727 -12.738  14.010  1.00  0.00    -0.343 N
HETATM   19  C8  UNL     1      16.635 -13.864  13.987  1.00  0.00     0.127 C
HETATM   20  C11 UNL     1      15.805 -12.120  12.695  1.00  0.00     0.083 C
HETATM   21  C9  UNL     1      16.175 -14.512  12.676  1.00  0.00     0.022 C
HETATM   22  C10 UNL     1      15.894 -13.292  11.762  1.00  0.00     0.026 C
HETATM   23  C12 UNL     1      17.070 -11.243  12.629  1.00  0.00     0.032 C
ENDBRANCH  15  16
ENDBRANCH   5  15
TORSDOF 4
ENDMDL