MODEL 5
REMARK VINA RESULT: -6.372247827      1.681      7.336
REMARK  4 active torsions:
REMARK  status: ('A' for Active; 'I' for Inactive)
REMARK    1  A    between atoms: C2_2  and  N1_3
REMARK    2  A    between atoms: C2_2  and  C10_18
REMARK       I    between atoms: N1_3  and  C3_5
REMARK       I    between atoms: C3_5  and  N2_7
REMARK    3  A    between atoms: N2_7  and  C4_9
REMARK       I    between atoms: C10_18  and  N4_20
REMARK    4  A    between atoms: N4_20  and  C11_22
ROOT
HETATM    1  N1  UNL     1      17.026 -14.266  21.746  1.00  0.00    -0.330 N
ATOM      2  H1  UNL     1      16.278 -14.945  21.879  1.00  0.00     0.165 HD
HETATM    3  C3  UNL     1      18.166 -14.358  22.580  1.00  0.00     0.317 C
HETATM    4  O1  UNL     1      19.071 -13.509  22.393  1.00  0.00    -0.247 OA
HETATM    5  N2  UNL     1      18.281 -15.355  23.575  1.00  0.00    -0.325 N
ATOM      6  H2  UNL     1      17.511 -16.017  23.670  1.00  0.00     0.165 HD
ENDROOT
BRANCH   1   7
HETATM    7  C2  UNL     1      16.862 -13.268  20.718  1.00  0.00     0.174 C
HETATM    8  C1  UNL     1      17.571 -13.643  19.436  1.00  0.00     0.042 C
BRANCH   7   9
HETATM    9  C10 UNL     1      15.380 -13.138  20.479  1.00  0.00     0.240 C
HETATM   10  O3  UNL     1      14.918 -12.858  19.351  1.00  0.00    -0.271 OA
HETATM   11  N4  UNL     1      14.512 -13.343  21.575  1.00  0.00    -0.351 N
ATOM     12  H4  UNL     1      14.885 -13.571  22.497  1.00  0.00     0.163 HD
BRANCH  11  13
HETATM   13  C11 UNL     1      13.093 -13.223  21.368  1.00  0.00     0.022 C
HETATM   14  C12 UNL     1      12.340 -13.427  22.669  1.00  0.00     0.037 C
HETATM   15  C13 UNL     1      12.792 -11.868  20.804  1.00  0.00     0.037 C
HETATM   16  C14 UNL     1      12.648 -14.326  20.423  1.00  0.00     0.037 C
ENDBRANCH  11  13
ENDBRANCH   7   9
ENDBRANCH   1   7
BRANCH   5  17
HETATM   17  C4  UNL     1      19.406 -15.507  24.465  1.00  0.00     0.112 C
HETATM   18  C5  UNL     1      19.252 -16.858  25.182  1.00  0.00     0.049 C
HETATM   19  C6  UNL     1      19.382 -14.428  25.488  1.00  0.00     0.042 C
HETATM   20  C7  UNL     1      20.634 -14.275  26.301  1.00  0.00     0.023 C
HETATM   21  C8  UNL     1      21.862 -14.065  25.450  1.00  0.00     0.122 C
HETATM   22  N3  UNL     1      21.678 -14.578  24.106  1.00  0.00    -0.359 N
HETATM   23  C9  UNL     1      20.695 -15.546  23.778  1.00  0.00     0.245 C
ATOM     24  H3  UNL     1      22.282 -14.226  23.363  1.00  0.00     0.162 HD
HETATM   25  O2  UNL     1      21.016 -16.385  22.898  1.00  0.00    -0.271 OA
ENDBRANCH   5  17
TORSDOF 4
ENDMDL