MODEL 3
REMARK VINA RESULT: -6.000201315      1.752      2.286
REMARK  6 active torsions:
REMARK  status: ('A' for Active; 'I' for Inactive)
REMARK    1  A    between atoms: C2_2  and  C4_4
REMARK    2  A    between atoms: C4_4  and  N1_5
REMARK    3  A    between atoms: N1_5  and  C5_7
REMARK    4  A    between atoms: C5_7  and  N2_9
REMARK    5  A    between atoms: N2_9  and  N3_11
REMARK       I    between atoms: N3_11  and  C6_13
REMARK       I    between atoms: C6_13  and  N6_21
REMARK       I    between atoms: N4_14  and  C7_16
REMARK       I    between atoms: C7_16  and  N5_18
REMARK    6  A    between atoms: N6_21  and  C10_23
ROOT
HETATM    1  N3  UNL     1      15.166 -14.311  22.586  1.00  0.00    -0.130 N
ATOM      2  H3  UNL     1      14.543 -14.423  23.386  1.00  0.00     0.205 HD
HETATM    3  C6  UNL     1      14.656 -13.980  21.275  1.00  0.00     0.696 C
HETATM    4  N4  UNL     1      13.612 -13.272  21.199  1.00  0.00    -0.140 N
ATOM      5  H4  UNL     1      13.293 -13.069  20.252  1.00  0.00     0.189 HD
HETATM    6  C7  UNL     1      12.830 -12.728  22.217  1.00  0.00     0.336 C
HETATM    7  O1  UNL     1      12.257 -13.528  23.017  1.00  0.00    -0.246 OA
HETATM    8  N5  UNL     1      12.631 -11.335  22.420  1.00  0.00    -0.342 N
HETATM    9  C8  UNL     1      13.263 -10.403  21.522  1.00  0.00     0.154 C
HETATM   10  C9  UNL     1      11.807 -10.864  23.511  1.00  0.00     0.154 C
HETATM   11  N6  UNL     1      15.367 -14.475  20.157  1.00  0.00    -0.225 N
ATOM     12  H6  UNL     1      15.770 -15.413  20.161  1.00  0.00     0.177 HD
ENDROOT
BRANCH   1  13
HETATM   13  N2  UNL     1      16.534 -14.469  22.709  1.00  0.00    -0.262 N
ATOM     14  H2  UNL     1      17.119 -13.651  22.878  1.00  0.00     0.190 HD
BRANCH  13  15
HETATM   15  C5  UNL     1      17.141 -15.751  22.605  1.00  0.00     0.187 C
HETATM   16  S1  UNL     1      16.254 -17.094  23.002  1.00  0.00    -0.040 SA
BRANCH  15  17
HETATM   17  N1  UNL     1      18.463 -15.869  22.154  1.00  0.00    -0.362 N
ATOM     18  H1  UNL     1      19.143 -16.374  22.723  1.00  0.00     0.162 HD
BRANCH  17  19
HETATM   19  C4  UNL     1      18.878 -15.289  20.900  1.00  0.00     0.155 C
BRANCH  19  20
HETATM   20  C2  UNL     1      20.051 -14.432  21.114  1.00  0.00    -0.075 C
HETATM   21  C1  UNL     1      20.795 -14.459  22.198  1.00  0.00     0.015 C
HETATM   22  C3  UNL     1      20.385 -13.477  20.008  1.00  0.00     0.044 C
ENDBRANCH  19  20
ENDBRANCH  17  19
ENDBRANCH  15  17
ENDBRANCH  13  15
ENDBRANCH   1  13
BRANCH  11  23
HETATM   23  C10 UNL     1      15.502 -13.607  19.008  1.00  0.00     0.134 C
HETATM   24  C11 UNL     1      16.861 -13.645  18.387  1.00  0.00     0.027 C
ENDBRANCH  11  23
TORSDOF 6
ENDMDL