MODEL 1
REMARK VINA RESULT: -7.213242226      0.000      0.000
REMARK  4 active torsions:
REMARK  status: ('A' for Active; 'I' for Inactive)
REMARK    1  A    between atoms: C2_2  and  C4_4
REMARK    2  A    between atoms: C4_4  and  C5_5
REMARK    3  A    between atoms: C5_5  and  N1_6
REMARK       I    between atoms: N1_6  and  C6_8
REMARK       I    between atoms: C6_8  and  N2_10
REMARK       I    between atoms: N3_12  and  C8_14
REMARK       I    between atoms: C8_14  and  N5_18
REMARK    4  A    between atoms: N5_18  and  N6_20
ROOT
HETATM    1  N1  UNL     1      13.582 -13.760  21.740  1.00  0.00    -0.343 N
ATOM      2  H1  UNL     1      14.198 -14.197  22.425  1.00  0.00     0.164 HD
HETATM    3  C6  UNL     1      14.021 -13.469  20.402  1.00  0.00     0.324 C
HETATM    4  O1  UNL     1      13.177 -12.917  19.602  1.00  0.00    -0.247 OA
HETATM    5  N2  UNL     1      15.302 -13.743  19.900  1.00  0.00    -0.275 N
HETATM    6  C7  UNL     1      15.802 -13.480  18.546  1.00  0.00     0.106 C
HETATM    7  N3  UNL     1      15.622 -12.598  17.647  1.00  0.00    -0.179 N
ATOM      8  H3  UNL     1      14.973 -11.834  17.835  1.00  0.00     0.185 HD
HETATM    9  C8  UNL     1      16.281 -12.633  16.404  1.00  0.00     0.693 C
HETATM   10  N4  UNL     1      17.224 -11.793  16.095  1.00  0.00    -0.233 N
ATOM     11  H41 UNL     1      17.702 -11.819  15.195  1.00  0.00     0.174 HD
ATOM     12  H42 UNL     1      17.474 -11.097  16.797  1.00  0.00     0.174 HD
HETATM   13  N5  UNL     1      15.934 -13.601  15.429  1.00  0.00    -0.118 N
ATOM     14  H5  UNL     1      15.261 -13.342  14.708  1.00  0.00     0.207 HD
HETATM   15  C9  UNL     1      16.623 -14.709  18.696  1.00  0.00     0.111 C
HETATM   16  C10 UNL     1      16.549 -14.262  20.185  1.00  0.00     0.078 C
HETATM   17  C11 UNL     1      17.722 -13.351  20.514  1.00  0.00     0.137 C
HETATM   18  C12 UNL     1      18.817 -14.395  20.550  1.00  0.00     0.220 C
HETATM   19  O2  UNL     1      20.045 -14.139  20.578  1.00  0.00    -0.274 OA
HETATM   20  N8  UNL     1      18.228 -15.712  20.548  1.00  0.00    -0.354 N
ATOM     21  H8  UNL     1      18.639 -16.603  20.271  1.00  0.00     0.162 HD
HETATM   22  C13 UNL     1      16.850 -15.421  21.063  1.00  0.00     0.110 C
HETATM   23  C14 UNL     1      17.079 -15.097  22.513  1.00  0.00     0.035 C
ENDROOT
BRANCH   1  24
HETATM   24  C5  UNL     1      12.225 -13.399  22.062  1.00  0.00     0.125 C
BRANCH  24  25
HETATM   25  C4  UNL     1      12.024 -12.585  23.278  1.00  0.00     0.023 C
BRANCH  25  26
HETATM   26  C2  UNL     1      11.937 -11.107  23.111  1.00  0.00    -0.021 C
HETATM   27  C1  UNL     1      11.427 -10.405  24.353  1.00  0.00     0.009 C
HETATM   28  C3  UNL     1      13.121 -10.426  22.522  1.00  0.00     0.009 C
ENDBRANCH  25  26
ENDBRANCH  24  25
ENDBRANCH   1  24
BRANCH  13  29
HETATM   29  N6  UNL     1      16.465 -14.888  15.404  1.00  0.00    -0.235 N
HETATM   30  N7  UNL     1      16.504 -15.549  14.337  1.00  0.00    -0.330 N
ATOM     31  H72 UNL     1      16.138 -15.124  13.486  1.00  0.00     0.178 HD
ATOM     32  H71 UNL     1      16.893 -16.492  14.319  1.00  0.00     0.178 HD
ATOM     33  H6  UNL     1      16.827 -15.299  16.264  1.00  0.00     0.208 HD
ENDBRANCH  13  29
TORSDOF 4
ENDMDL