MODEL 1
REMARK VINA RESULT: -7.272448868      0.000      0.000
REMARK  7 active torsions:
REMARK  status: ('A' for Active; 'I' for Inactive)
REMARK    1  A    between atoms: C3_4  and  N2_5
REMARK    2  A    between atoms: N2_5  and  C4_7
REMARK    3  A    between atoms: C4_7  and  C5_11
REMARK    4  A    between atoms: C5_11  and  N4_12
REMARK    5  A    between atoms: C5_11  and  N5_16
REMARK       I    between atoms: N5_16  and  C6_18
REMARK       I    between atoms: C6_18  and  N6_20
REMARK    6  A    between atoms: N6_20  and  N7_22
REMARK    7  A    between atoms: C7_27  and  N9_28
ROOT
HETATM    1  C4  UNL     1      14.301 -13.754  21.126  1.00  0.00     0.122 C
HETATM    2  N3  UNL     1      14.714 -13.986  22.320  1.00  0.00    -0.386 N
ATOM      3  H31 UNL     1      14.050 -14.018  23.094  1.00  0.00     0.157 HD
ATOM      4  H32 UNL     1      15.719 -14.112  22.438  1.00  0.00     0.157 HD
ENDROOT
BRANCH   1   5
HETATM    5  N2  UNL     1      15.211 -13.710  20.066  1.00  0.00    -0.366 N
ATOM      6  H2  UNL     1      15.075 -12.903  19.456  1.00  0.00     0.161 HD
BRANCH   5   7
HETATM    7  C3  UNL     1      16.263 -14.531  19.660  1.00  0.00     0.154 C
HETATM    8  C2  UNL     1      16.138 -14.686  18.143  1.00  0.00     0.085 C
HETATM    9  N1  UNL     1      17.017 -13.966  17.572  1.00  0.00    -0.393 N
HETATM   10  C1  UNL     1      17.207 -13.857  16.154  1.00  0.00     0.148 C
HETATM   11  C14 UNL     1      17.823 -13.237  18.542  1.00  0.00     0.157 C
HETATM   12  C7  UNL     1      17.672 -14.169  19.732  1.00  0.00     0.235 C
BRANCH  12  13
HETATM   13  N9  UNL     1      18.345 -13.823  20.897  1.00  0.00    -0.063 N
HETATM   14  C8  UNL     1      17.956 -12.526  21.463  1.00  0.00     0.273 C
HETATM   15  C9  UNL     1      18.212 -14.770  21.950  1.00  0.00     0.237 C
HETATM   16  C10 UNL     1      19.103 -15.961  21.915  1.00  0.00     0.028 C
HETATM   17  C11 UNL     1      20.550 -15.658  21.617  1.00  0.00     0.003 C
HETATM   18  C12 UNL     1      20.544 -14.844  20.336  1.00  0.00     0.028 C
HETATM   19  C13 UNL     1      19.769 -13.612  20.583  1.00  0.00     0.237 C
ENDBRANCH  12  13
ENDBRANCH   5   7
ENDBRANCH   1   5
BRANCH   1  20
HETATM   20  C5  UNL     1      12.838 -13.570  20.955  1.00  0.00     0.353 C
BRANCH  20  21
HETATM   21  N4  UNL     1      12.226 -14.740  20.338  1.00  0.00    -0.051 N
ATOM     22  H43 UNL     1      11.388 -14.490  19.813  1.00  0.00     0.277 HD
ATOM     23  H42 UNL     1      12.793 -15.097  19.570  1.00  0.00     0.277 HD
ATOM     24  H41 UNL     1      12.031 -15.464  21.029  1.00  0.00     0.277 HD
ENDBRANCH  20  21
BRANCH  20  25
HETATM   25  N5  UNL     1      12.174 -13.457  22.266  1.00  0.00    -0.308 N
HETATM   26  C6  UNL     1      11.801 -12.236  22.840  1.00  0.00     0.337 C
HETATM   27  O1  UNL     1      12.039 -11.172  22.218  1.00  0.00    -0.245 OA
HETATM   28  N6  UNL     1      11.174 -12.210  24.088  1.00  0.00    -0.237 N
ATOM     29  H6  UNL     1      10.987 -13.083  24.584  1.00  0.00     0.193 HD
ATOM     30  H5  UNL     1      11.975 -14.315  22.782  1.00  0.00     0.166 HD
BRANCH  28  31
HETATM   31  N7  UNL     1      10.799 -10.976  24.665  1.00  0.00    -0.245 N
HETATM   32  N8  UNL     1      11.680 -10.080  24.839  1.00  0.00    -0.331 N
ATOM     33  H82 UNL     1      12.643 -10.264  24.559  1.00  0.00     0.178 HD
ATOM     34  H81 UNL     1      11.409  -9.189  25.255  1.00  0.00     0.178 HD
ATOM     35  H7  UNL     1       9.831 -10.808  24.939  1.00  0.00     0.208 HD
ENDBRANCH  28  31
ENDBRANCH  20  25
ENDBRANCH   1  20
TORSDOF 7
ENDMDL