MODEL 3
REMARK VINA RESULT: -5.858146414      2.443      4.457
REMARK  3 active torsions:
REMARK  status: ('A' for Active; 'I' for Inactive)
REMARK    1  A    between atoms: C5_11  and  N4_12
REMARK       I    between atoms: N4_12  and  C6_14
REMARK    2  A    between atoms: N7_20  and  C9_22
REMARK    3  A    between atoms: C9_22  and  S2_23
ROOT
HETATM    1  C1  UNL     1      16.490 -18.569  24.874  1.00  0.00     0.152 C
HETATM    2  N1  UNL     1      17.526 -17.805  24.182  1.00  0.00    -0.349 N
HETATM    3  C2  UNL     1      17.761 -18.269  22.839  1.00  0.00     0.180 C
HETATM    4  C3  UNL     1      18.426 -17.238  21.963  1.00  0.00     0.309 C
HETATM    5  N2  UNL     1      17.498 -16.197  21.560  1.00  0.00    -0.338 N
ATOM      6  H2  UNL     1      17.154 -16.191  20.600  1.00  0.00     0.164 HD
HETATM    7  C4  UNL     1      17.046 -15.173  22.464  1.00  0.00     0.171 C
HETATM    8  S1  UNL     1      15.642 -14.448  22.104  1.00  0.00    -0.041 SA
HETATM    9  N3  UNL     1      17.697 -14.708  23.659  1.00  0.00    -0.332 N
ATOM     10  H3  UNL     1      17.464 -13.784  24.025  1.00  0.00     0.165 HD
HETATM   11  C5  UNL     1      18.694 -15.532  24.369  1.00  0.00     0.216 C
HETATM   12  C7  UNL     1      19.836 -15.863  23.450  1.00  0.00     0.304 C
HETATM   13  N7  UNL     1      19.686 -16.789  22.431  1.00  0.00    -0.036 N
HETATM   14  C8  UNL     1      20.453 -18.022  22.714  1.00  0.00     0.276 C
HETATM   15  C12 UNL     1      18.114 -16.757  24.940  1.00  0.00     0.270 C
HETATM   16  O1  UNL     1      18.113 -16.943  26.185  1.00  0.00    -0.268 OA
ENDROOT
BRANCH  11  17
HETATM   17  N4  UNL     1      19.209 -14.683  25.419  1.00  0.00    -0.329 N
HETATM   18  C6  UNL     1      20.454 -14.783  26.045  1.00  0.00     0.184 C
HETATM   19  N5  UNL     1      21.115 -15.883  26.042  1.00  0.00    -0.374 N
HETATM   20  N6  UNL     1      21.018 -13.661  26.699  1.00  0.00    -0.064 NA
ATOM     21  H52 UNL     1      20.709 -16.691  25.571  1.00  0.00     0.158 HD
ATOM     22  H51 UNL     1      22.024 -15.956  26.499  1.00  0.00     0.158 HD
ATOM     23  H4  UNL     1      18.597 -13.932  25.738  1.00  0.00     0.165 HD
ENDBRANCH  11  17
BRANCH  13  24
HETATM   24  C9  UNL     1      20.373 -16.237  21.244  1.00  0.00     0.303 C
BRANCH  24  25
HETATM   25  S2  UNL     1      20.739 -14.524  21.461  1.00  0.00    -0.193 SA
HETATM   26  C10 UNL     1      19.595 -13.364  20.757  1.00  0.00     0.074 A
HETATM   27  C11 UNL     1      20.865 -13.627  19.933  1.00  0.00     0.074 A
ENDBRANCH  24  25
ENDBRANCH  13  24
TORSDOF 3
ENDMDL