MODEL 2
REMARK VINA RESULT: -7.096348040      2.260      3.896
REMARK  3 active torsions:
REMARK  status: ('A' for Active; 'I' for Inactive)
REMARK       I    between atoms: N1_2  and  C2_4
REMARK       I    between atoms: C2_4  and  N6_23
REMARK       I    between atoms: N2_5  and  C3_7
REMARK       I    between atoms: C3_7  and  N3_9
REMARK    1  A    between atoms: N3_9  and  C4_11
REMARK    2  A    between atoms: C7_14  and  C9_16
REMARK    3  A    between atoms: C9_16  and  N4_17
REMARK       I    between atoms: N4_17  and  C10_19
ROOT
HETATM    1  C1  UNL     1      23.549 -14.335  24.450  1.00  0.00     0.165 C
HETATM    2  N1  UNL     1      23.120 -15.581  23.855  1.00  0.00    -0.230 N
ATOM      3  H1  UNL     1      23.762 -16.374  23.849  1.00  0.00     0.177 HD
HETATM    4  C2  UNL     1      21.827 -15.733  23.278  1.00  0.00     0.680 C
HETATM    5  N2  UNL     1      21.458 -14.953  22.324  1.00  0.00    -0.142 N
ATOM      6  H2  UNL     1      22.089 -14.228  21.982  1.00  0.00     0.189 HD
HETATM    7  C3  UNL     1      20.182 -15.104  21.754  1.00  0.00     0.334 C
HETATM    8  O1  UNL     1      19.918 -16.150  21.120  1.00  0.00    -0.246 OA
HETATM    9  N3  UNL     1      19.220 -14.075  21.906  1.00  0.00    -0.338 N
ATOM     10  H3  UNL     1      19.448 -13.227  22.424  1.00  0.00     0.164 HD
HETATM   11  N6  UNL     1      20.915 -16.729  23.721  1.00  0.00    -0.212 N
HETATM   12  C12 UNL     1      21.121 -18.120  23.376  1.00  0.00     0.185 C
HETATM   13  C13 UNL     1      21.173 -18.873  24.646  1.00  0.00     0.075 C
HETATM   14  N7  UNL     1      20.521 -18.456  25.648  1.00  0.00    -0.399 N
ATOM     15  H7  UNL     1      20.595 -19.016  26.498  1.00  0.00     0.158 HD
HETATM   16  C14 UNL     1      19.702 -17.306  25.730  1.00  0.00     0.139 C
HETATM   17  C15 UNL     1      19.757 -16.405  24.526  1.00  0.00     0.161 C
ENDROOT
BRANCH   9  18
HETATM   18  C4  UNL     1      17.921 -14.240  21.320  1.00  0.00     0.087 C
HETATM   19  C5  UNL     1      16.993 -14.964  22.240  1.00  0.00     0.026 C
HETATM   20  C6  UNL     1      15.688 -14.217  22.268  1.00  0.00     0.013 C
HETATM   21  C7  UNL     1      15.779 -13.314  21.085  1.00  0.00    -0.026 C
HETATM   22  C8  UNL     1      15.555 -14.107  19.830  1.00  0.00     0.017 C
HETATM   23  C11 UNL     1      17.231 -12.885  21.110  1.00  0.00     0.036 C
BRANCH  21  24
HETATM   24  C9  UNL     1      14.847 -12.125  21.183  1.00  0.00     0.133 C
BRANCH  24  25
HETATM   25  N4  UNL     1      13.669 -12.476  21.943  1.00  0.00    -0.345 N
HETATM   26  C10 UNL     1      12.972 -11.489  22.666  1.00  0.00     0.328 C
HETATM   27  N5  UNL     1      11.819 -11.823  23.411  1.00  0.00    -0.040 NA
HETATM   28  O2  UNL     1      13.360 -10.301  22.661  1.00  0.00    -0.251 OA
ATOM     29  H4  UNL     1      13.340 -13.442  21.955  1.00  0.00     0.163 HD
ENDBRANCH  24  25
ENDBRANCH  21  24
ENDBRANCH   9  18
TORSDOF 3
ENDMDL