MODEL 5
REMARK VINA RESULT: -6.577536678      5.427      7.896
REMARK  6 active torsions:
REMARK  status: ('A' for Active; 'I' for Inactive)
REMARK    1  A    between atoms: C3_3  and  N1_4
REMARK    2  A    between atoms: C5_9  and  C6_10
REMARK    3  A    between atoms: C6_10  and  C7_11
REMARK    4  A    between atoms: C9_15  and  N4_16
REMARK    5  A    between atoms: C13_25  and  C14_26
REMARK    6  A    between atoms: C14_26  and  O3_28
ROOT
HETATM    1  C1  UNL     1      17.103 -16.930  20.499  1.00  0.00     0.014 C
HETATM    2  C2  UNL     1      16.907 -15.741  20.538  1.00  0.00    -0.097 C
HETATM    3  C3  UNL     1      16.696 -14.311  20.591  1.00  0.00     0.223 C
ENDROOT
BRANCH   3   4
HETATM    4  N1  UNL     1      16.121 -13.866  19.338  1.00  0.00    -0.300 N
HETATM    5  C4  UNL     1      17.104 -13.729  18.289  1.00  0.00     0.321 C
HETATM    6  O1  UNL     1      18.315 -13.636  18.680  1.00  0.00    -0.247 OA
HETATM    7  N2  UNL     1      16.929 -13.683  16.881  1.00  0.00    -0.329 N
HETATM    8  C5  UNL     1      15.839 -13.112  16.118  1.00  0.00     0.184 C
ATOM      9  H2  UNL     1      17.674 -14.111  16.331  1.00  0.00     0.165 HD
HETATM   10  C12 UNL     1      14.922 -12.318  16.980  1.00  0.00     0.242 C
HETATM   11  O2  UNL     1      14.383 -11.356  16.368  1.00  0.00    -0.271 OA
HETATM   12  N6  UNL     1      14.544 -12.432  18.325  1.00  0.00    -0.335 N
HETATM   13  C13 UNL     1      14.733 -13.588  19.190  1.00  0.00     0.220 C
ATOM     14  H6  UNL     1      14.088 -11.619  18.741  1.00  0.00     0.164 HD
BRANCH   8  15
HETATM   15  C6  UNL     1      16.447 -12.154  15.117  1.00  0.00     0.094 C
BRANCH  15  16
HETATM   16  C7  UNL     1      15.843 -12.203  13.786  1.00  0.00     0.045 A
HETATM   17  C8  UNL     1      16.593 -11.973  12.627  1.00  0.00     0.131 A
HETATM   18  N3  UNL     1      15.786 -12.086  11.563  1.00  0.00    -0.200 N
HETATM   19  C9  UNL     1      14.543 -12.384  12.028  1.00  0.00     0.679 A
ATOM     20  H3  UNL     1      16.054 -11.971  10.586  1.00  0.00     0.183 HD
HETATM   21  N5  UNL     1      14.593 -12.452  13.368  1.00  0.00    -0.194 N
ATOM     22  H5  UNL     1      13.801 -12.660  13.976  1.00  0.00     0.184 HD
BRANCH  19  23
HETATM   23  N4  UNL     1      13.482 -12.572  11.300  1.00  0.00    -0.226 N
HETATM   24  C10 UNL     1      13.518 -13.378  10.098  1.00  0.00     0.168 C
HETATM   25  C11 UNL     1      12.238 -11.977  11.679  1.00  0.00     0.168 C
ENDBRANCH  19  23
ENDBRANCH  15  16
ENDBRANCH   8  15
BRANCH  13  26
HETATM   26  C14 UNL     1      13.917 -13.497  20.427  1.00  0.00     0.156 C
HETATM   27  C15 UNL     1      13.504 -12.026  20.588  1.00  0.00     0.043 C
BRANCH  26  28
HETATM   28  O3  UNL     1      12.750 -14.216  20.303  1.00  0.00    -0.392 OA
ATOM     29  H3  UNL     1      12.226 -14.155  21.093  1.00  0.00     0.210 HD
ENDBRANCH  26  28
ENDBRANCH  13  26
ENDBRANCH   3   4
TORSDOF 6
ENDMDL