MODEL 4
REMARK VINA RESULT: -8.280383809      2.256      5.288
REMARK  3 active torsions:
REMARK  status: ('A' for Active; 'I' for Inactive)
REMARK    1  A    between atoms: C2_2  and  C3_3
REMARK    2  A    between atoms: C14_22  and  C15_23
REMARK    3  A    between atoms: C15_23  and  N5_24
REMARK       I    between atoms: N5_24  and  C16_26
ROOT
HETATM    1  C3  UNL     1      18.142 -13.358  17.762  1.00  0.00     0.015 A
HETATM    2  N1  UNL     1      17.054 -13.259  17.115  1.00  0.00    -0.327 N
HETATM    3  C4  UNL     1      15.983 -13.553  18.036  1.00  0.00     0.497 A
HETATM    4  N2  UNL     1      14.917 -12.588  18.023  1.00  0.00    -0.028 N
ATOM      5  H21 UNL     1      15.105 -11.824  18.672  1.00  0.00     0.281 HD
ATOM      6  H22 UNL     1      14.074 -12.965  18.456  1.00  0.00     0.281 HD
HETATM    7  C5  UNL     1      14.641 -12.089  16.695  1.00  0.00     0.239 C
HETATM    8  C6  UNL     1      15.273 -12.924  15.620  1.00  0.00     0.059 C
HETATM    9  C7  UNL     1      16.811 -12.934  15.757  1.00  0.00     0.037 C
HETATM   10  C8  UNL     1      17.254 -13.913  14.732  1.00  0.00     0.031 C
HETATM   11  C9  UNL     1      16.654 -13.542  13.367  1.00  0.00     0.002 C
HETATM   12  C10 UNL     1      16.972 -12.129  13.005  1.00  0.00     0.000 C
HETATM   13  C11 UNL     1      16.695 -11.107  14.051  1.00  0.00     0.002 C
HETATM   14  C12 UNL     1      17.327 -11.566  15.345  1.00  0.00     0.031 C
HETATM   15  N3  UNL     1      16.491 -13.904  19.272  1.00  0.00     0.038 N
HETATM   16  C13 UNL     1      16.275 -15.303  19.711  1.00  0.00     0.478 C
HETATM   17  N4  UNL     1      16.730 -14.772  21.012  1.00  0.00    -0.019 N
ATOM     18  H41 UNL     1      17.703 -14.801  21.315  1.00  0.00     0.281 HD
ATOM     19  H42 UNL     1      16.507 -15.217  21.903  1.00  0.00     0.281 HD
HETATM   20  C14 UNL     1      16.066 -13.532  20.538  1.00  0.00     0.413 C
HETATM   21  C17 UNL     1      17.922 -13.714  19.197  1.00  0.00     0.299 A
ENDROOT
BRANCH  20  22
HETATM   22  C15 UNL     1      14.694 -13.533  21.048  1.00  0.00     0.185 C
BRANCH  22  23
HETATM   23  N5  UNL     1      14.507 -12.296  21.822  1.00  0.00    -0.361 N
HETATM   24  C16 UNL     1      13.426 -11.432  21.621  1.00  0.00     0.181 C
HETATM   25  N6  UNL     1      13.097 -11.072  20.442  1.00  0.00    -0.374 N
HETATM   26  N7  UNL     1      12.693 -10.954  22.725  1.00  0.00    -0.064 NA
ATOM     27  H62 UNL     1      13.628 -11.418  19.642  1.00  0.00     0.158 HD
ATOM     28  H61 UNL     1      12.309 -10.441  20.295  1.00  0.00     0.158 HD
ATOM     29  H5  UNL     1      15.196 -12.059  22.536  1.00  0.00     0.162 HD
ENDBRANCH  22  23
ENDBRANCH  20  22
BRANCH   1  30
HETATM   30  C2  UNL     1      19.554 -13.166  17.322  1.00  0.00     0.050 C
HETATM   31  C1  UNL     1      20.517 -13.507  18.451  1.00  0.00     0.011 C
ENDBRANCH   1  30
TORSDOF 3
ENDMDL