MODEL 4
REMARK VINA RESULT: -6.400747555      9.489     13.077
REMARK  6 active torsions:
REMARK  status: ('A' for Active; 'I' for Inactive)
REMARK    1  A    between atoms: C2_2  and  N1_4
REMARK    2  A    between atoms: C4_6  and  O1_7
REMARK    3  A    between atoms: C4_6  and  N2_9
REMARK       I    between atoms: C5_11  and  N3_12
REMARK       I    between atoms: C5_11  and  N6_19
REMARK    4  A    between atoms: N3_12  and  N4_14
REMARK       I    between atoms: N6_19  and  C6_21
REMARK       I    between atoms: N8_23  and  C7_25
REMARK    5  A    between atoms: C7_25  and  C8_27
REMARK    6  A    between atoms: C8_27  and  N9_28
ROOT
HETATM    1  N2  UNL     1      16.873 -12.767  11.565  1.00  0.00    -0.154 N
ATOM      2  H2  UNL     1      17.354 -12.086  10.978  1.00  0.00     0.188 HD
HETATM    3  C5  UNL     1      15.597 -12.831  11.526  1.00  0.00     0.703 C
HETATM    4  N3  UNL     1      14.943 -11.910  10.633  1.00  0.00    -0.118 N
ATOM      5  H3  UNL     1      14.413 -11.120  11.001  1.00  0.00     0.207 HD
HETATM    6  N6  UNL     1      14.803 -13.721  12.284  1.00  0.00    -0.162 N
ATOM      7  H6  UNL     1      14.986 -13.859  13.277  1.00  0.00     0.187 HD
HETATM    8  C6  UNL     1      13.751 -14.418  11.644  1.00  0.00     0.209 C
HETATM    9  N7  UNL     1      14.028 -15.585  10.883  1.00  0.00    -0.063 NA
HETATM   10  N8  UNL     1      12.550 -13.986  11.758  1.00  0.00    -0.299 N
ATOM     11  H8  UNL     1      11.790 -14.487  11.298  1.00  0.00     0.171 HD
HETATM   12  C7  UNL     1      12.268 -12.835  12.506  1.00  0.00     0.252 C
HETATM   13  O2  UNL     1      12.965 -12.514  13.491  1.00  0.00    -0.271 OA
ENDROOT
BRANCH   1  14
HETATM   14  C4  UNL     1      17.629 -13.610  12.392  1.00  0.00     0.231 C
HETATM   15  N1  UNL     1      18.373 -14.497  11.803  1.00  0.00    -0.352 N
ATOM     16  H1  UNL     1      18.356 -14.520  10.784  1.00  0.00     0.163 HD
BRANCH  15  17
HETATM   17  C2  UNL     1      19.213 -15.443  12.464  1.00  0.00     0.076 C
HETATM   18  C1  UNL     1      18.478 -16.776  12.506  1.00  0.00     0.032 C
HETATM   19  C3  UNL     1      20.587 -15.590  11.886  1.00  0.00     0.032 C
ENDBRANCH  15  17
BRANCH  14  20
HETATM   20  O1  UNL     1      17.670 -13.597  13.772  1.00  0.00    -0.332 OA
ATOM     21  H1  UNL     1      17.973 -14.395  14.190  1.00  0.00     0.220 HD
ENDBRANCH  14  20
ENDBRANCH   1  14
BRANCH   4  22
HETATM   22  N4  UNL     1      15.047 -12.116   9.260  1.00  0.00    -0.235 N
HETATM   23  N5  UNL     1      14.256 -12.945   8.719  1.00  0.00    -0.330 N
ATOM     24  H52 UNL     1      13.568 -13.440   9.287  1.00  0.00     0.178 HD
ATOM     25  H51 UNL     1      14.332 -13.097   7.713  1.00  0.00     0.178 HD
ATOM     26  H4  UNL     1      15.741 -11.614   8.705  1.00  0.00     0.208 HD
ENDBRANCH   4  22
BRANCH  12  27
HETATM   27  C8  UNL     1      11.131 -11.968  12.139  1.00  0.00     0.374 C
BRANCH  27  28
HETATM   28  N9  UNL     1      10.574 -12.430  10.894  1.00  0.00     0.097 N
HETATM   29  C9  UNL     1       9.168 -12.585  10.994  1.00  0.00     0.273 C
HETATM   30  C10 UNL     1       8.507 -11.401  10.308  1.00  0.00     0.030 C
HETATM   31  C11 UNL     1       8.774 -11.517   8.828  1.00  0.00     0.003 C
HETATM   32  C12 UNL     1      10.231 -11.795   8.548  1.00  0.00     0.030 C
HETATM   33  C13 UNL     1      11.088 -11.706   9.791  1.00  0.00     0.273 C
ENDBRANCH  27  28
ENDBRANCH  12  27
TORSDOF 6
ENDMDL