MODEL 2
REMARK VINA RESULT: -6.166553101      1.633      2.094
REMARK  5 active torsions:
REMARK  status: ('A' for Active; 'I' for Inactive)
REMARK       I    between atoms: N1_2  and  C2_4
REMARK       I    between atoms: C2_4  and  N2_5
REMARK       I    between atoms: C2_4  and  N5_11
REMARK       I    between atoms: N2_5  and  C3_6
REMARK    1  A    between atoms: N5_11  and  C4_13
REMARK    2  A    between atoms: C5_14  and  N6_15
REMARK    3  A    between atoms: N7_24  and  C13_25
REMARK    4  A    between atoms: C13_25  and  C14_26
REMARK    5  A    between atoms: C14_26  and  O2_27
ROOT
HETATM    1  C4  UNL     1      17.524 -16.186  23.424  1.00  0.00     0.231 C
HETATM    2  C5  UNL     1      18.763 -16.566  24.113  1.00  0.00     0.323 C
HETATM    3  C12 UNL     1      18.867 -17.607  23.073  1.00  0.00     0.257 C
HETATM    4  O1  UNL     1      19.361 -18.765  22.924  1.00  0.00    -0.271 OA
HETATM    5  N7  UNL     1      18.118 -16.714  22.212  1.00  0.00    -0.324 N
ENDROOT
BRANCH   1   6
HETATM    6  N5  UNL     1      17.054 -14.866  23.461  1.00  0.00    -0.327 N
HETATM    7  C2  UNL     1      16.378 -14.209  22.375  1.00  0.00     0.255 C
HETATM    8  N1  UNL     1      17.231 -13.720  21.306  1.00  0.00    -0.355 N
HETATM    9  N2  UNL     1      15.203 -14.056  22.319  1.00  0.00    -0.339 NA
HETATM   10  C1  UNL     1      17.994 -12.500  21.413  1.00  0.00     0.150 C
ATOM     11  H1  UNL     1      17.293 -14.261  20.444  1.00  0.00     0.163 HD
HETATM   12  C3  UNL     1      13.895 -13.944  22.364  1.00  0.00     0.264 C
HETATM   13  N3  UNL     1      13.210 -12.824  22.162  1.00  0.00    -0.362 N
HETATM   14  N4  UNL     1      13.078 -15.112  22.653  1.00  0.00    -0.049 NA
ATOM     15  H32 UNL     1      13.783 -12.005  21.959  1.00  0.00     0.159 HD
ATOM     16  H31 UNL     1      12.194 -12.737  22.197  1.00  0.00     0.159 HD
ATOM     17  H5  UNL     1      17.202 -14.333  24.318  1.00  0.00     0.165 HD
ENDBRANCH   1   6
BRANCH   2  18
HETATM   18  N6  UNL     1      19.860 -15.743  24.344  1.00  0.00    -0.054 N
HETATM   19  C6  UNL     1      19.630 -15.019  25.610  1.00  0.00     0.273 C
HETATM   20  C7  UNL     1      20.336 -14.845  23.379  1.00  0.00     0.238 C
HETATM   21  C8  UNL     1      21.821 -14.997  23.026  1.00  0.00     0.028 C
HETATM   22  C9  UNL     1      22.666 -14.906  24.258  1.00  0.00     0.003 C
HETATM   23  C10 UNL     1      22.126 -15.885  25.277  1.00  0.00     0.028 C
HETATM   24  C11 UNL     1      20.989 -16.641  24.673  1.00  0.00     0.238 C
ENDBRANCH   2  18
BRANCH   5  25
HETATM   25  C13 UNL     1      18.134 -16.610  20.790  1.00  0.00     0.154 C
BRANCH  25  26
HETATM   26  C14 UNL     1      16.845 -17.154  20.202  1.00  0.00     0.184 C
BRANCH  26  27
HETATM   27  O2  UNL     1      15.969 -16.165  19.794  1.00  0.00    -0.399 OA
ATOM     28  H2  UNL     1      16.195 -15.787  18.951  1.00  0.00     0.209 HD
ENDBRANCH  26  27
ENDBRANCH  25  26
ENDBRANCH   5  25
TORSDOF 5
ENDMDL