MODEL 2
REMARK VINA RESULT: -6.514924657      2.624      8.291
REMARK  6 active torsions:
REMARK  status: ('A' for Active; 'I' for Inactive)
REMARK       I    between atoms: N2_6  and  C4_8
REMARK       I    between atoms: N5_13  and  C5_14
REMARK    1  A    between atoms: C5_14  and  C6_16
REMARK    2  A    between atoms: C6_16  and  C7_17
REMARK    3  A    between atoms: C8_22  and  C9_23
REMARK    4  A    between atoms: C10_24  and  C11_25
REMARK    5  A    between atoms: C12_26  and  C13_27
REMARK    6  A    between atoms: C13_27  and  N8_28
ROOT
HETATM    1  C1  UNL     1      20.900 -13.351  18.966  1.00  0.00     0.036 C
HETATM    2  C2  UNL     1      19.500 -13.857  18.897  1.00  0.00     0.131 C
HETATM    3  N1  UNL     1      18.775 -13.422  17.721  1.00  0.00    -0.218 N
ATOM      4  H1  UNL     1      19.156 -13.173  16.808  1.00  0.00     0.178 HD
HETATM    5  C3  UNL     1      17.388 -13.420  18.136  1.00  0.00     0.687 C
HETATM    6  N2  UNL     1      16.378 -13.253  17.356  1.00  0.00    -0.164 N
ATOM      7  H2  UNL     1      15.443 -13.271  17.762  1.00  0.00     0.187 HD
HETATM    8  C4  UNL     1      16.499 -13.048  15.975  1.00  0.00     0.200 C
HETATM    9  N3  UNL     1      16.153 -13.970  15.155  1.00  0.00    -0.373 N
ATOM     10  H31 UNL     1      16.241 -13.821  14.150  1.00  0.00     0.158 HD
ATOM     11  H32 UNL     1      15.788 -14.852  15.514  1.00  0.00     0.158 HD
HETATM   12  N4  UNL     1      17.007 -11.819  15.475  1.00  0.00    -0.063 NA
HETATM   13  N5  UNL     1      17.321 -13.628  19.549  1.00  0.00    -0.133 N
HETATM   14  C5  UNL     1      16.208 -14.090  20.258  1.00  0.00     0.246 C
HETATM   15  O1  UNL     1      16.354 -14.201  21.529  1.00  0.00    -0.272 OA
HETATM   16  C8  UNL     1      18.624 -13.257  20.011  1.00  0.00     0.214 C
ENDROOT
BRANCH  16  17
HETATM   17  C9  UNL     1      18.949 -13.802  21.290  1.00  0.00    -0.064 C
HETATM   18  C10 UNL     1      19.260 -14.272  22.382  1.00  0.00    -0.013 C
BRANCH  18  19
HETATM   19  C11 UNL     1      19.626 -14.791  23.647  1.00  0.00    -0.013 C
HETATM   20  C12 UNL     1      19.957 -15.226  24.727  1.00  0.00    -0.065 C
BRANCH  20  21
HETATM   21  C13 UNL     1      20.382 -15.760  26.023  1.00  0.00     0.330 C
BRANCH  21  22
HETATM   22  N8  UNL     1      21.528 -15.024  26.447  1.00  0.00    -0.069 N
HETATM   23  C14 UNL     1      22.477 -14.736  25.419  1.00  0.00     0.272 C
HETATM   24  C15 UNL     1      22.213 -15.838  27.458  1.00  0.00     0.272 C
HETATM   25  C16 UNL     1      21.109 -13.805  27.157  1.00  0.00     0.272 C
ENDBRANCH  21  22
ENDBRANCH  20  21
ENDBRANCH  18  19
ENDBRANCH  16  17
BRANCH  14  26
HETATM   26  C6  UNL     1      14.893 -14.467  19.754  1.00  0.00     0.176 C
BRANCH  26  27
HETATM   27  C7  UNL     1      13.906 -13.350  19.958  1.00  0.00     0.095 C
HETATM   28  N6  UNL     1      12.868 -13.511  20.704  1.00  0.00    -0.391 N
ATOM     29  H62 UNL     1      12.751 -14.423  21.145  1.00  0.00     0.157 HD
ATOM     30  H61 UNL     1      12.199 -12.754  20.842  1.00  0.00     0.157 HD
HETATM   31  N7  UNL     1      14.070 -12.079  19.343  1.00  0.00    -0.088 NA
ENDBRANCH  26  27
ENDBRANCH  14  26
TORSDOF 6
ENDMDL