MODEL 4
REMARK VINA RESULT: -7.169810462      2.218      3.938
REMARK  5 active torsions:
REMARK  status: ('A' for Active; 'I' for Inactive)
REMARK    1  A    between atoms: C4_6  and  N2_7
REMARK    2  A    between atoms: N2_7  and  C5_9
REMARK    3  A    between atoms: C6_10  and  C7_11
REMARK       I    between atoms: C7_11  and  N3_13
REMARK       I    between atoms: C8_15  and  N4_16
REMARK       I    between atoms: C8_15  and  N7_23
REMARK    4  A    between atoms: N4_16  and  N5_18
REMARK       I    between atoms: N7_23  and  C9_25
REMARK       I    between atoms: C9_25  and  N8_27
REMARK    5  A    between atoms: N8_27  and  C11_29
ROOT
HETATM    1  C7  UNL     1      15.680 -12.775  16.818  1.00  0.00     0.260 C
HETATM    2  O1  UNL     1      15.368 -11.643  17.172  1.00  0.00    -0.268 OA
HETATM    3  N3  UNL     1      15.977 -13.844  17.623  1.00  0.00    -0.154 N
ATOM      4  H3  UNL     1      16.580 -14.558  17.213  1.00  0.00     0.187 HD
HETATM    5  C8  UNL     1      15.582 -14.062  18.859  1.00  0.00     0.704 C
HETATM    6  N4  UNL     1      16.035 -15.245  19.468  1.00  0.00    -0.118 N
ATOM      7  H4  UNL     1      16.231 -15.206  20.469  1.00  0.00     0.207 HD
HETATM    8  N7  UNL     1      14.785 -13.128  19.486  1.00  0.00    -0.140 N
ATOM      9  H7  UNL     1      14.571 -12.292  18.942  1.00  0.00     0.189 HD
HETATM   10  C9  UNL     1      14.212 -13.176  20.817  1.00  0.00     0.336 C
HETATM   11  O2  UNL     1      14.438 -14.178  21.518  1.00  0.00    -0.246 OA
HETATM   12  N8  UNL     1      13.419 -12.086  21.271  1.00  0.00    -0.334 N
HETATM   13  C10 UNL     1      13.186 -10.967  20.395  1.00  0.00     0.154 C
ENDROOT
BRANCH   6  14
HETATM   14  N5  UNL     1      16.241 -16.470  18.827  1.00  0.00    -0.235 N
HETATM   15  N6  UNL     1      15.254 -17.169  18.506  1.00  0.00    -0.330 N
ATOM     16  H62 UNL     1      14.314 -16.833  18.718  1.00  0.00     0.178 HD
ATOM     17  H61 UNL     1      15.404 -18.062  18.038  1.00  0.00     0.178 HD
ATOM     18  H5  UNL     1      17.187 -16.791  18.623  1.00  0.00     0.208 HD
ENDBRANCH   6  14
BRANCH   1  19
HETATM   19  C6  UNL     1      15.711 -12.930  15.299  1.00  0.00     0.092 C
HETATM   20  C5  UNL     1      15.045 -12.082  14.665  1.00  0.00     0.111 C
BRANCH  20  21
HETATM   21  N2  UNL     1      14.903 -11.966  13.267  1.00  0.00    -0.202 N
ATOM     22  H2  UNL     1      15.693 -11.592  12.741  1.00  0.00     0.183 HD
BRANCH  21  23
HETATM   23  C4  UNL     1      13.863 -12.292  12.615  1.00  0.00     0.682 A
HETATM   24  N1  UNL     1      13.216 -13.456  12.476  1.00  0.00    -0.200 N
HETATM   25  C3  UNL     1      12.096 -13.332  11.779  1.00  0.00     0.131 A
ATOM     26  H1  UNL     1      13.549 -14.340  12.862  1.00  0.00     0.183 HD
HETATM   27  C2  UNL     1      11.982 -12.021  11.426  1.00  0.00     0.038 A
HETATM   28  C1  UNL     1      10.853 -11.405  10.642  1.00  0.00     0.070 C
HETATM   29  N9  UNL     1      13.051 -11.401  11.934  1.00  0.00    -0.194 N
ATOM     30  H9  UNL     1      13.244 -10.404  11.833  1.00  0.00     0.184 HD
ENDBRANCH  21  23
ENDBRANCH  20  21
ENDBRANCH   1  19
BRANCH  12  31
HETATM   31  C11 UNL     1      12.875 -12.082  22.576  1.00  0.00     0.080 C
HETATM   32  C12 UNL     1      12.692 -10.651  23.035  1.00  0.00     0.032 C
HETATM   33  C13 UNL     1      11.561 -12.845  22.655  1.00  0.00     0.032 C
ENDBRANCH  12  31
TORSDOF 5
ENDMDL