MODEL 3
REMARK VINA RESULT: -5.317473675      2.263      4.248
REMARK  3 active torsions:
REMARK  status: ('A' for Active; 'I' for Inactive)
REMARK    1  A    between atoms: C2_2  and  O1_3
REMARK    2  A    between atoms: C2_2  and  C3_5
REMARK    3  A    between atoms: C12_19  and  O3_20
ROOT
HETATM    1  C3  UNL     1      10.575 -19.011   3.460  1.00  0.00     0.068 C
HETATM    2  C4  UNL     1       9.294 -18.324   3.225  1.00  0.00     0.017 C
HETATM    3 CL1  UNL     1       8.865 -17.071   4.339  1.00  0.00    -0.089 Cl
HETATM    4  C5  UNL     1       8.447 -18.570   2.252  1.00  0.00     0.025 C
HETATM    5  C6  UNL     1       8.455 -19.542   1.128  1.00  0.00     0.155 C
HETATM    6  O2  UNL     1       9.384 -19.294   0.125  1.00  0.00    -0.347 OA
HETATM    7  C7  UNL     1      10.560 -18.989   0.694  1.00  0.00     0.359 A
HETATM    8  N1  UNL     1      11.868 -19.481   0.518  1.00  0.00    -0.033 N
ATOM      9  H11 UNL     1      12.794 -19.086   0.683  1.00  0.00     0.281 HD
ATOM     10  H12 UNL     1      12.436 -19.686  -0.304  1.00  0.00     0.281 HD
HETATM   11  C8  UNL     1      11.003 -20.241   1.294  1.00  0.00     0.186 A
HETATM   12  C9  UNL     1      10.584 -21.513   0.587  1.00  0.00     0.045 C
HETATM   13  C10 UNL     1       9.126 -21.769   0.529  1.00  0.00     0.012 C
HETATM   14  C11 UNL     1       8.506 -20.969   1.653  1.00  0.00     0.048 C
HETATM   15  C12 UNL     1       9.426 -21.113   2.843  1.00  0.00     0.132 C
HETATM   16  C13 UNL     1      10.704 -20.293   2.708  1.00  0.00     0.067 C
ENDROOT
BRANCH   1  17
HETATM   17  C2  UNL     1      10.894 -19.150   4.953  1.00  0.00     0.124 C
HETATM   18  C1  UNL     1      11.995 -20.153   5.117  1.00  0.00     0.040 C
BRANCH  17  19
HETATM   19  O1  UNL     1      11.400 -17.920   5.385  1.00  0.00    -0.395 OA
ATOM     20  H1  UNL     1      11.687 -18.041   6.283  1.00  0.00     0.210 HD
ENDBRANCH  17  19
ENDBRANCH   1  17
BRANCH  15  21
HETATM   21  O3  UNL     1       8.762 -20.959   4.023  1.00  0.00    -0.395 OA
ATOM     22  H3  UNL     1       8.731 -21.766   4.523  1.00  0.00     0.210 HD
ENDBRANCH  15  21
TORSDOF 3
ENDMDL