MODEL 1
REMARK VINA RESULT: -5.729484559      0.000      0.000
REMARK  3 active torsions:
REMARK  status: ('A' for Active; 'I' for Inactive)
REMARK    1  A    between atoms: O1_1  and  C1_3
REMARK    2  A    between atoms: C7_11  and  O3_12
REMARK    3  A    between atoms: C10_16  and  O4_17
ROOT
HETATM    1  C1  UNL     1      11.322 -18.567   5.217  1.00  0.00     0.188 C
HETATM    2  C2  UNL     1      10.765 -17.733   4.124  1.00  0.00     0.195 A
HETATM    3  O2  UNL     1       9.371 -17.596   4.259  1.00  0.00    -0.370 OA
HETATM    4  C3  UNL     1       9.209 -18.267   3.071  1.00  0.00     0.177 A
HETATM    5  C4  UNL     1       8.421 -19.507   3.120  1.00  0.00     0.090 C
HETATM    6 BR1  UNL     1       8.509 -20.273   1.315  1.00  0.00    -0.088 Br
HETATM    7  C5  UNL     1       8.721 -20.539   4.088  1.00  0.00     0.022 C
HETATM    8  C6  UNL     1       9.482 -20.191   5.316  1.00  0.00     0.046 C
HETATM    9  C7  UNL     1      10.960 -20.016   5.062  1.00  0.00     0.104 C
HETATM   10  C8  UNL     1      11.356 -20.548   3.718  1.00  0.00     0.012 C
HETATM   11  C9  UNL     1      11.188 -19.729   2.689  1.00  0.00     0.015 C
HETATM   12  C10 UNL     1      10.656 -18.386   2.799  1.00  0.00     0.131 A
ENDROOT
BRANCH   1  13
HETATM   13  O1  UNL     1      12.706 -18.416   5.274  1.00  0.00    -0.390 OA
ATOM     14  H1  UNL     1      13.132 -19.229   5.027  1.00  0.00     0.210 HD
ENDBRANCH   1  13
BRANCH   9  15
HETATM   15  O3  UNL     1      11.741 -20.728   5.993  1.00  0.00    -0.383 OA
ATOM     16  H3  UNL     1      11.416 -20.498   6.854  1.00  0.00     0.211 HD
ENDBRANCH   9  15
BRANCH  12  17
HETATM   17  O4  UNL     1      11.151 -17.522   1.794  1.00  0.00    -0.380 OA
ATOM     18  H4  UNL     1      11.409 -18.028   1.032  1.00  0.00     0.211 HD
ENDBRANCH  12  17
TORSDOF 3
ENDMDL