MODEL 4
REMARK VINA RESULT: -5.044170552      9.667     11.823
REMARK  3 active torsions:
REMARK  status: ('A' for Active; 'I' for Inactive)
REMARK    1  A    between atoms: C4_4  and  O1_6
REMARK    2  A    between atoms: C9_11  and  O2_12
REMARK    3  A    between atoms: C11_17  and  O3_18
ROOT
HETATM    1  C1  UNL     1      10.774 -18.745  -6.069  1.00  0.00     0.014 C
HETATM    2  C2  UNL     1      11.064 -19.965  -6.942  1.00  0.00     0.029 C
HETATM    3  C3  UNL     1      11.885 -19.491  -8.101  1.00  0.00     0.045 C
HETATM    4  C4  UNL     1      11.224 -20.010  -9.366  1.00  0.00     0.061 C
HETATM    5  C5  UNL     1      10.688 -18.917 -10.231  1.00  0.00     0.046 C
HETATM    6  C6  UNL     1      10.228 -21.001  -8.905  1.00  0.00     0.065 C
HETATM    7  C7  UNL     1       8.979 -21.093  -9.716  1.00  0.00     0.020 C
HETATM    8  C8  UNL     1       8.076 -22.104  -9.055  1.00  0.00     0.046 C
HETATM    9  C9  UNL     1       8.736 -23.462  -9.143  1.00  0.00     0.214 C
HETATM   10  N1  UNL     1       9.075 -23.796  -7.774  1.00  0.00    -0.196 NA
HETATM   11  C10 UNL     1       8.101 -23.226  -7.002  1.00  0.00     0.182 A
HETATM   12  N2  UNL     1       9.531 -22.849  -6.908  1.00  0.00    -0.187 NA
HETATM   13  C11 UNL     1       9.083 -21.513  -6.826  1.00  0.00     0.176 C
HETATM   14  C12 UNL     1       7.846 -21.874  -7.610  1.00  0.00     0.044 C
HETATM   15  C13 UNL     1       6.586 -21.190  -7.237  1.00  0.00     0.023 C
HETATM   16  C14 UNL     1       9.810 -20.449  -7.549  1.00  0.00     0.160 C
HETATM   17  F1  UNL     1       8.926 -19.385  -7.746  1.00  0.00    -0.237 F
ENDROOT
BRANCH   4  18
HETATM   18  O1  UNL     1      12.261 -20.636 -10.101  1.00  0.00    -0.390 OA
ATOM     19  H1  UNL     1      13.067 -20.255  -9.773  1.00  0.00     0.210 HD
ENDBRANCH   4  18
BRANCH  13  20
HETATM   20  O3  UNL     1       8.712 -21.207  -5.506  1.00  0.00    -0.370 OA
ATOM     21  H3  UNL     1       7.856 -20.793  -5.495  1.00  0.00     0.212 HD
ENDBRANCH  13  20
BRANCH   9  22
HETATM   22  O2  UNL     1       7.737 -24.365  -9.536  1.00  0.00    -0.379 OA
ATOM     23  H2  UNL     1       8.178 -25.178  -9.753  1.00  0.00     0.211 HD
ENDBRANCH   9  22
TORSDOF 3
ENDMDL