MODEL 3
REMARK VINA RESULT: -5.638398843      2.515      3.447
REMARK  2 active torsions:
REMARK  status: ('A' for Active; 'I' for Inactive)
REMARK    1  A    between atoms: C8_12  and  O2_13
REMARK    2  A    between atoms: C9_15  and  O3_16
ROOT
HETATM    1  C1  UNL     1      11.089 -20.652   2.166  1.00  0.00     0.020 C
HETATM    2  C2  UNL     1       9.817 -20.117   1.629  1.00  0.00     0.007 C
HETATM    3  C3  UNL     1       9.365 -20.709   0.347  1.00  0.00     0.160 C
HETATM    4  C4  UNL     1       9.823 -22.169   0.284  1.00  0.00     0.268 C
HETATM    5  N1  UNL     1       9.113 -22.670   1.462  1.00  0.00    -0.046 N
ATOM      6  H11 UNL     1       9.730 -22.893   2.243  1.00  0.00     0.280 HD
ATOM      7  H12 UNL     1       8.727 -23.606   1.337  1.00  0.00     0.280 HD
HETATM    8  C5  UNL     1       8.114 -21.672   1.784  1.00  0.00     0.326 C
HETATM    9  O1  UNL     1       7.988 -21.046   0.503  1.00  0.00    -0.351 OA
HETATM   10  C6  UNL     1       8.586 -20.473   2.484  1.00  0.00     0.056 C
HETATM   11  C7  UNL     1       8.960 -20.420   3.862  1.00  0.00     0.044 C
HETATM   12  C8  UNL     1       9.182 -18.937   4.173  1.00  0.00     0.148 C
HETATM   13  C9  UNL     1       9.770 -18.119   3.121  1.00  0.00     0.162 C
HETATM   14  C10 UNL     1       9.856 -18.637   1.725  1.00  0.00     0.100 C
HETATM   15 BR1  UNL     1      11.505 -17.939   0.947  1.00  0.00    -0.087 Br
ENDROOT
BRANCH  12  16
HETATM   16  O2  UNL     1       7.925 -18.432   4.586  1.00  0.00    -0.393 OA
ATOM     17  H2  UNL     1       8.096 -17.902   5.357  1.00  0.00     0.210 HD
ENDBRANCH  12  16
BRANCH  13  18
HETATM   18  O3  UNL     1      11.030 -17.649   3.580  1.00  0.00    -0.392 OA
ATOM     19  H3  UNL     1      11.467 -18.365   4.026  1.00  0.00     0.210 HD
ENDBRANCH  13  18
TORSDOF 2
ENDMDL