MODEL 2
REMARK VINA RESULT: -6.190102846      2.490      3.580
REMARK  3 active torsions:
REMARK  status: ('A' for Active; 'I' for Inactive)
REMARK    1  A    between atoms: C5_6  and  O1_7
REMARK    2  A    between atoms: C10_14  and  O2_15
REMARK    3  A    between atoms: C11_17  and  O3_18
ROOT
HETATM    1  C1  UNL     1      11.571 -15.859  -6.857  1.00  0.00     0.149 C
HETATM    2  N1  UNL     1      11.462 -17.278  -6.948  1.00  0.00    -0.392 N
HETATM    3  C2  UNL     1      10.682 -17.683  -8.025  1.00  0.00     0.063 C
HETATM    4  C3  UNL     1       9.731 -18.805  -7.861  1.00  0.00     0.031 C
HETATM    5  C4  UNL     1       9.712 -19.651  -9.134  1.00  0.00     0.042 C
HETATM    6  C5  UNL     1      10.482 -20.890  -8.837  1.00  0.00     0.119 C
HETATM    7  C6  UNL     1      10.233 -21.128  -7.367  1.00  0.00     0.037 C
HETATM    8  C7  UNL     1       9.995 -19.750  -6.755  1.00  0.00     0.004 C
HETATM    9  C8  UNL     1      11.165 -19.422  -5.903  1.00  0.00     0.034 C
HETATM   10  C9  UNL     1      11.005 -19.984  -4.487  1.00  0.00     0.120 C
HETATM   11 CL1  UNL     1      10.168 -21.514  -4.456  1.00  0.00    -0.122 Cl
HETATM   12  C10 UNL     1      12.436 -20.076  -3.954  1.00  0.00     0.165 C
HETATM   13  C11 UNL     1      12.916 -18.649  -3.813  1.00  0.00     0.150 C
HETATM   14  C12 UNL     1      12.846 -17.882  -5.108  1.00  0.00     0.060 C
HETATM   15  C13 UNL     1      11.456 -17.977  -5.741  1.00  0.00     0.091 C
ENDROOT
BRANCH   6  16
HETATM   16  O1  UNL     1      11.842 -20.776  -9.072  1.00  0.00    -0.396 OA
ATOM     17  H1  UNL     1      12.174 -21.385  -9.722  1.00  0.00     0.210 HD
ENDBRANCH   6  16
BRANCH  12  18
HETATM   18  O2  UNL     1      13.217 -20.818  -4.833  1.00  0.00    -0.391 OA
ATOM     19  H2  UNL     1      13.996 -21.127  -4.386  1.00  0.00     0.210 HD
ENDBRANCH  12  18
BRANCH  13  20
HETATM   20  O3  UNL     1      12.100 -18.020  -2.887  1.00  0.00    -0.393 OA
ATOM     21  H3  UNL     1      11.865 -18.662  -2.227  1.00  0.00     0.210 HD
ENDBRANCH  13  20
TORSDOF 3
ENDMDL