MODEL 4
REMARK VINA RESULT: -6.222612449      8.123     11.521
REMARK  1 active torsions:
REMARK  status: ('A' for Active; 'I' for Inactive)
REMARK       I    between atoms: N2_3  and  C2_5
REMARK       I    between atoms: C2_5  and  N4_9
REMARK       I    between atoms: N5_14  and  C7_15
REMARK    1  A    between atoms: C10_20  and  O2_21
ROOT
HETATM    1  N1  UNL     1      12.964 -17.201  -3.590  1.00  0.00    -0.171 NA
HETATM    2  C1  UNL     1      12.274 -18.032  -4.050  1.00  0.00     0.196 C
HETATM    3  N2  UNL     1      11.435 -19.019  -4.582  1.00  0.00    -0.124 N
ATOM      4  H2  UNL     1      10.751 -19.470  -3.975  1.00  0.00     0.197 HD
HETATM    5  C2  UNL     1      11.516 -19.405  -5.947  1.00  0.00     0.715 C
HETATM    6  N3  UNL     1      12.635 -19.338  -6.585  1.00  0.00    -0.053 N
ATOM      7  H3  UNL     1      12.669 -19.622  -7.564  1.00  0.00     0.218 HD
HETATM    8  F1  UNL     1      13.760 -18.902  -5.986  1.00  0.00    -0.086 F
HETATM    9  N4  UNL     1      10.376 -19.867  -6.621  1.00  0.00    -0.187 N
HETATM   10  C3  UNL     1       9.826 -21.171  -6.879  1.00  0.00     0.158 C
HETATM   11  C4  UNL     1       8.927 -20.611  -7.938  1.00  0.00     0.024 C
HETATM   12  C5  UNL     1       7.473 -20.937  -7.761  1.00  0.00     0.035 C
HETATM   13  C6  UNL     1       6.923 -21.578  -9.003  1.00  0.00     0.128 C
HETATM   14  N5  UNL     1       7.827 -22.645  -9.411  1.00  0.00    -0.336 N
HETATM   15  C7  UNL     1       7.360 -23.978  -9.536  1.00  0.00     0.330 C
HETATM   16  N6  UNL     1       6.006 -24.290  -9.265  1.00  0.00    -0.040 NA
HETATM   17  O1  UNL     1       8.150 -24.867  -9.885  1.00  0.00    -0.251 OA
HETATM   18  C8  UNL     1       9.207 -22.303  -9.682  1.00  0.00     0.128 C
HETATM   19  C9  UNL     1       9.377 -20.825  -9.361  1.00  0.00     0.035 C
HETATM   20  C10 UNL     1       9.274 -19.290  -7.336  1.00  0.00     0.248 C
ENDROOT
BRANCH  20  21
HETATM   21  O2  UNL     1       9.614 -18.303  -8.261  1.00  0.00    -0.375 OA
ATOM     22  H2  UNL     1       9.562 -18.565  -9.172  1.00  0.00     0.212 HD
ENDBRANCH  20  21
TORSDOF 1
ENDMDL