MODEL 3
REMARK VINA RESULT: -5.299103262      8.540     10.194
REMARK  2 active torsions:
REMARK  status: ('A' for Active; 'I' for Inactive)
REMARK    1  A    between atoms: N2_5  and  C4_6
REMARK    2  A    between atoms: C4_6  and  O1_7
ROOT
HETATM    1  C4  UNL     1       9.716 -19.786  -8.029  1.00  0.00     0.355 C
HETATM    2  N3  UNL     1       9.777 -21.121  -7.464  1.00  0.00    -0.322 N
ATOM      3  H3  UNL     1      10.341 -21.327  -6.639  1.00  0.00     0.165 HD
HETATM    4  C5  UNL     1       9.014 -22.128  -8.119  1.00  0.00     0.074 C
HETATM    5  N4  UNL     1       8.923 -23.327  -7.663  1.00  0.00    -0.389 N
ATOM      6  H41 UNL     1       8.376 -24.049  -8.133  1.00  0.00     0.157 HD
ATOM      7  H42 UNL     1       9.396 -23.614  -6.806  1.00  0.00     0.157 HD
HETATM    8  C6  UNL     1       8.318 -21.707  -9.380  1.00  0.00     0.077 C
HETATM    9  C7  UNL     1       9.243 -20.897 -10.232  1.00  0.00     0.030 C
HETATM   10  C8  UNL     1       9.974 -19.823  -9.530  1.00  0.00     0.147 C
HETATM   11 BR1  UNL     1      11.893 -20.162  -9.699  1.00  0.00    -0.084 Br
ENDROOT
BRANCH   1  12
HETATM   12  N2  UNL     1      10.794 -19.022  -7.475  1.00  0.00     0.175 N
HETATM   13  C3  UNL     1      11.057 -19.309  -6.084  1.00  0.00     0.311 C
HETATM   14  C2  UNL     1      12.039 -18.168  -5.776  1.00  0.00     0.304 C
HETATM   15  N1  UNL     1      11.350 -17.048  -6.385  1.00  0.00     0.114 N
HETATM   16  C1  UNL     1      12.268 -16.048  -6.896  1.00  0.00     0.312 C
HETATM   17  C9  UNL     1      10.518 -17.600  -7.441  1.00  0.00     0.548 C
ENDBRANCH   1  12
BRANCH   1  18
HETATM   18  O1  UNL     1       8.476 -19.208  -7.743  1.00  0.00    -0.346 OA
ATOM     19  H1  UNL     1       7.960 -19.756  -7.163  1.00  0.00     0.214 HD
ENDBRANCH   1  18
TORSDOF 2
ENDMDL