MODEL 5
REMARK VINA RESULT: -5.868692222      2.176      6.582
REMARK  1 active torsions:
REMARK  status: ('A' for Active; 'I' for Inactive)
REMARK    1  A    between atoms: C3_3  and  N1_4
ROOT
HETATM    1  C1  UNL     1      12.073 -15.930  -6.809  1.00  0.00     0.014 C
HETATM    2  C2  UNL     1      12.597 -16.576  -5.924  1.00  0.00    -0.098 C
HETATM    3  C3  UNL     1      13.233 -17.353  -4.883  1.00  0.00     0.216 C
ENDROOT
BRANCH   3   4
HETATM    4  N1  UNL     1      12.309 -17.623  -3.823  1.00  0.00    -0.360 N
HETATM    5  C4  UNL     1      11.643 -18.864  -3.840  1.00  0.00     0.061 C
HETATM    6  C5  UNL     1      12.168 -19.922  -4.740  1.00  0.00     0.046 C
HETATM    7  C6  UNL     1      12.123 -21.296  -4.048  1.00  0.00     0.032 C
HETATM    8  C7  UNL     1      10.760 -21.526  -3.432  1.00  0.00     0.232 C
HETATM    9  N2  UNL     1      10.948 -21.779  -2.030  1.00  0.00    -0.074 N
HETATM   10  C8  UNL     1      10.005 -22.738  -1.500  1.00  0.00     0.259 C
ATOM     11  H22 UNL     1      11.908 -22.067  -1.837  1.00  0.00     0.277 HD
ATOM     12  H21 UNL     1      10.924 -20.911  -1.496  1.00  0.00     0.277 HD
HETATM   13  C9  UNL     1       9.482 -22.253  -0.144  1.00  0.00     0.259 C
HETATM   14  N3  UNL     1      10.494 -22.310   0.867  1.00  0.00    -0.072 N
HETATM   15  C10 UNL     1      11.277 -21.110   0.992  1.00  0.00     0.258 C
ATOM     16  H32 UNL     1      10.084 -22.563   1.766  1.00  0.00     0.277 HD
ATOM     17  H31 UNL     1      11.100 -23.117   0.718  1.00  0.00     0.277 HD
HETATM   18  C11 UNL     1      10.448 -19.859   1.101  1.00  0.00     0.195 C
HETATM   19  O1  UNL     1      11.282 -18.821   1.564  1.00  0.00    -0.388 OA
HETATM   20  C12 UNL     1      11.143 -17.691   0.754  1.00  0.00     0.195 C
HETATM   21  C13 UNL     1      12.253 -17.574  -0.250  1.00  0.00     0.260 C
HETATM   22  N4  UNL     1      11.787 -17.070  -1.543  1.00  0.00    -0.057 N
HETATM   23  C14 UNL     1      12.818 -17.231  -2.527  1.00  0.00     0.357 C
ATOM     24  H42 UNL     1      10.910 -17.504  -1.831  1.00  0.00     0.279 HD
ATOM     25  H41 UNL     1      11.461 -16.105  -1.483  1.00  0.00     0.279 HD
ENDBRANCH   3   4
TORSDOF 1
ENDMDL