MODEL 3
REMARK VINA RESULT: -7.242179108      2.699      7.385
REMARK  9 active torsions:
REMARK  status: ('A' for Active; 'I' for Inactive)
REMARK    1  A    between atoms: O1_2  and  C2_3
REMARK    2  A    between atoms: C2_3  and  C3_5
REMARK    3  A    between atoms: C3_5  and  C4_6
REMARK    4  A    between atoms: C3_5  and  N1_10
REMARK    5  A    between atoms: C4_6  and  C5_7
REMARK    6  A    between atoms: C5_7  and  C6_8
REMARK       I    between atoms: N1_10  and  C7_12
REMARK       I    between atoms: C7_12  and  N2_14
REMARK    7  A    between atoms: C11_18  and  C13_20
REMARK       I    between atoms: C13_20  and  N3_22
REMARK    8  A    between atoms: C14_23  and  C15_24
REMARK       I    between atoms: C15_24  and  N4_26
REMARK    9  A    between atoms: C18_29  and  C19_30
ROOT
HETATM    1  C13 UNL     1      18.756 -15.970  22.551  1.00  0.00     0.250 C
HETATM    2  O4  UNL     1      18.689 -16.437  21.398  1.00  0.00    -0.270 OA
HETATM    3  N3  UNL     1      18.526 -16.816  23.651  1.00  0.00    -0.318 N
HETATM    4  C14 UNL     1      18.148 -18.154  23.878  1.00  0.00     0.195 C
HETATM    5  C21 UNL     1      19.429 -18.847  24.421  1.00  0.00     0.177 C
HETATM    6  S1  UNL     1      19.750 -17.624  25.712  1.00  0.00     0.168 S
HETATM    7  O8  UNL     1      19.174 -18.068  27.007  1.00  0.00    -0.226 OA
HETATM    8  O9  UNL     1      21.183 -17.258  25.769  1.00  0.00    -0.226 OA
HETATM    9  C22 UNL     1      18.738 -16.293  25.036  1.00  0.00     0.207 C
HETATM   10  C23 UNL     1      17.418 -16.177  25.704  1.00  0.00     0.049 C
ENDROOT
BRANCH   1  11
HETATM   11  C11 UNL     1      19.079 -14.533  22.666  1.00  0.00     0.116 C
HETATM   12  N2  UNL     1      18.032 -13.677  22.078  1.00  0.00    -0.312 N
HETATM   13  C7  UNL     1      16.641 -13.499  22.274  1.00  0.00     0.320 C
HETATM   14  C8  UNL     1      18.985 -13.047  21.200  1.00  0.00     0.089 C
HETATM   15  N1  UNL     1      15.867 -12.526  21.548  1.00  0.00    -0.329 N
HETATM   16  O3  UNL     1      16.006 -14.202  23.113  1.00  0.00    -0.247 OA
ATOM     17  H1  UNL     1      16.341 -11.938  20.863  1.00  0.00     0.165 HD
HETATM   18  C9  UNL     1      18.556 -13.114  19.736  1.00  0.00     0.032 C
HETATM   19  C10 UNL     1      20.003 -14.078  21.596  1.00  0.00     0.066 C
HETATM   20  C12 UNL     1      19.317 -14.031  24.067  1.00  0.00     0.049 C
BRANCH  15  21
HETATM   21  C3  UNL     1      14.479 -12.351  21.747  1.00  0.00     0.186 C
BRANCH  21  22
HETATM   22  C2  UNL     1      14.005 -10.936  21.827  1.00  0.00     0.281 C
HETATM   23  O2  UNL     1      14.089 -10.235  20.801  1.00  0.00    -0.263 OA
BRANCH  22  24
HETATM   24  O1  UNL     1      13.491 -10.392  22.980  1.00  0.00    -0.325 OA
HETATM   25  C1  UNL     1      12.196 -10.641  23.478  1.00  0.00     0.213 C
ENDBRANCH  22  24
ENDBRANCH  21  22
BRANCH  21  26
HETATM   26  C4  UNL     1      13.549 -13.156  20.914  1.00  0.00     0.037 C
BRANCH  26  27
HETATM   27  C5  UNL     1      12.565 -14.034  21.582  1.00  0.00     0.017 C
BRANCH  27  28
HETATM   28  C6  UNL     1      12.212 -15.280  20.853  1.00  0.00     0.115 C
HETATM   29 CL1  UNL     1      13.298 -15.460  19.420  1.00  0.00    -0.130 Cl
ENDBRANCH  27  28
ENDBRANCH  26  27
ENDBRANCH  21  26
ENDBRANCH  15  21
ENDBRANCH   1  11
BRANCH   4  30
HETATM   30  C15 UNL     1      17.452 -18.952  22.915  1.00  0.00     0.244 C
HETATM   31  O5  UNL     1      17.927 -19.756  22.090  1.00  0.00    -0.271 OA
HETATM   32  N4  UNL     1      16.012 -18.843  22.850  1.00  0.00    -0.344 N
HETATM   33  C16 UNL     1      15.029 -18.075  23.562  1.00  0.00     0.134 C
HETATM   34  C20 UNL     1      14.918 -19.409  22.081  1.00  0.00     0.108 A
HETATM   35  C17 UNL     1      14.060 -18.206  22.429  1.00  0.00     0.044 A
HETATM   36  C18 UNL     1      14.394 -18.479  21.041  1.00  0.00     0.117 A
BRANCH  36  37
HETATM   37  C19 UNL     1      13.310 -19.051  20.186  1.00  0.00     0.179 C
HETATM   38  O6  UNL     1      12.090 -18.840  20.455  1.00  0.00    -0.648 OA
HETATM   39  O7  UNL     1      13.593 -19.827  19.076  1.00  0.00    -0.648 OA
ENDBRANCH  36  37
ENDBRANCH   4  30
TORSDOF 9
ENDMDL