MODEL 2
REMARK VINA RESULT: -7.291885419      2.551      8.477
REMARK  9 active torsions:
REMARK  status: ('A' for Active; 'I' for Inactive)
REMARK       I    between atoms: C2_2  and  N1_4
REMARK       I    between atoms: N3_15  and  C10_16
REMARK    1  A    between atoms: C10_16  and  C11_18
REMARK    2  A    between atoms: C11_18  and  N4_19
REMARK    3  A    between atoms: C11_18  and  C19_34
REMARK       I    between atoms: N4_19  and  C12_21
REMARK    4  A    between atoms: C12_21  and  C13_23
REMARK    5  A    between atoms: C13_23  and  N5_24
REMARK    6  A    between atoms: C13_23  and  C16_31
REMARK       I    between atoms: N5_24  and  C14_26
REMARK    7  A    between atoms: C14_26  and  C15_28
REMARK    8  A    between atoms: C22_37  and  O8_38
REMARK    9  A    between atoms: O8_38  and  C23_39
ROOT
HETATM    1  C1  UNL     1      11.173 -16.527  19.651  1.00  0.00     0.117 C
HETATM    2  C2  UNL     1      12.327 -17.461  19.550  1.00  0.00     0.216 C
HETATM    3  O1  UNL     1      12.306 -18.312  18.627  1.00  0.00    -0.274 OA
HETATM    4  N1  UNL     1      13.422 -17.410  20.452  1.00  0.00    -0.342 N
HETATM    5  C3  UNL     1      14.444 -18.375  20.215  1.00  0.00     0.159 C
HETATM    6  C4  UNL     1      15.851 -17.960  20.240  1.00  0.00     0.070 C
HETATM    7  C5  UNL     1      16.505 -18.589  18.955  1.00  0.00     0.081 C
HETATM    8  C6  UNL     1      16.595 -20.049  19.251  1.00  0.00     0.264 C
HETATM    9  F1  UNL     1      15.675 -20.834  18.608  1.00  0.00    -0.239 F
HETATM   10  C7  UNL     1      16.482 -20.107  20.744  1.00  0.00     0.254 C
HETATM   11  O2  UNL     1      16.339 -21.165  21.431  1.00  0.00    -0.270 OA
HETATM   12  N2  UNL     1      16.567 -18.744  21.223  1.00  0.00    -0.341 N
HETATM   13  C8  UNL     1      17.249 -18.431  22.438  1.00  0.00     0.153 C
HETATM   14  C9  UNL     1      16.229 -16.538  20.138  1.00  0.00     0.161 C
HETATM   15  N3  UNL     1      15.646 -15.570  20.999  1.00  0.00    -0.319 N
HETATM   16  C10 UNL     1      16.542 -14.804  21.767  1.00  0.00     0.245 C
HETATM   17  O3  UNL     1      16.045 -14.080  22.709  1.00  0.00    -0.271 OA
HETATM   18  C22 UNL     1      14.271 -15.234  21.099  1.00  0.00     0.248 C
HETATM   19  C26 UNL     1      13.358 -16.401  21.470  1.00  0.00     0.132 C
HETATM   20  C27 UNL     1      13.683 -16.856  22.854  1.00  0.00     0.037 C
ENDROOT
BRANCH  16  21
HETATM   21  C11 UNL     1      18.025 -14.751  21.581  1.00  0.00     0.180 C
BRANCH  21  22
HETATM   22  N4  UNL     1      18.688 -14.832  22.896  1.00  0.00    -0.346 N
HETATM   23  C12 UNL     1      19.799 -15.634  23.132  1.00  0.00     0.241 C
HETATM   24  O4  UNL     1      20.267 -16.325  22.172  1.00  0.00    -0.271 OA
ATOM     25  H4  UNL     1      18.316 -14.276  23.665  1.00  0.00     0.163 HD
BRANCH  23  26
HETATM   26  C13 UNL     1      20.480 -15.742  24.416  1.00  0.00     0.180 C
BRANCH  26  27
HETATM   27  N5  UNL     1      21.863 -15.264  24.308  1.00  0.00    -0.338 N
HETATM   28  C14 UNL     1      22.954 -15.893  24.948  1.00  0.00     0.319 C
HETATM   29  O5  UNL     1      22.810 -16.909  25.656  1.00  0.00    -0.261 OA
ATOM     30  H5  UNL     1      22.046 -14.436  23.742  1.00  0.00     0.163 HD
BRANCH  28  31
HETATM   31  C15 UNL     1      24.314 -15.360  24.795  1.00  0.00     0.270 C
HETATM   32  O6  UNL     1      24.486 -14.105  24.747  1.00  0.00    -0.640 OA
HETATM   33  O7  UNL     1      25.425 -16.175  24.702  1.00  0.00    -0.640 OA
ENDBRANCH  28  31
ENDBRANCH  26  27
BRANCH  26  34
HETATM   34  C16 UNL     1      19.800 -15.189  25.620  1.00  0.00     0.009 C
HETATM   35  C17 UNL     1      19.285 -16.206  26.580  1.00  0.00     0.012 C
HETATM   36  C18 UNL     1      20.501 -14.086  26.336  1.00  0.00     0.012 C
ENDBRANCH  26  34
ENDBRANCH  23  26
ENDBRANCH  21  22
BRANCH  21  37
HETATM   37  C19 UNL     1      18.426 -13.426  20.933  1.00  0.00     0.009 C
HETATM   38  C20 UNL     1      17.489 -13.094  19.820  1.00  0.00     0.012 C
HETATM   39  C21 UNL     1      19.837 -13.495  20.385  1.00  0.00     0.012 C
ENDBRANCH  21  37
ENDBRANCH  16  21
BRANCH  18  40
HETATM   40  O8  UNL     1      13.906 -14.157  21.860  1.00  0.00    -0.360 OA
BRANCH  40  41
HETATM   41  C23 UNL     1      12.936 -13.375  21.241  1.00  0.00     0.116 C
HETATM   42  C24 UNL     1      11.963 -12.777  22.226  1.00  0.00     0.039 C
HETATM   43  C25 UNL     1      13.547 -12.282  20.451  1.00  0.00     0.039 C
ENDBRANCH  40  41
ENDBRANCH  18  40
TORSDOF 9
ENDMDL