MODEL 5
REMARK VINA RESULT: -7.634008222      1.442      1.786
REMARK  10 active torsions:
REMARK  status: ('A' for Active; 'I' for Inactive)
REMARK    1  A    between atoms: C2_2  and  O2_4
REMARK    2  A    between atoms: O2_4  and  C3_5
REMARK    3  A    between atoms: C3_5  and  C4_6
REMARK    4  A    between atoms: C4_6  and  N1_7
REMARK       I    between atoms: N1_7  and  C5_9
REMARK    5  A    between atoms: C5_9  and  C6_11
REMARK    6  A    between atoms: C8_13  and  N2_14
REMARK       I    between atoms: N2_14  and  C9_16
REMARK    7  A    between atoms: C9_16  and  C10_18
REMARK    8  A    between atoms: C10_18  and  C11_20
REMARK    9  A    between atoms: C15_24  and  C16_25
REMARK       I    between atoms: C16_25  and  N3_27
REMARK       I    between atoms: N4_31  and  C20_32
REMARK   10  A    between atoms: C22_36  and  C23_37
ROOT
HETATM    1  C6  UNL     1      13.590 -14.937  20.886  1.00  0.00     0.119 C
HETATM    2  C7  UNL     1      13.863 -15.823  22.082  1.00  0.00     0.049 C
HETATM    3  C8  UNL     1      15.019 -16.800  21.838  1.00  0.00     0.106 C
HETATM    4  C15 UNL     1      14.089 -17.891  22.201  1.00  0.00     0.124 C
HETATM    5  C19 UNL     1      12.915 -17.005  21.991  1.00  0.00     0.111 C
HETATM    6  N4  UNL     1      12.232 -16.857  20.762  1.00  0.00    -0.318 N
HETATM    7  C20 UNL     1      11.078 -17.542  20.325  1.00  0.00     0.325 C
HETATM    8  O6  UNL     1      10.495 -18.353  21.056  1.00  0.00    -0.256 OA
HETATM    9  C21 UNL     1      10.551 -17.314  19.021  1.00  0.00     0.162 C
HETATM   10  N5  UNL     1      10.112 -17.142  17.952  1.00  0.00    -0.186 NA
HETATM   11  C22 UNL     1      12.810 -15.783  19.933  1.00  0.00     0.203 C
ENDROOT
BRANCH  11  12
HETATM   12  C23 UNL     1      13.578 -16.254  18.791  1.00  0.00     0.197 C
HETATM   13  O7  UNL     1      14.251 -15.419  18.092  1.00  0.00    -0.646 OA
HETATM   14  O8  UNL     1      13.658 -17.563  18.367  1.00  0.00    -0.646 OA
ENDBRANCH  11  12
BRANCH   4  15
HETATM   15  C16 UNL     1      14.155 -19.199  21.563  1.00  0.00     0.227 C
HETATM   16  O5  UNL     1      14.977 -19.251  20.560  1.00  0.00    -0.273 OA
HETATM   17  N3  UNL     1      13.487 -20.401  21.840  1.00  0.00    -0.360 N
HETATM   18  C17 UNL     1      12.514 -20.670  22.860  1.00  0.00     0.152 C
HETATM   19  C18 UNL     1      13.817 -21.566  20.977  1.00  0.00     0.152 C
ENDBRANCH   4  15
BRANCH   1  20
HETATM   20  C5  UNL     1      12.788 -13.746  21.259  1.00  0.00     0.225 C
HETATM   21  N1  UNL     1      11.929 -13.712  22.384  1.00  0.00    -0.359 N
ATOM     22  H1  UNL     1      11.876 -14.558  22.952  1.00  0.00     0.162 HD
HETATM   23  O3  UNL     1      12.878 -12.724  20.539  1.00  0.00    -0.273 OA
BRANCH  21  24
HETATM   24  C4  UNL     1      11.130 -12.603  22.797  1.00  0.00     0.149 C
BRANCH  24  25
HETATM   25  C3  UNL     1      11.754 -11.825  23.908  1.00  0.00     0.198 C
BRANCH  25  26
HETATM   26  O2  UNL     1      11.397 -10.451  23.728  1.00  0.00    -0.320 OA
BRANCH  26  27
HETATM   27  C2  UNL     1      12.296  -9.438  24.077  1.00  0.00     0.254 C
HETATM   28  C1  UNL     1      11.898  -8.380  25.037  1.00  0.00     0.126 C
HETATM   29  O1  UNL     1      13.434  -9.475  23.542  1.00  0.00    -0.266 OA
ENDBRANCH  26  27
ENDBRANCH  25  26
ENDBRANCH  24  25
ENDBRANCH  21  24
ENDBRANCH   1  20
BRANCH   3  30
HETATM   30  N2  UNL     1      16.126 -16.546  22.756  1.00  0.00    -0.354 N
HETATM   31  C9  UNL     1      17.414 -17.125  22.617  1.00  0.00     0.233 C
HETATM   32  O4  UNL     1      17.563 -17.900  21.627  1.00  0.00    -0.272 OA
ATOM     33  H2  UNL     1      15.964 -15.916  23.542  1.00  0.00     0.162 HD
BRANCH  31  34
HETATM   34  C10 UNL     1      18.484 -16.826  23.578  1.00  0.00     0.157 C
HETATM   35 BR1  UNL     1      18.601 -14.879  23.743  1.00  0.00    -0.080 Br
BRANCH  34  36
HETATM   36  C11 UNL     1      18.242 -17.352  24.954  1.00  0.00    -0.030 C
HETATM   37  C12 UNL     1      17.452 -18.609  25.032  1.00  0.00     0.016 C
HETATM   38  C13 UNL     1      19.610 -17.635  25.579  1.00  0.00     0.016 C
HETATM   39  C14 UNL     1      17.591 -16.309  25.847  1.00  0.00     0.016 C
ENDBRANCH  34  36
ENDBRANCH  31  34
ENDBRANCH   3  30
TORSDOF 10
ENDMDL