MODEL 5
REMARK VINA RESULT: -7.746594380      2.736      4.330
REMARK  12 active torsions:
REMARK  status: ('A' for Active; 'I' for Inactive)
REMARK    1  A    between atoms: N1_2  and  C2_3
REMARK    2  A    between atoms: N1_2  and  S1_41
REMARK    3  A    between atoms: C2_3  and  C3_4
REMARK    4  A    between atoms: C3_4  and  N2_5
REMARK    5  A    between atoms: N2_5  and  C4_7
REMARK    6  A    between atoms: C6_9  and  C7_10
REMARK    7  A    between atoms: C8_11  and  C9_12
REMARK    8  A    between atoms: N5_23  and  C15_25
REMARK    9  A    between atoms: C15_25  and  C16_26
REMARK   10  A    between atoms: C16_26  and  C17_27
REMARK   11  A    between atoms: C17_27  and  N6_28
REMARK   12  A    between atoms: N6_28  and  C18_30
ROOT
HETATM    1  C4  UNL     1      12.797 -16.851  21.392  1.00  0.00     0.119 A
HETATM    2  C5  UNL     1      14.144 -16.792  21.678  1.00  0.00     0.088 A
HETATM    3  C6  UNL     1      14.763 -15.673  22.173  1.00  0.00     0.106 A
HETATM    4  N4  UNL     1      13.997 -14.571  22.386  1.00  0.00    -0.184 N
ATOM      5  H4  UNL     1      14.425 -13.721  22.753  1.00  0.00     0.185 HD
HETATM    6  C14 UNL     1      12.684 -14.592  22.118  1.00  0.00     0.680 A
HETATM    7  N5  UNL     1      11.975 -13.555  22.323  1.00  0.00    -0.226 N
ATOM      8  H5  UNL     1      10.977 -13.590  22.114  1.00  0.00     0.177 HD
HETATM    9  N9  UNL     1      12.099 -15.731  21.625  1.00  0.00    -0.177 N
ATOM     10  H9  UNL     1      11.099 -15.726  21.429  1.00  0.00     0.185 HD
ENDROOT
BRANCH   7  11
HETATM   11  C15 UNL     1      12.532 -12.340  22.835  1.00  0.00     0.139 C
BRANCH  11  12
HETATM   12  C16 UNL     1      12.021 -11.187  21.960  1.00  0.00     0.040 C
BRANCH  12  13
HETATM   13  C17 UNL     1      13.243 -10.591  21.271  1.00  0.00     0.123 C
BRANCH  13  14
HETATM   14  N6  UNL     1      14.434 -11.344  21.576  1.00  0.00    -0.375 N
ATOM     15  H6  UNL     1      14.745 -11.388  22.547  1.00  0.00     0.161 HD
BRANCH  14  16
HETATM   16  C18 UNL     1      15.132 -11.970  20.677  1.00  0.00     0.117 A
HETATM   17  C19 UNL     1      14.606 -12.455  19.522  1.00  0.00     0.136 A
HETATM   18  N7  UNL     1      15.398 -13.084  18.653  1.00  0.00    -0.369 N
HETATM   19  C20 UNL     1      16.708 -13.263  18.872  1.00  0.00     0.125 A
ATOM     20  H7  UNL     1      14.992 -13.444  17.790  1.00  0.00     0.164 HD
HETATM   21  C21 UNL     1      17.227 -12.757  20.064  1.00  0.00     0.096 A
HETATM   22 BR1  UNL     1      19.076 -12.959  20.469  1.00  0.00    -0.030 Br
HETATM   23  N8  UNL     1      16.446 -12.127  20.938  1.00  0.00    -0.335 N
ATOM     24  H8  UNL     1      16.841 -11.763  21.805  1.00  0.00     0.168 HD
ENDBRANCH  14  16
ENDBRANCH  13  14
ENDBRANCH  12  13
ENDBRANCH  11  12
ENDBRANCH   7  11
BRANCH   3  25
HETATM   25  C7  UNL     1      16.164 -15.616  22.469  1.00  0.00    -0.041 C
HETATM   26  C8  UNL     1      17.350 -15.565  22.740  1.00  0.00    -0.032 C
BRANCH  26  27
HETATM   27  C9  UNL     1      18.756 -15.488  23.063  1.00  0.00     0.155 A
HETATM   28  C10 UNL     1      19.797 -16.159  22.448  1.00  0.00     0.193 A
HETATM   29  O1  UNL     1      20.914 -15.810  23.042  1.00  0.00    -0.282 OA
HETATM   30  C11 UNL     1      20.625 -14.950  24.005  1.00  0.00     0.272 A
HETATM   31  N3  UNL     1      21.434 -14.369  24.819  1.00  0.00    -0.349 N
HETATM   32  O2  UNL     1      19.322 -14.768  24.002  1.00  0.00    -0.263 OA
HETATM   33  C12 UNL     1      22.845 -14.666  24.703  1.00  0.00     0.153 C
HETATM   34  C13 UNL     1      20.971 -13.450  25.819  1.00  0.00     0.153 C
ENDBRANCH  26  27
ENDBRANCH   3  25
BRANCH   1  35
HETATM   35  N2  UNL     1      12.303 -17.922  20.939  1.00  0.00    -0.375 N
ATOM     36  H2  UNL     1      11.465 -18.250  21.419  1.00  0.00     0.161 HD
BRANCH  35  37
HETATM   37  C3  UNL     1      12.738 -18.735  19.864  1.00  0.00     0.137 C
BRANCH  37  38
HETATM   38  C2  UNL     1      12.623 -18.083  18.509  1.00  0.00     0.126 C
BRANCH  38  39
HETATM   39  N1  UNL     1      13.876 -18.218  17.829  1.00  0.00    -0.214 NA
HETATM   40  C1  UNL     1      14.600 -19.415  18.134  1.00  0.00     0.129 C
BRANCH  39  41
HETATM   41  S1  UNL     1      14.812 -16.792  17.893  1.00  0.00     0.207 S
HETATM   42  C22 UNL     1      15.590 -16.405  16.366  1.00  0.00     0.180 C
HETATM   43  O3  UNL     1      15.914 -16.894  18.941  1.00  0.00    -0.212 OA
HETATM   44  O4  UNL     1      13.874 -15.657  18.261  1.00  0.00    -0.212 OA
ENDBRANCH  39  41
ENDBRANCH  38  39
ENDBRANCH  37  38
ENDBRANCH  35  37
ENDBRANCH   1  35
TORSDOF 12
ENDMDL