MODEL 1
REMARK VINA RESULT: -7.587008342      0.000      0.000
REMARK  8 active torsions:
REMARK  status: ('A' for Active; 'I' for Inactive)
REMARK    1  A    between atoms: C5_8  and  C6_9
REMARK       I    between atoms: C6_9  and  N2_11
REMARK    2  A    between atoms: N2_11  and  C7_13
REMARK    3  A    between atoms: C7_13  and  C8_14
REMARK    4  A    between atoms: C7_13  and  C10_18
REMARK    5  A    between atoms: C8_14  and  C9_15
REMARK    6  A    between atoms: C10_18  and  S1_19
REMARK       I    between atoms: N3_25  and  C14_27
REMARK    7  A    between atoms: C14_27  and  C15_29
REMARK    8  A    between atoms: C22_37  and  C23_38
ROOT
HETATM    1  C1  UNL     1      14.697 -12.120  19.904  1.00  0.00     0.315 C
HETATM    2  N1  UNL     1      15.801 -13.012  20.074  1.00  0.00     0.140 N
HETATM    3  C2  UNL     1      16.138 -13.050  21.469  1.00  0.00     0.409 C
HETATM    4  O1  UNL     1      15.034 -13.509  22.211  1.00  0.00    -0.338 OA
HETATM    5  C3  UNL     1      15.059 -14.888  21.978  1.00  0.00     0.221 C
HETATM    6  C4  UNL     1      14.759 -15.084  20.509  1.00  0.00     0.200 C
HETATM    7  O2  UNL     1      13.860 -15.802  20.183  1.00  0.00    -0.292 OA
HETATM    8  C5  UNL     1      15.647 -14.334  19.580  1.00  0.00     0.388 C
HETATM    9  C12 UNL     1      16.510 -15.228  22.300  1.00  0.00     0.169 C
HETATM   10 CL1  UNL     1      17.012 -16.720  21.525  1.00  0.00    -0.115 Cl
HETATM   11  C13 UNL     1      17.203 -14.012  21.834  1.00  0.00     0.070 C
HETATM   12  N3  UNL     1      18.448 -13.752  21.736  1.00  0.00    -0.328 N
ATOM     13  H3  UNL     1      18.690 -12.827  21.382  1.00  0.00     0.168 HD
HETATM   14  C14 UNL     1      19.530 -14.599  22.062  1.00  0.00     0.228 C
HETATM   15  O7  UNL     1      20.241 -14.988  21.109  1.00  0.00    -0.273 OA
ENDROOT
BRANCH  14  16
HETATM   16  C15 UNL     1      19.795 -14.993  23.420  1.00  0.00     0.112 C
HETATM   17  C16 UNL     1      21.079 -14.465  24.024  1.00  0.00     0.055 C
HETATM   18  C17 UNL     1      21.148 -15.239  25.353  1.00  0.00     0.123 C
HETATM   19  C18 UNL     1      20.611 -14.248  26.404  1.00  0.00     0.046 C
HETATM   20  C19 UNL     1      22.552 -15.540  25.753  1.00  0.00     0.046 C
HETATM   21  N4  UNL     1      20.279 -16.358  25.176  1.00  0.00    -0.061 N
HETATM   22  C20 UNL     1      19.082 -16.135  25.998  1.00  0.00     0.273 C
HETATM   23  C21 UNL     1      20.777 -17.626  25.650  1.00  0.00     0.273 C
HETATM   24  C22 UNL     1      19.826 -16.407  23.804  1.00  0.00     0.213 C
BRANCH  24  25
HETATM   25  C23 UNL     1      20.533 -17.393  22.959  1.00  0.00     0.120 C
HETATM   26  S2  UNL     1      19.580 -18.789  22.371  1.00  0.00    -0.096 SA
ENDBRANCH  24  25
ENDBRANCH  14  16
BRANCH   8  27
HETATM   27  C6  UNL     1      15.286 -14.465  18.172  1.00  0.00     0.259 C
HETATM   28  O3  UNL     1      14.202 -15.026  17.867  1.00  0.00    -0.271 OA
HETATM   29  N2  UNL     1      16.071 -14.007  17.084  1.00  0.00    -0.353 N
ATOM     30  H2  UNL     1      16.958 -13.546  17.288  1.00  0.00     0.163 HD
BRANCH  29  31
HETATM   31  C7  UNL     1      15.674 -14.161  15.692  1.00  0.00     0.106 C
BRANCH  31  32
HETATM   32  C8  UNL     1      15.338 -12.839  15.063  1.00  0.00     0.139 C
BRANCH  32  33
HETATM   33  C9  UNL     1      15.406 -11.669  15.954  1.00  0.00     0.174 C
HETATM   34  O4  UNL     1      14.354 -11.183  16.522  1.00  0.00    -0.648 OA
HETATM   35  O5  UNL     1      16.556 -10.959  16.296  1.00  0.00    -0.648 OA
ENDBRANCH  32  33
ENDBRANCH  31  32
BRANCH  31  36
HETATM   36  C10 UNL     1      16.696 -14.945  14.922  1.00  0.00     0.134 C
BRANCH  36  37
HETATM   37  S1  UNL     1      16.555 -16.645  14.810  1.00  0.00     0.012 S
HETATM   38  C11 UNL     1      17.889 -17.679  14.560  1.00  0.00     0.127 C
HETATM   39  O6  UNL     1      15.410 -17.270  15.833  1.00  0.00    -0.258 OA
ENDBRANCH  36  37
ENDBRANCH  31  36
ENDBRANCH  29  31
ENDBRANCH   8  27
TORSDOF 8
ENDMDL