MODEL 4
REMARK VINA RESULT: -8.778193210      1.121      1.274
REMARK  10 active torsions:
REMARK  status: ('A' for Active; 'I' for Inactive)
REMARK    1  A    between atoms: C2_2  and  N1_5
REMARK       I    between atoms: N1_5  and  C5_7
REMARK    2  A    between atoms: C5_7  and  C6_9
REMARK    3  A    between atoms: C6_9  and  C7_11
REMARK    4  A    between atoms: C7_11  and  C8_13
REMARK    5  A    between atoms: C9_15  and  C10_16
REMARK    6  A    between atoms: C14_20  and  C15_21
REMARK    7  A    between atoms: N2_22  and  N3_24
REMARK       I    between atoms: N3_24  and  C16_26
REMARK    8  A    between atoms: C16_26  and  C17_28
REMARK    9  A    between atoms: C17_28  and  C18_30
REMARK   10  A    between atoms: C18_30  and  C19_31
ROOT
HETATM    1  C10 UNL     1      19.369 -16.539  22.962  1.00  0.00     0.009 C
HETATM    2  C11 UNL     1      18.507 -16.158  22.070  1.00  0.00    -0.044 C
HETATM    3  C12 UNL     1      17.574 -17.128  21.486  1.00  0.00     0.006 C
HETATM    4  C13 UNL     1      16.385 -16.769  21.090  1.00  0.00    -0.001 C
HETATM    5  C14 UNL     1      15.736 -15.472  21.117  1.00  0.00     0.171 C
HETATM    6  S1  UNL     1      16.771 -14.147  21.636  1.00  0.00     0.160 S
HETATM    7  O6  UNL     1      16.645 -12.983  20.694  1.00  0.00    -0.227 OA
HETATM    8  O7  UNL     1      16.412 -13.659  23.008  1.00  0.00    -0.227 OA
HETATM    9  C22 UNL     1      18.432 -14.775  21.612  1.00  0.00     0.179 C
ENDROOT
BRANCH   5  10
HETATM   10  C15 UNL     1      15.161 -15.208  19.780  1.00  0.00     0.104 C
HETATM   11  N2  UNL     1      14.246 -14.362  19.590  1.00  0.00    -0.311 N
ATOM     12  H2  UNL     1      13.925 -14.262  18.627  1.00  0.00     0.185 HD
BRANCH  11  13
HETATM   13  N3  UNL     1      13.635 -13.567  20.509  1.00  0.00    -0.264 N
HETATM   14  C16 UNL     1      13.513 -12.162  20.415  1.00  0.00     0.306 C
HETATM   15  O4  UNL     1      14.011 -11.563  19.404  1.00  0.00    -0.263 OA
ATOM     16  H3  UNL     1      13.234 -14.020  21.330  1.00  0.00     0.190 HD
BRANCH  14  17
HETATM   17  C17 UNL     1      12.845 -11.358  21.412  1.00  0.00     0.223 C
HETATM   18  O5  UNL     1      12.383 -10.244  21.101  1.00  0.00    -0.287 OA
BRANCH  17  19
HETATM   19  C18 UNL     1      12.705 -11.844  22.796  1.00  0.00     0.147 C
BRANCH  19  20
HETATM   20  C19 UNL     1      12.210 -10.770  23.674  1.00  0.00     0.033 A
HETATM   21  C20 UNL     1      11.037 -10.772  24.374  1.00  0.00     0.114 A
HETATM   22  N4  UNL     1      10.995  -9.596  25.044  1.00  0.00    -0.360 N
HETATM   23  C21 UNL     1      12.120  -8.897  24.756  1.00  0.00     0.180 A
ATOM     24  H4  UNL     1      10.244  -9.288  25.662  1.00  0.00     0.166 HD
HETATM   25  N5  UNL     1      12.864  -9.606  23.924  1.00  0.00    -0.354 N
ATOM     26  H5  UNL     1      13.766  -9.329  23.539  1.00  0.00     0.166 HD
ENDBRANCH  19  20
ENDBRANCH  17  19
ENDBRANCH  14  17
ENDBRANCH  11  13
ENDBRANCH   5  10
BRANCH   1  27
HETATM   27  C9  UNL     1      20.319 -15.649  23.581  1.00  0.00     0.024 C
HETATM   28  C8  UNL     1      20.293 -15.522  24.922  1.00  0.00     0.065 C
HETATM   29 BR1  UNL     1      19.002 -16.523  25.882  1.00  0.00    -0.047 Br
BRANCH  28  30
HETATM   30  C7  UNL     1      21.221 -14.646  25.612  1.00  0.00     0.244 C
HETATM   31  O3  UNL     1      20.757 -13.850  26.482  1.00  0.00    -0.282 OA
BRANCH  30  32
HETATM   32  C6  UNL     1      22.647 -14.666  25.326  1.00  0.00     0.290 C
HETATM   33  O2  UNL     1      23.248 -13.588  25.137  1.00  0.00    -0.278 OA
BRANCH  32  34
HETATM   34  C5  UNL     1      23.338 -15.935  25.267  1.00  0.00     0.296 C
HETATM   35  N1  UNL     1      24.387 -16.121  24.344  1.00  0.00    -0.346 N
ATOM     36  H1  UNL     1      24.643 -15.351  23.727  1.00  0.00     0.163 HD
HETATM   37  O1  UNL     1      23.041 -16.901  26.017  1.00  0.00    -0.264 OA
BRANCH  35  38
HETATM   38  C2  UNL     1      25.113 -17.374  24.244  1.00  0.00     0.022 C
HETATM   39  C1  UNL     1      26.194 -17.236  23.196  1.00  0.00     0.037 C
HETATM   40  C3  UNL     1      25.788 -17.748  25.557  1.00  0.00     0.037 C
HETATM   41  C4  UNL     1      24.183 -18.492  23.852  1.00  0.00     0.037 C
ENDBRANCH  35  38
ENDBRANCH  32  34
ENDBRANCH  30  32
ENDBRANCH  28  30
ENDBRANCH   1  27
TORSDOF 10
ENDMDL