MODEL 5
REMARK VINA RESULT: -7.247511567      1.656      2.428
REMARK  11 active torsions:
REMARK  status: ('A' for Active; 'I' for Inactive)
REMARK    1  A    between atoms: C2_2  and  N1_3
REMARK    2  A    between atoms: C2_2  and  C3_7
REMARK       I    between atoms: C3_7  and  N2_9
REMARK    3  A    between atoms: C7_14  and  C8_15
REMARK       I    between atoms: C8_15  and  N3_17
REMARK    4  A    between atoms: N3_17  and  C9_19
REMARK    5  A    between atoms: C9_19  and  C10_20
REMARK    6  A    between atoms: C9_19  and  C16_28
REMARK    7  A    between atoms: C10_20  and  C11_21
REMARK       I    between atoms: C11_21  and  N4_23
REMARK    8  A    between atoms: N4_23  and  C13_25
REMARK       I    between atoms: C16_28  and  N5_30
REMARK    9  A    between atoms: N5_30  and  C17_32
REMARK       I    between atoms: N7_37  and  C21_38
REMARK   10  A    between atoms: C21_38  and  O6_40
REMARK   11  A    between atoms: O6_40  and  C22_41
ROOT
HETATM    1  C9  UNL     1      13.542 -17.809  20.464  1.00  0.00     0.185 C
ENDROOT
BRANCH   1   2
HETATM    2  N3  UNL     1      13.393 -16.325  20.373  1.00  0.00    -0.346 N
HETATM    3  C8  UNL     1      12.915 -15.590  21.527  1.00  0.00     0.241 C
HETATM    4  O2  UNL     1      12.646 -16.250  22.552  1.00  0.00    -0.271 OA
ATOM      5  H3  UNL     1      13.625 -15.835  19.509  1.00  0.00     0.163 HD
BRANCH   3   6
HETATM    6  C7  UNL     1      12.785 -14.172  21.414  1.00  0.00     0.182 C
HETATM    7  N2  UNL     1      13.840 -13.346  20.933  1.00  0.00    -0.334 N
HETATM    8  C3  UNL     1      15.192 -13.526  20.613  1.00  0.00     0.251 C
HETATM    9  C4  UNL     1      13.144 -12.024  20.837  1.00  0.00     0.164 C
HETATM   10  O1  UNL     1      15.756 -14.637  20.703  1.00  0.00    -0.271 OA
HETATM   11  C5  UNL     1      12.462 -11.964  22.170  1.00  0.00     0.190 C
HETATM   12  F1  UNL     1      13.031 -11.144  23.089  1.00  0.00    -0.248 F
HETATM   13  C6  UNL     1      12.426 -13.417  22.694  1.00  0.00     0.074 C
BRANCH   8  14
HETATM   14  C2  UNL     1      16.064 -12.406  20.139  1.00  0.00     0.271 C
HETATM   15  C1  UNL     1      17.513 -12.606  20.588  1.00  0.00     0.050 C
BRANCH  14  16
HETATM   16  N1  UNL     1      16.019 -12.364  18.675  1.00  0.00    -0.067 N
ATOM     17  H13 UNL     1      16.741 -11.761  18.281  1.00  0.00     0.275 HD
ATOM     18  H12 UNL     1      16.319 -13.243  18.252  1.00  0.00     0.275 HD
ATOM     19  H11 UNL     1      15.082 -12.091  18.379  1.00  0.00     0.275 HD
ENDBRANCH  14  16
ENDBRANCH   8  14
ENDBRANCH   3   6
ENDBRANCH   1   2
BRANCH   1  20
HETATM   20  C10 UNL     1      13.297 -18.332  19.061  1.00  0.00     0.138 C
BRANCH  20  21
HETATM   21  C11 UNL     1      14.148 -17.762  18.024  1.00  0.00     0.222 C
HETATM   22  O3  UNL     1      14.198 -16.527  17.839  1.00  0.00    -0.273 OA
HETATM   23  N4  UNL     1      14.961 -18.591  17.174  1.00  0.00    -0.352 N
HETATM   24  C12 UNL     1      14.905 -20.019  17.376  1.00  0.00     0.153 C
BRANCH  23  25
HETATM   25  C13 UNL     1      15.803 -18.048  16.158  1.00  0.00     0.078 C
HETATM   26  C14 UNL     1      17.154 -18.728  16.075  1.00  0.00     0.032 C
HETATM   27  C15 UNL     1      15.180 -18.053  14.772  1.00  0.00     0.032 C
ENDBRANCH  23  25
ENDBRANCH  20  21
ENDBRANCH   1  20
BRANCH   1  28
HETATM   28  C16 UNL     1      14.887 -18.125  20.951  1.00  0.00     0.241 C
HETATM   29  O4  UNL     1      15.442 -19.251  20.661  1.00  0.00    -0.271 OA
HETATM   30  N5  UNL     1      15.668 -17.254  21.750  1.00  0.00    -0.344 N
ATOM     31  H5  UNL     1      15.288 -16.340  21.996  1.00  0.00     0.163 HD
BRANCH  30  32
HETATM   32  C17 UNL     1      16.987 -17.615  22.229  1.00  0.00     0.207 C
HETATM   33  C18 UNL     1      18.109 -16.867  21.537  1.00  0.00     0.299 C
HETATM   34  N6  UNL     1      19.154 -16.770  22.573  1.00  0.00     0.020 N
HETATM   35  C19 UNL     1      19.855 -18.022  22.711  1.00  0.00     0.302 C
HETATM   36  C20 UNL     1      20.075 -15.744  22.161  1.00  0.00     0.302 C
HETATM   37  N7  UNL     1      18.403 -16.414  23.673  1.00  0.00    -0.079 N
HETATM   38  C21 UNL     1      18.694 -15.445  24.688  1.00  0.00     0.395 C
HETATM   39  C26 UNL     1      17.215 -17.222  23.637  1.00  0.00     0.278 C
HETATM   40  O5  UNL     1      17.864 -15.250  25.623  1.00  0.00    -0.236 OA
HETATM   41  O7  UNL     1      16.496 -17.536  24.646  1.00  0.00    -0.269 OA
BRANCH  38  42
HETATM   42  O6  UNL     1      19.849 -14.713  24.685  1.00  0.00    -0.292 OA
BRANCH  42  43
HETATM   43  C22 UNL     1      20.965 -14.921  25.507  1.00  0.00     0.061 C
HETATM   44  C23 UNL     1      21.183 -16.374  25.882  1.00  0.00     0.046 C
HETATM   45  C24 UNL     1      20.840 -14.126  26.795  1.00  0.00     0.046 C
HETATM   46  C25 UNL     1      22.259 -14.486  24.809  1.00  0.00     0.046 C
ENDBRANCH  42  43
ENDBRANCH  38  42
ENDBRANCH  30  32
ENDBRANCH   1  28
TORSDOF 11
ENDMDL