MODEL 3
REMARK VINA RESULT: -8.111001360      1.672      2.980
REMARK  11 active torsions:
REMARK  status: ('A' for Active; 'I' for Inactive)
REMARK    1  A    between atoms: C3_3  and  C4_4
REMARK    2  A    between atoms: C4_4  and  O1_5
REMARK    3  A    between atoms: C4_4  and  C5_7
REMARK    4  A    between atoms: C4_4  and  S2_34
REMARK    5  A    between atoms: C5_7  and  N1_8
REMARK    6  A    between atoms: N1_8  and  N2_9
REMARK    7  A    between atoms: N1_8  and  C14_29
REMARK    8  A    between atoms: C7_14  and  N4_15
REMARK    9  A    between atoms: N4_15  and  S1_16
REMARK   10  A    between atoms: S1_16  and  N5_19
REMARK   11  A    between atoms: S2_34  and  N7_37
ROOT
HETATM    1  C1  UNL     1      16.144 -17.479  20.207  1.00  0.00     0.112 C
HETATM    2  C2  UNL     1      17.113 -17.437  21.295  1.00  0.00    -0.107 C
HETATM    3  C3  UNL     1      17.938 -17.421  22.203  1.00  0.00    -0.049 C
ENDROOT
BRANCH   3   4
HETATM    4  C4  UNL     1      18.901 -17.412  23.305  1.00  0.00     0.262 C
BRANCH   4   5
HETATM    5  O1  UNL     1      18.103 -17.087  24.442  1.00  0.00    -0.362 OA
ATOM      6  H1  UNL     1      18.204 -17.843  25.008  1.00  0.00     0.213 HD
ENDBRANCH   4   5
BRANCH   4   7
HETATM    7  C5  UNL     1      19.895 -16.341  23.229  1.00  0.00     0.213 C
BRANCH   7   8
HETATM    8  N1  UNL     1      19.571 -15.015  23.680  1.00  0.00    -0.317 N
BRANCH   8   9
HETATM    9  N2  UNL     1      18.466 -14.434  23.182  1.00  0.00    -0.286 N
HETATM   10  C6  UNL     1      17.950 -13.869  22.227  1.00  0.00     0.146 A
HETATM   11  N3  UNL     1      16.656 -13.462  22.319  1.00  0.00    -0.299 N
HETATM   12  C13 UNL     1      18.606 -13.595  21.049  1.00  0.00     0.095 A
HETATM   13  C7  UNL     1      15.982 -12.812  21.337  1.00  0.00     0.274 A
ATOM     14  H3  UNL     1      16.157 -13.659  23.186  1.00  0.00     0.171 HD
HETATM   15  N6  UNL     1      16.684 -12.562  20.179  1.00  0.00    -0.324 N
HETATM   16  C12 UNL     1      17.955 -12.930  20.013  1.00  0.00     0.120 A
ATOM     17  H6  UNL     1      16.213 -12.075  19.416  1.00  0.00     0.169 HD
HETATM   18 CL1  UNL     1      20.268 -14.037  20.740  1.00  0.00    -0.079 Cl
ATOM     19  H2  UNL     1      17.754 -14.485  23.911  1.00  0.00     0.188 HD
BRANCH  13  20
HETATM   20  N4  UNL     1      14.835 -12.450  21.412  1.00  0.00    -0.273 NA
BRANCH  20  21
HETATM   21  S1  UNL     1      13.331 -11.969  21.514  1.00  0.00     0.371 S
HETATM   22  O2  UNL     1      12.949 -10.765  20.628  1.00  0.00    -0.174 OA
HETATM   23  O3  UNL     1      12.360 -13.069  21.036  1.00  0.00    -0.174 OA
BRANCH  21  24
HETATM   24  N5  UNL     1      12.787 -11.588  23.135  1.00  0.00    -0.182 NA
HETATM   25  C8  UNL     1      11.499 -12.132  23.426  1.00  0.00     0.110 C
HETATM   26  C9  UNL     1      11.075 -11.345  24.663  1.00  0.00     0.017 C
HETATM   27  C10 UNL     1      11.811 -10.048  24.564  1.00  0.00     0.017 C
HETATM   28  C11 UNL     1      12.621 -10.166  23.288  1.00  0.00     0.110 C
ENDBRANCH  21  24
ENDBRANCH  20  21
ENDBRANCH  13  20
ENDBRANCH   8   9
BRANCH   8  29
HETATM   29  C14 UNL     1      20.317 -14.277  24.652  1.00  0.00     0.102 C
HETATM   30  C15 UNL     1      21.796 -14.392  24.391  1.00  0.00     0.027 C
HETATM   31  C16 UNL     1      22.455 -14.254  25.756  1.00  0.00     0.002 C
HETATM   32  C17 UNL     1      21.343 -14.012  26.718  1.00  0.00     0.002 C
HETATM   33  C18 UNL     1      20.182 -14.791  26.066  1.00  0.00     0.027 C
ENDBRANCH   8  29
ENDBRANCH   7   8
ENDBRANCH   4   7
BRANCH   4  34
HETATM   34  S2  UNL     1      19.490 -19.041  23.668  1.00  0.00     0.275 S
HETATM   35  O4  UNL     1      18.317 -19.938  23.923  1.00  0.00    -0.202 OA
HETATM   36  O5  UNL     1      20.374 -19.093  24.864  1.00  0.00    -0.202 OA
BRANCH  34  37
HETATM   37  N7  UNL     1      20.399 -19.527  22.305  1.00  0.00    -0.303 N
HETATM   38  C19 UNL     1      19.872 -20.532  21.483  1.00  0.00     0.161 C
HETATM   39  C20 UNL     1      21.003 -20.944  20.522  1.00  0.00     0.188 C
HETATM   40  O6  UNL     1      21.708 -19.817  20.107  1.00  0.00    -0.388 OA
HETATM   41  C21 UNL     1      22.400 -19.170  21.101  1.00  0.00     0.188 C
HETATM   42  C22 UNL     1      21.803 -19.581  22.458  1.00  0.00     0.161 C
ENDBRANCH  34  37
ENDBRANCH   4  34
ENDBRANCH   3   4
TORSDOF 11
ENDMDL