MODEL 1
REMARK VINA RESULT: -8.081530811      0.000      0.000
REMARK  11 active torsions:
REMARK  status: ('A' for Active; 'I' for Inactive)
REMARK    1  A    between atoms: C2_2  and  N1_3
REMARK    2  A    between atoms: N1_3  and  C3_5
REMARK    3  A    between atoms: N3_9  and  C5_10
REMARK    4  A    between atoms: C5_10  and  C6_11
REMARK       I    between atoms: C6_11  and  N4_13
REMARK    5  A    between atoms: N4_13  and  C7_15
REMARK    6  A    between atoms: C7_15  and  C8_16
REMARK    7  A    between atoms: C7_15  and  C21_41
REMARK    8  A    between atoms: C8_16  and  C9_17
REMARK       I    between atoms: C9_17  and  N5_19
REMARK    9  A    between atoms: N5_19  and  C10_21
REMARK       I    between atoms: N8_31  and  C15_32
REMARK   10  A    between atoms: C15_32  and  C16_34
REMARK   11  A    between atoms: C16_34  and  O4_36
ROOT
HETATM    1  C9  UNL     1      14.033 -17.042  21.949  1.00  0.00     0.225 C
HETATM    2  O2  UNL     1      12.944 -16.599  22.367  1.00  0.00    -0.273 OA
HETATM    3  N5  UNL     1      15.174 -16.924  22.779  1.00  0.00    -0.312 N
ATOM      4  H5  UNL     1      15.785 -16.109  22.719  1.00  0.00     0.170 HD
ENDROOT
BRANCH   1   5
HETATM    5  C8  UNL     1      14.110 -17.670  20.617  1.00  0.00     0.129 C
BRANCH   5   6
HETATM    6  C7  UNL     1      14.879 -16.902  19.604  1.00  0.00     0.100 C
BRANCH   6   7
HETATM    7  N4  UNL     1      14.355 -15.599  19.299  1.00  0.00    -0.354 N
HETATM    8  C6  UNL     1      14.831 -14.396  19.853  1.00  0.00     0.236 C
HETATM    9  O1  UNL     1      15.781 -14.417  20.676  1.00  0.00    -0.272 OA
ATOM     10  H4  UNL     1      13.584 -15.542  18.633  1.00  0.00     0.162 HD
BRANCH   8  11
HETATM   11  C5  UNL     1      14.238 -13.092  19.490  1.00  0.00     0.233 C
BRANCH  11  12
HETATM   12  N3  UNL     1      13.758 -12.376  20.673  1.00  0.00    -0.329 N
HETATM   13  C4  UNL     1      14.316 -11.218  21.062  1.00  0.00     0.201 A
HETATM   14  N2  UNL     1      13.886 -10.530  22.162  1.00  0.00    -0.188 N
HETATM   15  C3  UNL     1      12.871 -11.038  22.872  1.00  0.00     0.681 A
ATOM     16  H2  UNL     1      14.328  -9.652  22.435  1.00  0.00     0.185 HD
HETATM   17  N9  UNL     1      12.290 -12.202  22.504  1.00  0.00    -0.184 N
HETATM   18  C25 UNL     1      12.735 -12.859  21.414  1.00  0.00     0.204 A
HETATM   19  C26 UNL     1      11.197 -12.692  23.318  1.00  0.00     0.176 C
BRANCH  15  20
HETATM   20  N1  UNL     1      12.433 -10.430  23.912  1.00  0.00    -0.226 N
ATOM     21  H1  UNL     1      11.834 -10.940  24.561  1.00  0.00     0.177 HD
BRANCH  20  22
HETATM   22  C2  UNL     1      12.749  -9.058  24.201  1.00  0.00     0.133 C
HETATM   23  C1  UNL     1      11.695  -8.396  25.048  1.00  0.00     0.027 C
ENDBRANCH  20  22
ENDBRANCH  15  20
ENDBRANCH  11  12
ENDBRANCH   8  11
ENDBRANCH   6   7
BRANCH   6  24
HETATM   24  C21 UNL     1      15.035 -17.652  18.296  1.00  0.00    -0.030 C
HETATM   25  C22 UNL     1      15.367 -16.771  17.133  1.00  0.00     0.016 C
HETATM   26  C23 UNL     1      13.724 -18.378  17.985  1.00  0.00     0.016 C
HETATM   27  C24 UNL     1      16.072 -18.733  18.515  1.00  0.00     0.016 C
ENDBRANCH   6  24
ENDBRANCH   5   6
ENDBRANCH   1   5
BRANCH   3  28
HETATM   28  C10 UNL     1      15.421 -17.882  23.620  1.00  0.00     0.128 A
HETATM   29  N6  UNL     1      14.588 -18.920  23.811  1.00  0.00    -0.318 N
HETATM   30  C11 UNL     1      14.852 -19.910  24.687  1.00  0.00     0.181 A
ATOM     31  H6  UNL     1      13.723 -18.959  23.272  1.00  0.00     0.170 HD
HETATM   32 CL1  UNL     1      13.742 -21.253  24.912  1.00  0.00    -0.045 Cl
HETATM   33  N7  UNL     1      16.004 -19.821  25.379  1.00  0.00    -0.332 N
HETATM   34  C12 UNL     1      16.870 -18.804  25.226  1.00  0.00     0.055 A
ATOM     35  H7  UNL     1      16.230 -20.558  26.048  1.00  0.00     0.168 HD
HETATM   36  C13 UNL     1      18.048 -18.713  25.933  1.00  0.00     0.048 A
HETATM   37  C20 UNL     1      16.606 -17.788  24.330  1.00  0.00     0.103 A
HETATM   38  C14 UNL     1      18.912 -17.629  25.730  1.00  0.00     0.106 A
HETATM   39  N8  UNL     1      18.653 -16.647  24.864  1.00  0.00    -0.256 N
HETATM   40  C15 UNL     1      19.482 -15.532  24.601  1.00  0.00     0.259 C
HETATM   41  C19 UNL     1      17.483 -16.740  24.162  1.00  0.00     0.270 A
HETATM   42  O3  UNL     1      19.130 -14.657  23.766  1.00  0.00    -0.270 OA
HETATM   43  O5  UNL     1      17.186 -15.836  23.326  1.00  0.00    -0.266 OA
BRANCH  40  44
HETATM   44  C16 UNL     1      20.786 -15.323  25.276  1.00  0.00     0.209 C
HETATM   45  C17 UNL     1      21.698 -14.435  24.441  1.00  0.00     0.050 C
BRANCH  44  46
HETATM   46  O4  UNL     1      20.617 -14.773  26.547  1.00  0.00    -0.382 OA
HETATM   47  C18 UNL     1      21.006 -13.441  26.498  1.00  0.00     0.202 C
ENDBRANCH  44  46
ENDBRANCH  40  44
ENDBRANCH   3  28
TORSDOF 11
ENDMDL