MODEL 3
REMARK VINA RESULT: -7.302421043      2.938      5.658
REMARK  12 active torsions:
REMARK  status: ('A' for Active; 'I' for Inactive)
REMARK    1  A    between atoms: C3_3  and  N1_4
REMARK    2  A    between atoms: C6_7  and  C7_8
REMARK    3  A    between atoms: C14_16  and  O2_17
REMARK    4  A    between atoms: O2_17  and  C15_18
REMARK    5  A    between atoms: C16_20  and  C17_21
REMARK    6  A    between atoms: C17_21  and  O4_22
REMARK    7  A    between atoms: C19_24  and  O5_25
REMARK    8  A    between atoms: C20_27  and  O6_28
REMARK    9  A    between atoms: C21_30  and  C22_31
REMARK   10  A    between atoms: N2_34  and  C23_35
REMARK   11  A    between atoms: C23_35  and  O9_36
REMARK   12  A    between atoms: C23_35  and  C24_38
ROOT
HETATM    1  C1  UNL     1      21.513 -17.300  25.593  1.00  0.00     0.013 C
HETATM    2  C2  UNL     1      20.529 -17.591  24.959  1.00  0.00    -0.089 C
HETATM    3  C3  UNL     1      19.323 -17.925  24.202  1.00  0.00     0.330 C
ENDROOT
BRANCH   3   4
HETATM    4  N1  UNL     1      18.796 -16.737  23.533  1.00  0.00    -0.055 N
HETATM    5  C4  UNL     1      18.582 -15.649  24.419  1.00  0.00     0.239 C
HETATM    6  C5  UNL     1      18.844 -14.272  23.784  1.00  0.00     0.039 C
HETATM    7  C6  UNL     1      18.377 -14.304  22.300  1.00  0.00    -0.014 C
HETATM    8  C9  UNL     1      19.462 -15.215  21.681  1.00  0.00     0.039 C
HETATM    9  C11 UNL     1      17.028 -14.844  22.248  1.00  0.00     0.131 C
HETATM   10  C10 UNL     1      19.670 -16.477  22.420  1.00  0.00     0.239 C
HETATM   11  C12 UNL     1      17.053 -16.317  21.870  1.00  0.00     0.175 C
HETATM   12  N2  UNL     1      16.057 -14.244  21.314  1.00  0.00    -0.316 N
HETATM   13  C13 UNL     1      17.465 -17.166  23.044  1.00  0.00     0.272 C
HETATM   14  O1  UNL     1      15.761 -16.673  21.519  1.00  0.00    -0.346 OA
HETATM   15  C14 UNL     1      15.669 -16.320  20.125  1.00  0.00     0.321 C
HETATM   16  C21 UNL     1      16.060 -14.885  20.028  1.00  0.00     0.146 C
BRANCH   7  17
HETATM   17  C7  UNL     1      18.571 -12.926  21.768  1.00  0.00     0.007 C
HETATM   18  C8  UNL     1      19.391 -12.853  20.503  1.00  0.00     0.006 C
ENDBRANCH   7  17
BRANCH  15  19
HETATM   19  O2  UNL     1      14.427 -16.708  19.750  1.00  0.00    -0.323 OA
BRANCH  19  20
HETATM   20  C15 UNL     1      13.755 -17.459  20.695  1.00  0.00     0.295 C
HETATM   21  O3  UNL     1      13.141 -18.598  20.272  1.00  0.00    -0.348 OA
HETATM   22  C16 UNL     1      12.205 -18.858  21.306  1.00  0.00     0.179 C
HETATM   23  C19 UNL     1      11.480 -17.531  21.295  1.00  0.00     0.182 C
HETATM   24  C20 UNL     1      12.657 -16.563  21.277  1.00  0.00     0.204 C
BRANCH  22  25
HETATM   25  C17 UNL     1      11.318 -20.009  20.964  1.00  0.00     0.201 C
BRANCH  25  26
HETATM   26  O4  UNL     1      11.253 -20.246  19.593  1.00  0.00    -0.393 OA
HETATM   27  C18 UNL     1      10.441 -21.363  19.409  1.00  0.00     0.201 C
ENDBRANCH  25  26
ENDBRANCH  22  25
BRANCH  23  28
HETATM   28  O5  UNL     1      10.837 -17.426  20.072  1.00  0.00    -0.390 OA
ATOM     29  H5  UNL     1      10.686 -16.501  19.912  1.00  0.00     0.210 HD
ENDBRANCH  23  28
BRANCH  24  30
HETATM   30  O6  UNL     1      12.951 -16.196  22.598  1.00  0.00    -0.388 OA
ATOM     31  H6  UNL     1      13.338 -15.329  22.634  1.00  0.00     0.210 HD
ENDBRANCH  24  30
ENDBRANCH  19  20
ENDBRANCH  15  19
BRANCH  16  32
HETATM   32  C22 UNL     1      15.527 -14.216  18.877  1.00  0.00     0.227 C
HETATM   33  O7  UNL     1      16.315 -13.592  18.071  1.00  0.00    -0.643 OA
HETATM   34  O8  UNL     1      14.201 -14.141  18.488  1.00  0.00    -0.643 OA
ENDBRANCH  16  32
BRANCH  12  35
HETATM   35  C23 UNL     1      15.217 -13.255  21.746  1.00  0.00     0.128 C
BRANCH  35  36
HETATM   36  O9  UNL     1      14.499 -13.603  22.806  1.00  0.00    -0.349 OA
ATOM     37  H9  UNL     1      14.108 -12.862  23.253  1.00  0.00     0.219 HD
ENDBRANCH  35  36
BRANCH  35  38
HETATM   38  C24 UNL     1      14.897 -11.900  21.336  1.00  0.00     0.169 C
HETATM   39 BR1  UNL     1      13.440 -11.061  22.280  1.00  0.00    -0.088 Br
ENDBRANCH  35  38
ENDBRANCH  12  35
ENDBRANCH   3   4
TORSDOF 12
ENDMDL