MODEL 5
REMARK VINA RESULT: -8.272054725      2.527      7.372
REMARK  8 active torsions:
REMARK  status: ('A' for Active; 'I' for Inactive)
REMARK    1  A    between atoms: C2_2  and  N1_3
REMARK    2  A    between atoms: N1_3  and  C3_5
REMARK    3  A    between atoms: C4_6  and  O1_7
REMARK    4  A    between atoms: C5_9  and  O2_10
REMARK    5  A    between atoms: C6_12  and  O3_13
REMARK    6  A    between atoms: C8_16  and  O4_17
REMARK    7  A    between atoms: C16_26  and  O5_27
REMARK    8  A    between atoms: C17_29  and  O6_30
ROOT
HETATM    1  C3  UNL     1      22.918  16.443 155.846  1.00  0.00     0.078 A
HETATM    2  C4  UNL     1      21.991  16.599 154.813  1.00  0.00     0.129 A
HETATM    3  C5  UNL     1      20.629  16.439 155.052  1.00  0.00     0.135 A
HETATM    4  C6  UNL     1      20.252  16.122 156.329  1.00  0.00     0.115 A
HETATM    5  C7  UNL     1      21.179  15.959 157.371  1.00  0.00     0.050 A
HETATM    6  C8  UNL     1      20.729  15.599 158.649  1.00  0.00     0.093 A
HETATM    7  C9  UNL     1      21.620  15.390 159.708  1.00  0.00     0.036 A
HETATM    8  C10 UNL     1      21.147  15.048 161.031  1.00  0.00    -0.064 C
HETATM    9  C11 UNL     1      22.186  14.500 161.964  1.00  0.00     0.035 C
HETATM   10  C12 UNL     1      21.648  13.859 163.228  1.00  0.00     0.004 C
HETATM   11  C13 UNL     1      20.546  12.856 162.939  1.00  0.00     0.001 C
HETATM   12  C14 UNL     1      19.458  13.752 162.429  1.00  0.00     0.004 C
HETATM   13  C15 UNL     1      19.797  14.405 161.110  1.00  0.00     0.035 C
HETATM   14  C16 UNL     1      22.948  15.557 159.426  1.00  0.00     0.113 A
HETATM   15  C17 UNL     1      23.432  15.917 158.164  1.00  0.00     0.113 A
HETATM   16  C18 UNL     1      22.520  16.120 157.124  1.00  0.00     0.045 A
ENDROOT
BRANCH   6  17
HETATM   17  O4  UNL     1      19.447  15.458 158.845  1.00  0.00    -0.359 OA
ATOM     18  H4  UNL     1      18.869  15.443 158.091  1.00  0.00     0.217 HD
ENDBRANCH   6  17
BRANCH  14  19
HETATM   19  O5  UNL     1      23.887  15.374 160.379  1.00  0.00    -0.357 OA
ATOM     20  H5  UNL     1      23.716  15.607 161.283  1.00  0.00     0.217 HD
ENDBRANCH  14  19
BRANCH  15  21
HETATM   21  O6  UNL     1      24.776  16.070 157.922  1.00  0.00    -0.357 OA
ATOM     22  H6  UNL     1      25.108  16.264 157.054  1.00  0.00     0.217 HD
ENDBRANCH  15  21
BRANCH   4  23
HETATM   23  O3  UNL     1      18.906  15.964 156.569  1.00  0.00    -0.357 OA
ATOM     24  H3  UNL     1      18.349  16.723 156.440  1.00  0.00     0.217 HD
ENDBRANCH   4  23
BRANCH   3  25
HETATM   25  O2  UNL     1      19.766  16.612 153.984  1.00  0.00    -0.356 OA
ATOM     26  H2  UNL     1      18.846  16.744 154.179  1.00  0.00     0.218 HD
ENDBRANCH   3  25
BRANCH   1  27
HETATM   27  N1  UNL     1      24.305  16.654 155.589  1.00  0.00    -0.387 N
ATOM     28  H1  UNL     1      24.971  15.882 155.634  1.00  0.00     0.159 HD
BRANCH  27  29
HETATM   29  C2  UNL     1      24.742  18.001 155.261  1.00  0.00     0.115 C
HETATM   30  C1  UNL     1      25.211  18.754 156.491  1.00  0.00     0.026 C
ENDBRANCH  27  29
ENDBRANCH   1  27
BRANCH   2  31
HETATM   31  O1  UNL     1      22.414  16.911 153.534  1.00  0.00    -0.356 OA
ATOM     32  H1  UNL     1      22.703  16.226 152.943  1.00  0.00     0.218 HD
ENDBRANCH   2  31
TORSDOF 8
ENDMDL