MODEL 4
REMARK VINA RESULT: -8.754277230      3.411      6.667
REMARK  10 active torsions:
REMARK  status: ('A' for Active; 'I' for Inactive)
REMARK    1  A    between atoms: C2_2  and  C4_4
REMARK    2  A    between atoms: C5_5  and  C6_6
REMARK    3  A    between atoms: C7_7  and  O1_8
REMARK    4  A    between atoms: C8_10  and  O2_11
REMARK    5  A    between atoms: C11_15  and  O3_16
REMARK    6  A    between atoms: C12_18  and  N1_19
REMARK    7  A    between atoms: N1_19  and  O4_21
REMARK    8  A    between atoms: C13_25  and  O5_26
REMARK    9  A    between atoms: C15_29  and  O6_30
REMARK   10  A    between atoms: C17_33  and  O7_34
ROOT
HETATM    1  C6  UNL     1      19.516  14.941 159.357  1.00  0.00     0.034 A
HETATM    2  C7  UNL     1      20.752  15.104 159.929  1.00  0.00     0.112 A
HETATM    3  C8  UNL     1      21.871  15.558 159.214  1.00  0.00     0.112 A
HETATM    4  C9  UNL     1      21.697  15.846 157.886  1.00  0.00     0.030 A
HETATM    5  C10 UNL     1      22.597  16.302 156.944  1.00  0.00     0.032 A
HETATM    6  C11 UNL     1      23.937  16.624 156.980  1.00  0.00     0.124 A
HETATM    7  C12 UNL     1      24.507  17.062 155.785  1.00  0.00     0.161 A
HETATM    8  N2  UNL     1      23.829  17.179 154.641  1.00  0.00    -0.319 N
ATOM      9  H2  UNL     1      24.323  17.507 153.811  1.00  0.00     0.169 HD
HETATM   10  C13 UNL     1      22.523  16.882 154.541  1.00  0.00     0.155 A
HETATM   11  C14 UNL     1      21.877  16.439 155.680  1.00  0.00     0.063 A
HETATM   12  C15 UNL     1      20.541  16.049 155.922  1.00  0.00     0.095 A
HETATM   13  C16 UNL     1      20.466  15.698 157.256  1.00  0.00     0.046 A
HETATM   14  C17 UNL     1      19.394  15.252 157.985  1.00  0.00     0.092 A
ENDROOT
BRANCH   1  15
HETATM   15  C5  UNL     1      18.340  14.478 160.052  1.00  0.00     0.013 C
HETATM   16  C4  UNL     1      17.825  13.295 160.152  1.00  0.00    -0.022 C
BRANCH  16  17
HETATM   17  C2  UNL     1      16.557  13.091 160.962  1.00  0.00    -0.000 C
HETATM   18  C1  UNL     1      16.629  13.882 162.252  1.00  0.00     0.013 C
HETATM   19  C3  UNL     1      16.418  11.635 161.342  1.00  0.00     0.013 C
ENDBRANCH  16  17
ENDBRANCH   1  15
BRANCH   2  20
HETATM   20  O1  UNL     1      20.865  14.800 161.266  1.00  0.00    -0.357 OA
ATOM     21  H1  UNL     1      20.570  13.939 161.538  1.00  0.00     0.217 HD
ENDBRANCH   2  20
BRANCH  14  22
HETATM   22  O7  UNL     1      18.178  15.092 157.421  1.00  0.00    -0.359 OA
ATOM     23  H7  UNL     1      18.152  14.866 156.499  1.00  0.00     0.217 HD
ENDBRANCH  14  22
BRANCH   3  24
HETATM   24  O2  UNL     1      23.036  15.672 159.912  1.00  0.00    -0.357 OA
ATOM     25  H2  UNL     1      23.725  16.187 159.508  1.00  0.00     0.217 HD
ENDBRANCH   3  24
BRANCH  12  26
HETATM   26  O6  UNL     1      19.647  16.081 154.906  1.00  0.00    -0.359 OA
ATOM     27  H6  UNL     1      19.870  16.539 154.104  1.00  0.00     0.217 HD
ENDBRANCH  12  26
BRANCH   6  28
HETATM   28  O3  UNL     1      24.708  16.532 158.117  1.00  0.00    -0.356 OA
ATOM     29  H3  UNL     1      25.211  15.759 158.346  1.00  0.00     0.218 HD
ENDBRANCH   6  28
BRANCH  10  30
HETATM   30  O5  UNL     1      21.827  17.007 153.346  1.00  0.00    -0.345 OA
ATOM     31  H5  UNL     1      20.878  16.993 153.311  1.00  0.00     0.219 HD
ENDBRANCH  10  30
BRANCH   7  32
HETATM   32  N1  UNL     1      25.909  17.409 155.783  1.00  0.00    -0.251 N
ATOM     33  H1  UNL     1      26.191  18.363 156.009  1.00  0.00     0.196 HD
BRANCH  32  34
HETATM   34  O4  UNL     1      26.779  16.561 155.509  1.00  0.00    -0.288 OA
ATOM     35  H4  UNL     1      27.535  16.436 156.070  1.00  0.00     0.244 HD
ENDBRANCH  32  34
ENDBRANCH   7  32
TORSDOF 10
ENDMDL