MODEL 4
REMARK VINA RESULT: -8.136570040      2.902      6.868
REMARK  6 active torsions:
REMARK  status: ('A' for Active; 'I' for Inactive)
REMARK    1  A    between atoms: C3_3  and  N1_4
REMARK    2  A    between atoms: C4_6  and  C5_7
REMARK    3  A    between atoms: C7_10  and  O1_11
REMARK    4  A    between atoms: C10_16  and  O2_17
REMARK    5  A    between atoms: C12_20  and  O3_21
REMARK    6  A    between atoms: C16_27  and  O4_28
ROOT
HETATM    1  C5  UNL     1      18.486  14.111 159.471  1.00  0.00     0.055 A
HETATM    2  S1  UNL     1      18.585  14.364 157.810  1.00  0.00    -0.082 SA
HETATM    3  C6  UNL     1      20.138  15.095 157.731  1.00  0.00     0.054 A
HETATM    4  C7  UNL     1      20.910  15.588 156.668  1.00  0.00     0.097 A
HETATM    5  C8  UNL     1      22.148  16.131 156.919  1.00  0.00     0.040 A
HETATM    6  C9  UNL     1      22.916  16.618 155.885  1.00  0.00     0.093 A
HETATM    7  N2  UNL     1      22.458  16.573 154.541  1.00  0.00    -0.098 NA
HETATM    8  C10 UNL     1      24.169  17.171 156.113  1.00  0.00     0.093 A
HETATM    9  C11 UNL     1      24.574  17.195 157.429  1.00  0.00     0.076 A
HETATM   10  C12 UNL     1      23.821  16.715 158.468  1.00  0.00     0.081 A
HETATM   11  C13 UNL     1      22.565  16.161 158.229  1.00  0.00     0.037 A
HETATM   12  C14 UNL     1      21.805  15.678 159.265  1.00  0.00     0.074 A
HETATM   13  N3  UNL     1      22.396  15.791 160.559  1.00  0.00    -0.100 NA
HETATM   14  C15 UNL     1      20.535  15.116 159.042  1.00  0.00     0.043 A
HETATM   15  C16 UNL     1      19.679  14.604 159.955  1.00  0.00     0.097 A
ENDROOT
BRANCH   1  16
HETATM   16  C4  UNL     1      17.363  13.498 160.198  1.00  0.00     0.109 C
HETATM   17  N1  UNL     1      16.922  14.001 161.275  1.00  0.00    -0.374 N
ATOM     18  H1  UNL     1      17.350  14.848 161.649  1.00  0.00     0.164 HD
BRANCH  17  19
HETATM   19  C3  UNL     1      15.836  13.399 161.966  1.00  0.00     0.083 C
HETATM   20  C2  UNL     1      14.610  13.420 161.485  1.00  0.00    -0.014 C
HETATM   21  C1  UNL     1      13.504  12.781 162.234  1.00  0.00     0.037 C
ENDBRANCH  17  19
ENDBRANCH   1  16
BRANCH  15  22
HETATM   22  O4  UNL     1      19.858  14.512 161.353  1.00  0.00    -0.358 OA
ATOM     23  H4  UNL     1      20.026  13.640 161.690  1.00  0.00     0.217 HD
ENDBRANCH  15  22
BRANCH   4  24
HETATM   24  O1  UNL     1      20.390  15.504 155.406  1.00  0.00    -0.358 OA
ATOM     25  H1  UNL     1      20.975  15.656 154.673  1.00  0.00     0.217 HD
ENDBRANCH   4  24
BRANCH  10  26
HETATM   26  O3  UNL     1      24.298  16.773 159.768  1.00  0.00    -0.360 OA
ATOM     27  H3  UNL     1      24.291  16.000 160.319  1.00  0.00     0.217 HD
ENDBRANCH  10  26
BRANCH   8  28
HETATM   28  O2  UNL     1      24.984  17.674 155.112  1.00  0.00    -0.359 OA
ATOM     29  H2  UNL     1      25.806  18.122 155.275  1.00  0.00     0.217 HD
ENDBRANCH   8  28
TORSDOF 6
ENDMDL