MODEL 1
REMARK VINA RESULT: -10.296653695      0.000      0.000
REMARK  8 active torsions:
REMARK  status: ('A' for Active; 'I' for Inactive)
REMARK    1  A    between atoms: C1_4  and  C2_5
REMARK    2  A    between atoms: C4_7  and  O1_8
REMARK    3  A    between atoms: C6_11  and  C7_12
REMARK    4  A    between atoms: C8_13  and  C9_14
REMARK    5  A    between atoms: C16_21  and  O2_22
REMARK    6  A    between atoms: C17_24  and  O3_25
REMARK    7  A    between atoms: C18_27  and  O4_28
REMARK    8  A    between atoms: C20_31  and  O5_32
ROOT
HETATM    1  C2  UNL     1      18.765  14.271 160.207  1.00  0.00     0.015 A
HETATM    2  C3  UNL     1      18.757  14.772 158.968  1.00  0.00     0.053 A
HETATM    3  C4  UNL     1      19.922  15.360 158.443  1.00  0.00     0.078 A
HETATM    4  C5  UNL     1      21.081  15.430 159.181  1.00  0.00     0.026 A
HETATM    5  C6  UNL     1      22.172  16.054 158.675  1.00  0.00     0.014 A
HETATM    6  C16 UNL     1      23.330  16.184 159.525  1.00  0.00     0.113 A
HETATM    7  C17 UNL     1      23.314  15.681 160.785  1.00  0.00     0.134 A
HETATM    8  C18 UNL     1      22.211  15.035 161.300  1.00  0.00     0.115 A
HETATM    9  C19 UNL     1      21.076  14.901 160.496  1.00  0.00     0.048 A
HETATM   10  C20 UNL     1      19.933  14.326 161.005  1.00  0.00     0.091 A
ENDROOT
BRANCH   5  11
HETATM   11  C7  UNL     1      22.428  16.351 157.297  1.00  0.00     0.015 C
HETATM   12  C8  UNL     1      22.457  15.640 156.210  1.00  0.00     0.001 C
BRANCH  12  13
HETATM   13  C9  UNL     1      22.752  16.259 154.905  1.00  0.00     0.003 C
HETATM   14  C10 UNL     1      21.826  16.768 154.126  1.00  0.00    -0.080 C
HETATM   15  C11 UNL     1      22.210  17.368 152.838  1.00  0.00     0.034 C
HETATM   16  C15 UNL     1      20.425  16.694 154.620  1.00  0.00     0.034 C
HETATM   17  C12 UNL     1      21.156  18.353 152.381  1.00  0.00     0.004 C
HETATM   18  C13 UNL     1      19.848  17.586 152.333  1.00  0.00     0.001 C
HETATM   19  C14 UNL     1      19.421  17.344 153.741  1.00  0.00     0.004 C
ENDBRANCH  12  13
ENDBRANCH   5  11
BRANCH   6  20
HETATM   20  O2  UNL     1      24.443  16.815 159.057  1.00  0.00    -0.357 OA
ATOM     21  H2  UNL     1      24.951  16.416 158.360  1.00  0.00     0.217 HD
ENDBRANCH   6  20
BRANCH   3  22
HETATM   22  O1  UNL     1      19.803  15.867 157.165  1.00  0.00    -0.360 OA
ATOM     23  H1  UNL     1      20.606  16.204 156.786  1.00  0.00     0.217 HD
ENDBRANCH   3  22
BRANCH   7  24
HETATM   24  O3  UNL     1      24.475  15.838 161.573  1.00  0.00    -0.356 OA
ATOM     25  H3  UNL     1      24.449  15.526 162.470  1.00  0.00     0.218 HD
ENDBRANCH   7  24
BRANCH   8  26
HETATM   26  O4  UNL     1      22.244  14.536 162.582  1.00  0.00    -0.357 OA
ATOM     27  H4  UNL     1      22.536  13.645 162.738  1.00  0.00     0.217 HD
ENDBRANCH   8  26
BRANCH  10  28
HETATM   28  O5  UNL     1      19.873  13.807 162.242  1.00  0.00    -0.359 OA
ATOM     29  H5  UNL     1      20.691  13.573 162.664  1.00  0.00     0.217 HD
ENDBRANCH  10  28
BRANCH   1  30
HETATM   30  C1  UNL     1      17.580  13.660 160.765  1.00  0.00     0.094 C
HETATM   31  N1  UNL     1      16.917  14.286 161.670  1.00  0.00    -0.407 N
ATOM     32  H12 UNL     1      17.237  15.204 161.981  1.00  0.00     0.155 HD
ATOM     33  H11 UNL     1      16.080  13.855 162.064  1.00  0.00     0.155 HD
ENDBRANCH   1  30
TORSDOF 8
ENDMDL