MODEL 1
REMARK VINA RESULT: -8.908833173      0.000      0.000
REMARK  9 active torsions:
REMARK  status: ('A' for Active; 'I' for Inactive)
REMARK    1  A    between atoms: O1_1  and  C1_3
REMARK    2  A    between atoms: C4_6  and  O2_7
REMARK    3  A    between atoms: C5_9  and  O3_10
REMARK    4  A    between atoms: C6_12  and  O4_13
REMARK    5  A    between atoms: C7_15  and  O5_16
REMARK    6  A    between atoms: C9_19  and  C10_20
REMARK    7  A    between atoms: C11_21  and  C12_22
REMARK    8  A    between atoms: C12_22  and  C13_23
REMARK    9  A    between atoms: C19_29  and  O6_30
ROOT
HETATM    1  C1  UNL     1      20.094  15.871 157.326  1.00  0.00     0.100 A
HETATM    2  C2  UNL     1      21.358  16.023 157.880  1.00  0.00     0.054 A
HETATM    3  C3  UNL     1      21.611  15.586 159.166  1.00  0.00     0.017 A
HETATM    4  C4  UNL     1      22.851  15.786 159.701  1.00  0.00     0.113 A
HETATM    5  C5  UNL     1      23.097  15.388 161.024  1.00  0.00     0.136 A
HETATM    6  C6  UNL     1      22.129  14.813 161.773  1.00  0.00     0.136 A
HETATM    7  C7  UNL     1      20.866  14.616 161.204  1.00  0.00     0.114 A
HETATM    8  C8  UNL     1      20.575  14.984 159.910  1.00  0.00     0.026 A
HETATM    9  C9  UNL     1      19.342  14.832 159.363  1.00  0.00     0.014 A
HETATM   10  C19 UNL     1      19.100  15.284 158.057  1.00  0.00     0.110 A
ENDROOT
BRANCH   9  11
HETATM   11  C10 UNL     1      18.294  14.076 160.010  1.00  0.00     0.011 C
HETATM   12  C11 UNL     1      17.948  12.838 159.756  1.00  0.00    -0.025 C
BRANCH  12  13
HETATM   13  C12 UNL     1      18.595  12.007 158.732  1.00  0.00     0.031 C
BRANCH  13  14
HETATM   14  C13 UNL     1      18.627  10.586 159.168  1.00  0.00    -0.011 C
HETATM   15  C14 UNL     1      17.325  10.160 159.727  1.00  0.00     0.005 C
HETATM   16  C15 UNL     1      17.260   8.754 160.201  1.00  0.00     0.000 C
HETATM   17  C16 UNL     1      18.011   7.764 159.393  1.00  0.00     0.000 C
HETATM   18  C17 UNL     1      19.211   8.288 158.687  1.00  0.00     0.000 C
HETATM   19  C18 UNL     1      18.976   9.635 158.036  1.00  0.00     0.005 C
ENDBRANCH  13  14
ENDBRANCH  12  13
ENDBRANCH   9  11
BRANCH  10  20
HETATM   20  O6  UNL     1      17.826  15.120 157.541  1.00  0.00    -0.357 OA
ATOM     21  H6  UNL     1      17.055  15.389 158.028  1.00  0.00     0.217 HD
ENDBRANCH  10  20
BRANCH   7  22
HETATM   22  O5  UNL     1      19.920  14.046 162.003  1.00  0.00    -0.357 OA
ATOM     23  H5  UNL     1      19.078  13.866 161.602  1.00  0.00     0.217 HD
ENDBRANCH   7  22
BRANCH   1  24
HETATM   24  O1  UNL     1      19.899  16.323 156.052  1.00  0.00    -0.358 OA
ATOM     25  H1  UNL     1      19.625  17.226 155.940  1.00  0.00     0.217 HD
ENDBRANCH   1  24
BRANCH   4  26
HETATM   26  O2  UNL     1      23.855  16.366 158.974  1.00  0.00    -0.357 OA
ATOM     27  H2  UNL     1      24.764  16.287 159.237  1.00  0.00     0.217 HD
ENDBRANCH   4  26
BRANCH   6  28
HETATM   28  O4  UNL     1      22.367  14.415 163.095  1.00  0.00    -0.356 OA
ATOM     29  H4  UNL     1      22.162  13.536 163.394  1.00  0.00     0.218 HD
ENDBRANCH   6  28
BRANCH   5  30
HETATM   30  O3  UNL     1      24.377  15.616 161.511  1.00  0.00    -0.356 OA
ATOM     31  H3  UNL     1      24.636  15.112 162.274  1.00  0.00     0.218 HD
ENDBRANCH   5  30
TORSDOF 9
ENDMDL