MODEL 2
REMARK VINA RESULT: -6.360066887      1.656      2.361
REMARK  5 active torsions:
REMARK  status: ('A' for Active; 'I' for Inactive)
REMARK    1  A    between atoms: O1_1  and  C1_3
REMARK    2  A    between atoms: C4_6  and  C5_7
REMARK    3  A    between atoms: C5_7  and  C6_9
REMARK    4  A    between atoms: C7_10  and  O2_11
REMARK    5  A    between atoms: C11_22  and  S4_23
ROOT
HETATM    1  C6  UNL     1      18.577  13.792 158.978  1.00  0.00     0.050 A
HETATM    2  C7  UNL     1      18.809  12.723 158.142  1.00  0.00     0.153 A
HETATM    3  N1  UNL     1      18.483  11.464 158.509  1.00  0.00    -0.313 N
ATOM      4  H1  UNL     1      18.671  10.696 157.864  1.00  0.00     0.170 HD
HETATM    5  C8  UNL     1      17.918  11.193 159.695  1.00  0.00     0.178 A
HETATM    6  S2  UNL     1      17.527   9.648 160.124  1.00  0.00    -0.040 SA
HETATM    7  N2  UNL     1      17.677  12.214 160.534  1.00  0.00    -0.323 N
ATOM      8  H2  UNL     1      17.248  12.026 161.441  1.00  0.00     0.169 HD
HETATM    9  C9  UNL     1      17.989  13.478 160.204  1.00  0.00     0.115 A
HETATM   10  S3  UNL     1      17.657  14.647 161.278  1.00  0.00    -0.060 SA
ENDROOT
BRANCH   1  11
HETATM   11  C5  UNL     1      18.917  15.186 158.619  1.00  0.00     0.132 C
HETATM   12  S1  UNL     1      18.302  15.521 156.920  1.00  0.00    -0.082 SA
BRANCH  11  13
HETATM   13  C4  UNL     1      20.357  15.500 158.707  1.00  0.00    -0.037 A
HETATM   14  C3  UNL     1      21.039  16.053 157.630  1.00  0.00     0.011 A
HETATM   15  C2  UNL     1      22.365  16.344 157.685  1.00  0.00     0.038 A
HETATM   16  C1  UNL     1      23.145  16.105 158.841  1.00  0.00     0.083 A
HETATM   17  C11 UNL     1      22.490  15.560 159.916  1.00  0.00     0.046 A
HETATM   18  C10 UNL     1      21.103  15.269 159.820  1.00  0.00     0.031 A
BRANCH  16  19
HETATM   19  O1  UNL     1      24.474  16.440 158.779  1.00  0.00    -0.359 OA
ATOM     20  H1  UNL     1      24.804  17.030 159.447  1.00  0.00     0.217 HD
ENDBRANCH  16  19
BRANCH  17  21
HETATM   21  S4  UNL     1      23.226  15.167 161.467  1.00  0.00    -0.043 SA
HETATM   22  S5  UNL     1      21.975  14.368 162.912  1.00  0.00    -0.007 SA
ENDBRANCH  17  21
ENDBRANCH  11  13
ENDBRANCH   1  11
BRANCH   2  23
HETATM   23  O2  UNL     1      19.391  12.904 156.890  1.00  0.00    -0.346 OA
ATOM     24  H2  UNL     1      18.858  12.962 156.106  1.00  0.00     0.219 HD
ENDBRANCH   2  23
TORSDOF 5
ENDMDL