MODEL 4
REMARK VINA RESULT: -8.607204687      2.962      7.725
REMARK  8 active torsions:
REMARK  status: ('A' for Active; 'I' for Inactive)
REMARK    1  A    between atoms: C3_3  and  O1_4
REMARK    2  A    between atoms: C5_7  and  O2_8
REMARK    3  A    between atoms: C7_11  and  O3_12
REMARK    4  A    between atoms: C9_15  and  O4_16
REMARK    5  A    between atoms: C10_18  and  C11_19
REMARK    6  A    between atoms: C12_20  and  C13_21
REMARK    7  A    between atoms: C15_26  and  N2_27
REMARK    8  A    between atoms: C17_33  and  O5_34
ROOT
HETATM    1  C1  UNL     1      20.111  16.383 154.469  1.00  0.00     0.052 C
HETATM    2  C2  UNL     1      21.494  16.609 154.936  1.00  0.00    -0.015 A
HETATM    3  C3  UNL     1      22.488  17.085 154.085  1.00  0.00     0.075 A
HETATM    4  C4  UNL     1      23.790  17.283 154.575  1.00  0.00     0.074 A
HETATM    5  C5  UNL     1      24.112  17.023 155.870  1.00  0.00     0.082 A
HETATM    6  C6  UNL     1      23.152  16.551 156.742  1.00  0.00     0.045 A
HETATM    7  C7  UNL     1      23.498  16.288 158.070  1.00  0.00     0.093 A
HETATM    8  C8  UNL     1      22.506  15.809 158.935  1.00  0.00     0.047 A
HETATM    9  C9  UNL     1      22.875  15.549 160.271  1.00  0.00     0.090 A
HETATM   10  C10 UNL     1      21.865  15.070 161.124  1.00  0.00     0.000 A
HETATM   11  C14 UNL     1      20.570  14.872 160.632  1.00  0.00     0.046 A
HETATM   12  C15 UNL     1      20.240  15.129 159.344  1.00  0.00     0.062 A
HETATM   13  C16 UNL     1      21.220  15.600 158.494  1.00  0.00     0.042 A
HETATM   14  C17 UNL     1      20.921  15.879 157.156  1.00  0.00     0.091 A
HETATM   15  C18 UNL     1      21.889  16.360 156.258  1.00  0.00     0.022 A
ENDROOT
BRANCH  10  16
HETATM   16  C11 UNL     1      22.148  14.776 162.505  1.00  0.00     0.015 C
HETATM   17  C12 UNL     1      21.483  14.176 163.434  1.00  0.00     0.017 C
BRANCH  17  18
HETATM   18  C13 UNL     1      22.052  14.022 164.800  1.00  0.00     0.080 C
HETATM   19  N1  UNL     1      21.789  14.835 165.743  1.00  0.00    -0.408 N
ATOM     20  H12 UNL     1      21.164  15.615 165.538  1.00  0.00     0.155 HD
ATOM     21  H11 UNL     1      22.178  14.729 166.680  1.00  0.00     0.155 HD
ENDBRANCH  17  18
ENDBRANCH  10  16
BRANCH   9  22
HETATM   22  O4  UNL     1      24.089  15.720 160.784  1.00  0.00    -0.359 OA
ATOM     23  H4  UNL     1      24.288  15.838 161.705  1.00  0.00     0.217 HD
ENDBRANCH   9  22
BRANCH  12  24
HETATM   24  N2  UNL     1      18.913  14.912 158.898  1.00  0.00    -0.306 N
HETATM   25  N3  UNL     1      18.384  13.791 158.720  1.00  0.00    -0.345 N
ATOM     26  H32 UNL     1      18.970  12.979 158.918  1.00  0.00     0.176 HD
ATOM     27  H31 UNL     1      17.429  13.634 158.399  1.00  0.00     0.176 HD
ATOM     28  H2  UNL     1      18.343  15.734 158.706  1.00  0.00     0.186 HD
ENDBRANCH  12  24
BRANCH   7  29
HETATM   29  O3  UNL     1      24.721  16.479 158.515  1.00  0.00    -0.359 OA
ATOM     30  H3  UNL     1      25.176  15.817 159.022  1.00  0.00     0.217 HD
ENDBRANCH   7  29
BRANCH  14  31
HETATM   31  O5  UNL     1      19.712  15.695 156.693  1.00  0.00    -0.359 OA
ATOM     32  H5  UNL     1      19.426  16.135 155.902  1.00  0.00     0.217 HD
ENDBRANCH  14  31
BRANCH   5  33
HETATM   33  O2  UNL     1      25.420  17.252 156.257  1.00  0.00    -0.360 OA
ATOM     34  H2  UNL     1      25.782  16.685 156.928  1.00  0.00     0.217 HD
ENDBRANCH   5  33
BRANCH   3  35
HETATM   35  O1  UNL     1      22.231  17.363 152.784  1.00  0.00    -0.360 OA
ATOM     36  H1  UNL     1      21.603  16.856 152.283  1.00  0.00     0.217 HD
ENDBRANCH   3  35
TORSDOF 8
ENDMDL