MODEL 2
REMARK VINA RESULT: -7.824442738      2.340      5.785
REMARK  6 active torsions:
REMARK  status: ('A' for Active; 'I' for Inactive)
REMARK    1  A    between atoms: C1_4  and  C2_5
REMARK    2  A    between atoms: C4_7  and  O1_8
REMARK    3  A    between atoms: C6_11  and  O2_12
REMARK    4  A    between atoms: C8_15  and  O3_16
REMARK    5  A    between atoms: C11_23  and  O4_24
REMARK    6  A    between atoms: C13_27  and  S2_28
ROOT
HETATM    1  C2  UNL     1      21.135  16.088 157.530  1.00  0.00    -0.000 A
HETATM    2  C3  UNL     1      22.432  16.519 157.701  1.00  0.00     0.051 A
HETATM    3  C4  UNL     1      23.051  16.304 158.921  1.00  0.00     0.080 A
HETATM    4  C5  UNL     1      22.408  15.667 159.976  1.00  0.00     0.046 A
HETATM    5  C6  UNL     1      23.080  15.475 161.185  1.00  0.00     0.095 A
HETATM    6  C7  UNL     1      22.447  14.846 162.230  1.00  0.00     0.065 A
HETATM    7  C8  UNL     1      22.851  14.527 163.508  1.00  0.00     0.155 A
HETATM    8  N2  UNL     1      21.824  13.912 164.111  1.00  0.00    -0.329 N
ATOM      9  H2  UNL     1      21.838  13.562 165.069  1.00  0.00     0.168 HD
HETATM   10  C9  UNL     1      20.760  13.819 163.268  1.00  0.00     0.097 A
HETATM   11  S1  UNL     1      19.189  13.087 163.622  1.00  0.00    -0.032 SA
HETATM   12  C10 UNL     1      21.124  14.397 162.078  1.00  0.00     0.050 A
HETATM   13  C11 UNL     1      20.475  14.597 160.872  1.00  0.00     0.092 A
HETATM   14  C12 UNL     1      21.133  15.241 159.813  1.00  0.00     0.032 A
HETATM   15  C13 UNL     1      20.503  15.448 158.605  1.00  0.00     0.038 A
ENDROOT
BRANCH   1  16
HETATM   16  C1  UNL     1      20.417  16.276 156.283  1.00  0.00     0.093 C
HETATM   17  N1  UNL     1      20.948  15.969 155.163  1.00  0.00    -0.407 N
ATOM     18  H12 UNL     1      21.893  15.587 155.162  1.00  0.00     0.155 HD
ATOM     19  H11 UNL     1      20.443  16.102 154.287  1.00  0.00     0.155 HD
ENDBRANCH   1  16
BRANCH  15  20
HETATM   20  S2  UNL     1      18.834  14.883 158.409  1.00  0.00    -0.044 SA
HETATM   21  S3  UNL     1      18.748  12.904 157.652  1.00  0.00    -0.007 SA
ENDBRANCH  15  20
BRANCH   3  22
HETATM   22  O1  UNL     1      24.348  16.743 159.072  1.00  0.00    -0.360 OA
ATOM     23  H1  UNL     1      24.560  17.244 159.851  1.00  0.00     0.217 HD
ENDBRANCH   3  22
BRANCH  13  24
HETATM   24  O4  UNL     1      19.185  14.203 160.610  1.00  0.00    -0.359 OA
ATOM     25  H4  UNL     1      18.633  14.585 159.939  1.00  0.00     0.217 HD
ENDBRANCH  13  24
BRANCH   5  26
HETATM   26  O2  UNL     1      24.379  15.925 161.309  1.00  0.00    -0.359 OA
ATOM     27  H2  UNL     1      24.750  16.032 162.177  1.00  0.00     0.217 HD
ENDBRANCH   5  26
BRANCH   7  28
HETATM   28  O3  UNL     1      24.082  14.777 164.103  1.00  0.00    -0.345 OA
ATOM     29  H3  UNL     1      24.317  14.688 165.020  1.00  0.00     0.219 HD
ENDBRANCH   7  28
TORSDOF 6
ENDMDL