MODEL 1
REMARK VINA RESULT: -9.748618395      0.000      0.000
REMARK  6 active torsions:
REMARK  status: ('A' for Active; 'I' for Inactive)
REMARK    1  A    between atoms: C3_3  and  O1_4
REMARK    2  A    between atoms: C5_7  and  O2_8
REMARK    3  A    between atoms: C6_10  and  O3_11
REMARK    4  A    between atoms: C8_15  and  O4_16
REMARK    5  A    between atoms: C12_22  and  C13_23
REMARK    6  A    between atoms: C14_24  and  C15_25
ROOT
HETATM    1  C1  UNL     1      23.931  16.509 159.019  1.00  0.00     0.054 C
HETATM    2  C2  UNL     1      22.574  15.956 159.258  1.00  0.00     0.007 A
HETATM    3  C3  UNL     1      22.291  15.368 160.473  1.00  0.00     0.088 A
HETATM    4  C4  UNL     1      21.049  14.838 160.749  1.00  0.00     0.048 A
HETATM    5  C5  UNL     1      20.823  14.259 161.990  1.00  0.00     0.115 A
HETATM    6  C6  UNL     1      19.554  13.725 162.251  1.00  0.00     0.127 A
HETATM    7  C7  UNL     1      18.575  13.775 161.319  1.00  0.00     0.116 A
HETATM    8  N1  UNL     1      17.302  13.226 161.614  1.00  0.00    -0.096 NA
HETATM    9  C8  UNL     1      18.788  14.357 160.059  1.00  0.00     0.105 A
HETATM   10  C9  UNL     1      20.016  14.873 159.805  1.00  0.00     0.030 A
HETATM   11  C10 UNL     1      20.287  15.461 158.580  1.00  0.00     0.040 A
HETATM   12  C11 UNL     1      19.524  15.657 157.464  1.00  0.00     0.094 A
HETATM   13  N2  UNL     1      18.207  15.366 157.087  1.00  0.00    -0.098 NA
HETATM   14  C12 UNL     1      20.386  16.315 156.554  1.00  0.00     0.101 A
HETATM   15  O5  UNL     1      21.549  16.470 157.138  1.00  0.00    -0.307 OA
HETATM   16  C18 UNL     1      21.562  15.991 158.331  1.00  0.00     0.098 A
ENDROOT
BRANCH  14  17
HETATM   17  C13 UNL     1      20.060  16.751 155.209  1.00  0.00     0.035 C
HETATM   18  C14 UNL     1      20.741  16.686 154.113  1.00  0.00    -0.020 C
BRANCH  18  19
HETATM   19  C15 UNL     1      20.183  17.215 152.816  1.00  0.00    -0.000 C
HETATM   20  C16 UNL     1      21.306  17.444 151.831  1.00  0.00     0.013 C
HETATM   21  C17 UNL     1      19.358  18.449 153.038  1.00  0.00     0.013 C
ENDBRANCH  18  19
ENDBRANCH  14  17
BRANCH   9  22
HETATM   22  O4  UNL     1      17.726  14.336 159.229  1.00  0.00    -0.358 OA
ATOM     23  H4  UNL     1      17.692  15.045 158.598  1.00  0.00     0.217 HD
ENDBRANCH   9  22
BRANCH   3  24
HETATM   24  O1  UNL     1      23.280  15.313 161.429  1.00  0.00    -0.359 OA
ATOM     25  H1  UNL     1      23.259  14.611 162.069  1.00  0.00     0.217 HD
ENDBRANCH   3  24
BRANCH   5  26
HETATM   26  O2  UNL     1      21.710  14.155 162.982  1.00  0.00    -0.357 OA
ATOM     27  H2  UNL     1      21.509  14.011 163.900  1.00  0.00     0.217 HD
ENDBRANCH   5  26
BRANCH   6  28
HETATM   28  O3  UNL     1      19.368  13.154 163.506  1.00  0.00    -0.356 OA
ATOM     29  H3  UNL     1      18.469  13.053 163.795  1.00  0.00     0.218 HD
ENDBRANCH   6  28
TORSDOF 6
ENDMDL