MODEL 5
REMARK VINA RESULT: -7.924306139      2.147      3.250
REMARK  6 active torsions:
REMARK  status: ('A' for Active; 'I' for Inactive)
REMARK    1  A    between atoms: C2_2  and  C3_3
REMARK    2  A    between atoms: C4_4  and  C5_5
REMARK    3  A    between atoms: C9_9  and  O1_10
REMARK    4  A    between atoms: C14_17  and  O2_18
REMARK    5  A    between atoms: C15_20  and  O3_21
REMARK    6  A    between atoms: C16_23  and  O4_24
ROOT
HETATM    1  C5  UNL     1      22.737  16.284 158.828  1.00  0.00    -0.009 A
HETATM    2  C6  UNL     1      23.496  15.990 159.968  1.00  0.00     0.022 A
HETATM    3  C7  UNL     1      22.985  15.287 161.035  1.00  0.00    -0.040 A
HETATM    4  C8  UNL     1      21.652  14.839 160.994  1.00  0.00     0.016 A
HETATM    5  C9  UNL     1      20.890  15.125 159.877  1.00  0.00     0.102 A
HETATM    6  C10 UNL     1      21.446  15.847 158.802  1.00  0.00     0.090 A
HETATM    7  N1  UNL     1      20.539  16.058 157.731  1.00  0.00    -0.099 NA
HETATM    8  C11 UNL     1      21.439  14.164 162.267  1.00  0.00    -0.014 A
HETATM    9  C12 UNL     1      20.204  13.598 162.748  1.00  0.00    -0.002 A
HETATM   10  C13 UNL     1      19.349  12.821 162.022  1.00  0.00     0.053 A
HETATM   11  C14 UNL     1      18.119  12.383 162.480  1.00  0.00     0.102 A
HETATM   12  C15 UNL     1      17.711  12.740 163.745  1.00  0.00     0.134 A
HETATM   13  C16 UNL     1      18.575  13.526 164.487  1.00  0.00     0.120 A
HETATM   14  C17 UNL     1      19.800  13.964 164.029  1.00  0.00     0.059 A
HETATM   15  S1  UNL     1      20.741  15.011 165.134  1.00  0.00    -0.049 SA
HETATM   16  C18 UNL     1      22.555  14.205 163.032  1.00  0.00    -0.009 A
HETATM   17  C19 UNL     1      23.621  14.915 162.333  1.00  0.00     0.067 A
ENDROOT
BRANCH   5  18
HETATM   18  O1  UNL     1      19.573  14.716 159.801  1.00  0.00    -0.358 OA
ATOM     19  H1  UNL     1      19.220  14.102 160.434  1.00  0.00     0.217 HD
ENDBRANCH   5  18
BRANCH  11  20
HETATM   20  O2  UNL     1      17.292  11.587 161.673  1.00  0.00    -0.358 OA
ATOM     21  H2  UNL     1      16.368  11.785 161.577  1.00  0.00     0.217 HD
ENDBRANCH  11  20
BRANCH  13  22
HETATM   22  O4  UNL     1      18.141  13.877 165.770  1.00  0.00    -0.357 OA
ATOM     23  H4  UNL     1      18.237  14.791 166.008  1.00  0.00     0.218 HD
ENDBRANCH  13  22
BRANCH   1  24
HETATM   24  C4  UNL     1      23.338  17.020 157.757  1.00  0.00     0.009 C
HETATM   25  C3  UNL     1      24.580  17.228 157.455  1.00  0.00    -0.026 C
BRANCH  25  26
HETATM   26  C2  UNL     1      24.916  18.063 156.241  1.00  0.00     0.022 C
HETATM   27  C1  UNL     1      24.401  17.466 154.979  1.00  0.00     0.009 C
ENDBRANCH  25  26
ENDBRANCH   1  24
BRANCH  12  28
HETATM   28  O3  UNL     1      16.474  12.313 164.238  1.00  0.00    -0.356 OA
ATOM     29  H3  UNL     1      16.212  11.404 164.159  1.00  0.00     0.218 HD
ENDBRANCH  12  28
TORSDOF 6
ENDMDL