MODEL 1
REMARK VINA RESULT: -5.403834070      0.000      0.000
REMARK  1 active torsions:
REMARK  status: ('A' for Active; 'I' for Inactive)
REMARK    1  A    between atoms: C2_2  and  C4_4
REMARK       I    between atoms: N1_7  and  C7_8
REMARK       I    between atoms: C7_8  and  N4_13
ROOT
HETATM    1  C4  UNL     1      14.557 -16.533  20.554  1.00  0.00     0.059 C
HETATM    2  C5  UNL     1      14.052 -15.698  21.697  1.00  0.00     0.248 C
HETATM    3  C6  UNL     1      14.750 -14.389  21.841  1.00  0.00     0.177 C
HETATM    4  N1  UNL     1      14.582 -13.551  20.645  1.00  0.00    -0.212 N
HETATM    5  C7  UNL     1      14.738 -12.150  20.699  1.00  0.00     0.695 C
HETATM    6  N2  UNL     1      15.904 -11.617  20.658  1.00  0.00    -0.125 N
ATOM      7  H2  UNL     1      15.995 -10.603  20.697  1.00  0.00     0.197 HD
HETATM    8  C8  UNL     1      17.030 -12.395  20.561  1.00  0.00     0.196 C
HETATM    9  N3  UNL     1      17.995 -13.032  20.479  1.00  0.00    -0.171 NA
HETATM   10  N4  UNL     1      13.647 -11.255  20.797  1.00  0.00    -0.155 N
ATOM     11  H4  UNL     1      13.118 -11.010  19.959  1.00  0.00     0.192 HD
HETATM   12 BR1  UNL     1      13.163 -10.510  22.452  1.00  0.00     0.063 Br
HETATM   13  C9  UNL     1      14.247 -14.291  19.445  1.00  0.00     0.177 C
HETATM   14  C10 UNL     1      13.634 -15.609  19.759  1.00  0.00     0.248 C
HETATM   15  N5  UNL     1      12.812 -15.629  20.944  1.00  0.00     0.097 N
HETATM   16  C11 UNL     1      11.908 -14.596  21.198  1.00  0.00     0.311 C
ENDROOT
BRANCH   1  17
HETATM   17  C2  UNL     1      15.981 -16.534  20.222  1.00  0.00    -0.014 C
HETATM   18  C1  UNL     1      16.161 -17.385  18.957  1.00  0.00     0.010 C
HETATM   19  C3  UNL     1      16.760 -17.236  21.311  1.00  0.00     0.010 C
ENDBRANCH   1  17
TORSDOF 1
ENDMDL