MODEL 3
REMARK VINA RESULT: -5.399467097      2.517      4.343
REMARK  2 active torsions:
REMARK  status: ('A' for Active; 'I' for Inactive)
REMARK    1  A    between atoms: C4_5  and  C5_6
REMARK    2  A    between atoms: C5_6  and  O1_7
ROOT
HETATM    1  C1  UNL     1      14.335 -11.533  21.847  1.00  0.00     0.014 C
HETATM    2  C2  UNL     1      14.301 -12.313  20.571  1.00  0.00     0.040 C
HETATM    3  C3  UNL     1      12.966 -13.007  20.506  1.00  0.00     0.097 C
HETATM    4 BR1  UNL     1      12.074 -13.012  22.235  1.00  0.00    -0.088 Br
HETATM    5  C4  UNL     1      13.330 -14.384  20.067  1.00  0.00     0.229 C
HETATM    6  N1  UNL     1      14.662 -14.663  20.522  1.00  0.00    -0.053 N
HETATM    7  C6  UNL     1      14.721 -15.373  21.772  1.00  0.00     0.274 C
HETATM    8  C7  UNL     1      15.224 -15.579  19.537  1.00  0.00     0.274 C
HETATM    9  C8  UNL     1      15.364 -13.412  20.524  1.00  0.00     0.165 C
HETATM   10  C9  UNL     1      16.049 -13.261  19.211  1.00  0.00     0.097 C
HETATM   11  N2  UNL     1      17.273 -13.082  19.004  1.00  0.00    -0.395 N
HETATM   12  C10 UNL     1      17.819 -12.947  17.654  1.00  0.00     0.148 C
HETATM   13  C11 UNL     1      18.251 -12.991  20.040  1.00  0.00     0.121 C
HETATM   14  C12 UNL     1      17.751 -13.638  21.286  1.00  0.00     0.022 C
HETATM   15  C13 UNL     1      16.328 -13.170  21.598  1.00  0.00     0.047 C
ENDROOT
BRANCH   5  16
HETATM   16  C5  UNL     1      12.285 -15.330  20.562  1.00  0.00     0.198 C
BRANCH  16  17
HETATM   17  O1  UNL     1      11.593 -15.816  19.453  1.00  0.00    -0.399 OA
ATOM     18  H1  UNL     1      10.906 -15.193  19.245  1.00  0.00     0.209 HD
ENDBRANCH  16  17
ENDBRANCH   5  16
TORSDOF 2
ENDMDL