MODEL 1
REMARK VINA RESULT: -6.505805413      0.000      0.000
REMARK  3 active torsions:
REMARK  status: ('A' for Active; 'I' for Inactive)
REMARK       I    between atoms: N1_2  and  C2_4
REMARK       I    between atoms: C2_4  and  N2_6
REMARK       I    between atoms: C3_8  and  N3_9
REMARK       I    between atoms: C3_8  and  N4_17
REMARK    1  A    between atoms: C4_11  and  C6_13
REMARK    2  A    between atoms: C7_14  and  C8_15
REMARK    3  A    between atoms: C12_21  and  C13_22
ROOT
HETATM    1  C1  UNL     1      11.575 -17.196  20.436  1.00  0.00     0.151 C
HETATM    2  N1  UNL     1      12.897 -16.642  20.293  1.00  0.00    -0.347 N
ATOM      3  H1  UNL     1      13.263 -16.420  19.368  1.00  0.00     0.163 HD
HETATM    4  C2  UNL     1      13.678 -16.408  21.441  1.00  0.00     0.334 C
HETATM    5  O1  UNL     1      13.250 -16.673  22.592  1.00  0.00    -0.247 OA
HETATM    6  N2  UNL     1      14.979 -15.863  21.306  1.00  0.00    -0.141 N
ATOM      7  H2  UNL     1      15.687 -16.427  20.837  1.00  0.00     0.189 HD
HETATM    8  C3  UNL     1      15.324 -14.699  21.741  1.00  0.00     0.685 C
HETATM    9  N3  UNL     1      14.361 -13.915  22.387  1.00  0.00    -0.188 N
ATOM     10  H3  UNL     1      14.289 -14.021  23.399  1.00  0.00     0.184 HD
HETATM   11  C4  UNL     1      13.569 -13.085  21.841  1.00  0.00     0.076 C
HETATM   12  C5  UNL     1      13.638 -12.897  20.368  1.00  0.00     0.079 C
HETATM   13  N4  UNL     1      16.672 -14.296  21.527  1.00  0.00    -0.203 N
HETATM   14  C9  UNL     1      17.205 -12.935  21.552  1.00  0.00     0.142 C
HETATM   15  C10 UNL     1      18.017 -12.909  20.288  1.00  0.00     0.023 C
HETATM   16  C11 UNL     1      18.662 -14.274  20.277  1.00  0.00     0.038 C
HETATM   17  C12 UNL     1      17.824 -15.131  21.238  1.00  0.00     0.203 C
ENDROOT
BRANCH  11  18
HETATM   18  C6  UNL     1      12.630 -12.352  22.643  1.00  0.00    -0.051 C
HETATM   19  C7  UNL     1      11.850 -11.742  23.335  1.00  0.00    -0.069 C
BRANCH  19  20
HETATM   20  C8  UNL     1      10.896 -10.981  24.166  1.00  0.00     0.316 C
HETATM   21  F1  UNL     1      11.591 -10.085  24.929  1.00  0.00    -0.242 F
ENDBRANCH  19  20
ENDBRANCH  11  18
BRANCH  17  22
HETATM   22  C13 UNL     1      18.589 -15.460  22.452  1.00  0.00     0.197 C
HETATM   23  O2  UNL     1      18.105 -16.009  23.475  1.00  0.00    -0.646 OA
HETATM   24  O3  UNL     1      19.940 -15.143  22.470  1.00  0.00    -0.646 OA
ENDBRANCH  17  22
TORSDOF 3
ENDMDL