MODEL 3
REMARK VINA RESULT: -7.213715993      2.739      3.670
REMARK  3 active torsions:
REMARK  status: ('A' for Active; 'I' for Inactive)
REMARK    1  A    between atoms: N1_2  and  C2_3
REMARK    2  A    between atoms: N2_6  and  N3_7
REMARK       I    between atoms: N3_7  and  C4_9
REMARK       I    between atoms: C4_9  and  N4_11
REMARK       I    between atoms: N4_11  and  C5_13
REMARK       I    between atoms: C5_13  and  N5_15
REMARK    3  A    between atoms: N5_15  and  N6_17
ROOT
HETATM    1  N3  UNL     1      13.944 -12.167  19.247  1.00  0.00    -0.165 N
ATOM      2  H3  UNL     1      13.740 -11.278  18.789  1.00  0.00     0.199 HD
HETATM    3  C4  UNL     1      13.270 -12.268  20.546  1.00  0.00     0.348 C
HETATM    4  O1  UNL     1      13.204 -13.170  21.191  1.00  0.00    -0.245 OA
HETATM    5  N4  UNL     1      12.685 -10.838  20.761  1.00  0.00    -0.258 N
ATOM      6  H4  UNL     1      12.683 -10.015  20.158  1.00  0.00     0.175 HD
HETATM    7  C5  UNL     1      12.042 -11.092  22.343  1.00  0.00     0.344 C
HETATM    8  O2  UNL     1      11.456 -10.103  22.724  1.00  0.00    -0.245 OA
HETATM    9  N5  UNL     1      12.275 -12.325  22.936  1.00  0.00    -0.237 N
ATOM     10  H5  UNL     1      13.220 -12.681  23.082  1.00  0.00     0.193 HD
ENDROOT
BRANCH   1  11
HETATM   11  N2  UNL     1      14.761 -12.935  18.495  1.00  0.00     0.041 N
HETATM   12  C3  UNL     1      14.823 -12.591  17.080  1.00  0.00     0.501 C
HETATM   13  N1  UNL     1      16.008 -13.209  16.490  1.00  0.00    -0.028 N
HETATM   14  C1  UNL     1      16.982 -12.163  16.381  1.00  0.00     0.276 C
HETATM   15  C8  UNL     1      16.448 -14.295  17.256  1.00  0.00     0.197 C
HETATM   16  C7  UNL     1      17.023 -13.803  18.617  1.00  0.00     0.064 C
HETATM   17  C9  UNL     1      15.258 -15.118  17.671  1.00  0.00     0.064 C
HETATM   18  C6  UNL     1      16.033 -12.839  19.167  1.00  0.00     0.269 C
HETATM   19  C10 UNL     1      14.334 -14.322  18.566  1.00  0.00     0.269 C
BRANCH  13  20
HETATM   20  C2  UNL     1      15.778 -13.641  15.101  1.00  0.00     0.353 C
HETATM   21 CL1  UNL     1      17.405 -13.933  14.349  1.00  0.00    -0.101 Cl
ENDBRANCH  13  20
ENDBRANCH   1  11
BRANCH   9  22
HETATM   22  N6  UNL     1      11.190 -13.021  23.305  1.00  0.00    -0.245 N
HETATM   23  N7  UNL     1      10.051 -12.906  23.850  1.00  0.00    -0.331 N
ATOM     24  H72 UNL     1       9.934 -11.921  24.085  1.00  0.00     0.178 HD
ATOM     25  H71 UNL     1       9.225 -13.435  24.130  1.00  0.00     0.178 HD
ATOM     26  H6  UNL     1      11.333 -14.000  23.058  1.00  0.00     0.208 HD
ENDBRANCH   9  22
TORSDOF 3
ENDMDL