MODEL 5
REMARK VINA RESULT: -6.092240548      2.775      5.569
REMARK  2 active torsions:
REMARK  status: ('A' for Active; 'I' for Inactive)
REMARK    1  A    between atoms: C2_2  and  C3_4
REMARK    2  A    between atoms: C2_2  and  N2_11
REMARK       I    between atoms: C3_4  and  N1_6
ROOT
HETATM    1  C1  UNL     1      14.091 -12.735  19.159  1.00  0.00     0.098 C
HETATM    2  C2  UNL     1      14.226 -13.060  20.669  1.00  0.00     0.362 C
HETATM    3  F1  UNL     1      13.336 -14.120  20.850  1.00  0.00    -0.198 F
ENDROOT
BRANCH   2   4
HETATM    4  C3  UNL     1      13.798 -11.846  21.346  1.00  0.00     0.290 C
HETATM    5  O1  UNL     1      14.504 -10.828  21.235  1.00  0.00    -0.267 OA
HETATM    6  N1  UNL     1      12.588 -11.784  22.139  1.00  0.00    -0.348 N
HETATM    7  C4  UNL     1      12.162 -10.576  22.816  1.00  0.00     0.126 C
HETATM    8  C7  UNL     1      11.602 -12.767  22.433  1.00  0.00     0.126 C
HETATM    9  C5  UNL     1      11.323 -10.964  23.967  1.00  0.00     0.021 C
HETATM   10  C6  UNL     1      11.105 -12.426  23.847  1.00  0.00     0.021 C
ENDBRANCH   2   4
BRANCH   2  11
HETATM   11  N2  UNL     1      15.515 -13.577  20.868  1.00  0.00     0.058 N
HETATM   12  C8  UNL     1      16.051 -13.673  22.189  1.00  0.00     0.266 C
HETATM   13  C9  UNL     1      17.411 -14.357  21.901  1.00  0.00     0.038 C
HETATM   14  C10 UNL     1      17.140 -15.054  20.617  1.00  0.00     0.047 C
HETATM   15  C11 UNL     1      15.603 -15.030  20.542  1.00  0.00     0.272 C
HETATM   16  C12 UNL     1      17.367 -14.022  19.533  1.00  0.00     0.184 C
HETATM   17 BR1  UNL     1      19.198 -13.435  19.619  1.00  0.00    -0.071 Br
HETATM   18  N3  UNL     1      16.440 -12.989  19.973  1.00  0.00    -0.026 NA
ENDBRANCH   2  11
TORSDOF 2
ENDMDL