MODEL 1
REMARK VINA RESULT: -7.216211345      0.000      0.000
REMARK  1 active torsions:
REMARK  status: ('A' for Active; 'I' for Inactive)
REMARK    1  A    between atoms: C3_3  and  N1_4
REMARK       I    between atoms: N1_4  and  C4_6
REMARK       I    between atoms: C4_6  and  N2_8
ROOT
HETATM    1  C1  UNL     1      20.714 -13.078  19.377  1.00  0.00     0.015 C
HETATM    2  C2  UNL     1      20.144 -13.721  20.222  1.00  0.00    -0.083 C
HETATM    3  C3  UNL     1      19.458 -14.525  21.238  1.00  0.00     0.128 C
HETATM    4  C14 UNL     1      19.565 -16.010  20.866  1.00  0.00     0.050 C
HETATM    5  C15 UNL     1      19.858 -16.275  22.330  1.00  0.00     0.044 C
HETATM    6  C16 UNL     1      20.333 -14.840  22.431  1.00  0.00     0.210 C
HETATM    7  F1  UNL     1      19.979 -14.193  23.595  1.00  0.00    -0.246 F
ENDROOT
BRANCH   3   8
HETATM    8  N1  UNL     1      18.121 -14.133  21.539  1.00  0.00    -0.320 N
HETATM    9  C4  UNL     1      17.186 -13.860  20.520  1.00  0.00     0.319 C
HETATM   10  O1  UNL     1      17.554 -13.968  19.323  1.00  0.00    -0.247 OA
HETATM   11  N2  UNL     1      15.832 -13.464  20.818  1.00  0.00    -0.331 N
HETATM   12  C5  UNL     1      14.885 -13.187  19.759  1.00  0.00     0.155 C
HETATM   13  C13 UNL     1      15.368 -13.328  22.182  1.00  0.00     0.155 C
HETATM   14  C6  UNL     1      13.515 -13.557  20.283  1.00  0.00     0.257 C
HETATM   15  N3  UNL     1      13.115 -12.709  21.400  1.00  0.00    -0.064 N
HETATM   16  C7  UNL     1      12.116 -13.441  22.142  1.00  0.00     0.237 C
HETATM   17  C11 UNL     1      12.443 -11.559  20.822  1.00  0.00     0.237 C
HETATM   18  C12 UNL     1      14.242 -12.322  22.185  1.00  0.00     0.257 C
HETATM   19  C8  UNL     1      11.452 -12.680  23.214  1.00  0.00     0.028 C
HETATM   20  C9  UNL     1      11.259 -11.234  23.011  1.00  0.00     0.003 C
HETATM   21  C10 UNL     1      12.072 -10.603  21.926  1.00  0.00     0.028 C
ATOM     22  H1  UNL     1      17.834 -14.049  22.514  1.00  0.00     0.166 HD
ENDBRANCH   3   8
TORSDOF 1
ENDMDL