MODEL 4
REMARK VINA RESULT: -5.246857670      1.999      4.917
REMARK  1 active torsions:
REMARK  status: ('A' for Active; 'I' for Inactive)
REMARK       I    between atoms: N1_2  and  C2_4
REMARK    1  A    between atoms: C2_4  and  C3_6
ROOT
HETATM    1  C3  UNL     1      15.002 -13.344  19.035  1.00  0.00     0.104 C
HETATM    2  C4  UNL     1      14.605 -12.705  17.671  1.00  0.00     0.048 C
HETATM    3  C5  UNL     1      15.958 -14.419  18.683  1.00  0.00     0.042 C
HETATM    4  C6  UNL     1      17.347 -13.829  18.674  1.00  0.00     0.031 C
HETATM    5  C7  UNL     1      18.090 -14.384  19.849  1.00  0.00     0.236 C
HETATM    6  N2  UNL     1      18.365 -13.485  20.893  1.00  0.00    -0.072 N
HETATM    7  C8  UNL     1      18.463 -14.274  22.132  1.00  0.00     0.272 C
HETATM    8  C9  UNL     1      19.729 -12.961  20.663  1.00  0.00     0.272 C
HETATM    9  C10 UNL     1      17.549 -12.328  21.029  1.00  0.00     0.272 C
HETATM   10  C11 UNL     1      16.081 -12.497  21.036  1.00  0.00     0.176 C
HETATM   11 BR1  UNL     1      15.490 -14.138  21.846  1.00  0.00    -0.067 Br
HETATM   12  N3  UNL     1      15.533 -12.220  19.739  1.00  0.00    -0.390 N
ATOM     13  H3  UNL     1      15.523 -11.279  19.344  1.00  0.00     0.155 HD
ENDROOT
BRANCH   1  14
HETATM   14  C2  UNL     1      13.725 -13.841  19.585  1.00  0.00     0.244 C
HETATM   15  N1  UNL     1      13.345 -15.206  19.504  1.00  0.00    -0.363 N
HETATM   16  C1  UNL     1      12.101 -15.688  20.046  1.00  0.00     0.149 C
ATOM     17  H1  UNL     1      13.973 -15.867  19.047  1.00  0.00     0.162 HD
HETATM   18  O1  UNL     1      12.930 -13.056  20.153  1.00  0.00    -0.271 OA
ENDBRANCH   1  14
TORSDOF 1
ENDMDL