MODEL 3
REMARK VINA RESULT: -6.096244391      3.235      5.134
REMARK  2 active torsions:
REMARK  status: ('A' for Active; 'I' for Inactive)
REMARK       I    between atoms: N1_2  and  C2_4
REMARK    1  A    between atoms: C2_4  and  C3_6
REMARK    2  A    between atoms: C7_11  and  C13_20
ROOT
HETATM    1  C3  UNL     1      15.876 -13.295  21.088  1.00  0.00     0.050 A
HETATM    2  C4  UNL     1      15.940 -13.903  19.737  1.00  0.00     0.026 C
HETATM    3  C5  UNL     1      17.405 -14.221  19.541  1.00  0.00     0.006 C
HETATM    4  C6  UNL     1      17.690 -15.350  20.527  1.00  0.00     0.069 C
HETATM    5 BR1  UNL     1      16.111 -16.486  20.739  1.00  0.00    -0.090 Br
HETATM    6  C7  UNL     1      17.895 -14.661  21.841  1.00  0.00     0.037 C
HETATM    7  C8  UNL     1      19.265 -14.016  21.802  1.00  0.00     0.197 C
HETATM    8  N2  UNL     1      20.320 -14.778  21.224  1.00  0.00    -0.070 N
ATOM      9  H21 UNL     1      20.210 -15.791  21.175  1.00  0.00     0.277 HD
ATOM     10  H22 UNL     1      21.194 -14.860  21.744  1.00  0.00     0.277 HD
HETATM   11  C9  UNL     1      20.334 -14.036  19.988  1.00  0.00     0.239 C
HETATM   12  C10 UNL     1      19.381 -13.069  20.599  1.00  0.00     0.047 C
HETATM   13  C11 UNL     1      18.026 -12.920  20.021  1.00  0.00     0.004 C
HETATM   14  C12 UNL     1      17.109 -12.463  21.164  1.00  0.00     0.014 A
HETATM   15  C13 UNL     1      16.879 -13.611  22.066  1.00  0.00     0.017 A
ENDROOT
BRANCH   1  16
HETATM   16  C2  UNL     1      14.625 -12.654  21.492  1.00  0.00     0.226 C
HETATM   17  N1  UNL     1      14.062 -11.610  20.724  1.00  0.00    -0.365 N
HETATM   18  C1  UNL     1      12.825 -10.946  21.089  1.00  0.00     0.149 C
ATOM     19  H1  UNL     1      14.545 -11.312  19.877  1.00  0.00     0.161 HD
HETATM   20  O1  UNL     1      14.062 -13.069  22.562  1.00  0.00    -0.273 OA
ENDBRANCH   1  16
TORSDOF 2
ENDMDL