MODEL 3
REMARK VINA RESULT: -5.358968849      3.271      4.446
REMARK  1 active torsions:
REMARK  status: ('A' for Active; 'I' for Inactive)
REMARK    1  A    between atoms: C4_4  and  C5_5
ROOT
HETATM    1  C1  UNL     1      17.815 -12.704  16.794  1.00  0.00     0.040 C
HETATM    2  C2  UNL     1      16.960 -12.783  18.013  1.00  0.00     0.186 C
HETATM    3  C3  UNL     1      17.568 -13.629  19.098  1.00  0.00     0.040 C
HETATM    4  C4  UNL     1      17.455 -12.859  20.378  1.00  0.00     0.022 C
HETATM    5  C6  UNL     1      16.087 -12.763  20.911  1.00  0.00     0.113 C
HETATM    6  N1  UNL     1      15.570 -13.928  21.546  1.00  0.00    -0.360 N
ATOM      7  H1  UNL     1      16.103 -14.711  21.925  1.00  0.00     0.162 HD
HETATM    8  C7  UNL     1      14.154 -13.771  21.539  1.00  0.00     0.168 C
HETATM    9  S1  UNL     1      13.044 -14.763  22.256  1.00  0.00    -0.041 SA
HETATM   10  N2  UNL     1      13.855 -12.577  20.785  1.00  0.00    -0.359 N
ATOM     11  H2  UNL     1      13.034 -11.975  20.846  1.00  0.00     0.162 HD
HETATM   12  C8  UNL     1      15.020 -12.442  19.909  1.00  0.00     0.133 C
HETATM   13  C9  UNL     1      14.829 -13.473  18.857  1.00  0.00     0.264 C
HETATM   14  N3  UNL     1      15.665 -13.334  17.699  1.00  0.00    -0.069 N
HETATM   15  C10 UNL     1      15.873 -14.663  17.149  1.00  0.00     0.272 C
HETATM   16  C11 UNL     1      15.068 -12.500  16.675  1.00  0.00     0.272 C
ENDROOT
BRANCH   4  17
HETATM   17  C5  UNL     1      18.381 -13.368  21.451  1.00  0.00     0.092 C
HETATM   18 BR1  UNL     1      20.077 -13.893  20.680  1.00  0.00    -0.096 Br
ENDBRANCH   4  17
TORSDOF 1
ENDMDL