MODEL 5
REMARK VINA RESULT: -3.485820033      1.323      2.285
REMARK  1 active torsions:
REMARK  status: ('A' for Active; 'I' for Inactive)
REMARK    1  A    between atoms: N1_2  and  C4_5
ROOT
HETATM    1  C4  UNL     1      13.195 -12.138  22.300  1.00  0.00     0.240 C
HETATM    2  C5  UNL     1      11.838 -11.648  22.609  1.00  0.00     0.267 C
HETATM    3  N2  UNL     1      11.976 -10.609  21.582  1.00  0.00    -0.071 N
ATOM      4  H21 UNL     1      11.497  -9.713  21.670  1.00  0.00     0.277 HD
ATOM      5  H22 UNL     1      11.553 -10.717  20.660  1.00  0.00     0.277 HD
HETATM    6  C6  UNL     1      13.395 -10.712  21.765  1.00  0.00     0.267 C
ENDROOT
BRANCH   1   7
HETATM    7  N1  UNL     1      13.403 -13.169  21.365  1.00  0.00    -0.071 N
HETATM    8  C1  UNL     1      12.315 -14.073  21.161  1.00  0.00     0.272 C
HETATM    9  C2  UNL     1      14.559 -13.988  21.780  1.00  0.00     0.272 C
HETATM   10  C3  UNL     1      13.809 -12.685  20.034  1.00  0.00     0.272 C
ENDBRANCH   1   7
TORSDOF 1
ENDMDL