MODEL 1
REMARK VINA RESULT: -3.938374164      0.000      0.000
REMARK  1 active torsions:
REMARK  status: ('A' for Active; 'I' for Inactive)
REMARK    1  A    between atoms: C2_2  and  N1_3
ROOT
HETATM    1  N1  UNL     1      12.147 -12.215  22.739  1.00  0.00     0.012 N
HETATM    2  C3  UNL     1      12.229 -11.119  21.802  1.00  0.00     0.262 C
HETATM    3  C4  UNL     1      13.170 -11.770  20.766  1.00  0.00     0.054 C
HETATM    4  C5  UNL     1      13.235 -13.132  21.418  1.00  0.00     0.136 C
HETATM    5  C6  UNL     1      11.797 -13.331  21.842  1.00  0.00     0.283 C
HETATM    6  N2  UNL     1      13.423 -12.799  22.800  1.00  0.00    -0.040 NA
ENDROOT
BRANCH   1   7
HETATM    7  C2  UNL     1      11.410 -12.072  23.911  1.00  0.00     0.256 C
HETATM    8  C1  UNL     1      11.034 -10.663  24.288  1.00  0.00     0.036 C
ENDBRANCH   1   7
TORSDOF 1
ENDMDL