MODEL 1
REMARK VINA RESULT: -4.370056842      0.000      0.000
REMARK  3 active torsions:
REMARK  status: ('A' for Active; 'I' for Inactive)
REMARK    1  A    between atoms: C3_3  and  C4_4
REMARK    2  A    between atoms: C4_4  and  C6_6
REMARK    3  A    between atoms: N1_7  and  C7_9
ROOT
HETATM    1  C1  UNL     1      12.977 -15.404  22.042  1.00  0.00     0.112 C
HETATM    2  C2  UNL     1      12.804 -13.943  21.864  1.00  0.00    -0.110 C
HETATM    3  C3  UNL     1      12.677 -12.767  21.713  1.00  0.00    -0.097 C
ENDROOT
BRANCH   3   4
HETATM    4  C4  UNL     1      12.526 -11.329  21.507  1.00  0.00     0.099 C
HETATM    5  C5  UNL     1      13.867 -10.615  21.697  1.00  0.00     0.029 C
BRANCH   4   6
HETATM    6  C6  UNL     1      11.606 -10.792  22.526  1.00  0.00     0.072 C
HETATM    7  N1  UNL     1      12.036 -10.469  23.679  1.00  0.00    -0.401 N
ATOM      8  H1  UNL     1      13.026 -10.583  23.898  1.00  0.00     0.158 HD
BRANCH   7   9
HETATM    9  C7  UNL     1      11.137  -9.941  24.687  1.00  0.00     0.114 C
HETATM   10  C8  UNL     1      11.511  -8.552  25.067  1.00  0.00     0.026 C
ENDBRANCH   7   9
ENDBRANCH   4   6
ENDBRANCH   3   4
TORSDOF 3
ENDMDL