MODEL 1
REMARK VINA RESULT: -4.287812338      0.000      0.000
REMARK  1 active torsions:
REMARK  status: ('A' for Active; 'I' for Inactive)
REMARK    1  A    between atoms: C4_6  and  O1_7
ROOT
HETATM    1  C1  UNL     1      13.736 -12.647  19.850  1.00  0.00     0.013 C
HETATM    2  C2  UNL     1      14.441 -12.222  21.133  1.00  0.00     0.017 C
HETATM    3  C3  UNL     1      14.402 -13.424  22.054  1.00  0.00     0.141 C
HETATM    4  N1  UNL     1      13.201 -13.204  22.834  1.00  0.00    -0.137 NA
HETATM    5  N2  UNL     1      12.628 -11.972  22.519  1.00  0.00    -0.285 N
HETATM    6  C4  UNL     1      11.427 -11.606  22.794  1.00  0.00     0.238 C
HETATM    7  C5  UNL     1      13.620 -11.151  21.820  1.00  0.00     0.151 C
ENDROOT
BRANCH   6   8
HETATM    8  O1  UNL     1      10.592 -12.485  23.463  1.00  0.00    -0.355 OA
ATOM      9  H1  UNL     1      10.296 -12.265  24.338  1.00  0.00     0.218 HD
ENDBRANCH   6   8
TORSDOF 1
ENDMDL