MODEL 2
REMARK VINA RESULT: -3.830091932      1.589      2.284
REMARK  1 active torsions:
REMARK  status: ('A' for Active; 'I' for Inactive)
REMARK    1  A    between atoms: C3_6  and  N2_7
ROOT
HETATM    1  C1  UNL     1      11.862 -10.508  23.191  1.00  0.00     0.044 C
HETATM    2  C2  UNL     1      12.929 -10.980  22.211  1.00  0.00     0.242 A
HETATM    3  N1  UNL     1      12.757 -10.668  20.804  1.00  0.00    -0.036 N
ATOM      4  H11 UNL     1      13.347 -10.243  20.088  1.00  0.00     0.280 HD
ATOM      5  H12 UNL     1      12.204  -9.986  20.286  1.00  0.00     0.280 HD
HETATM    6  C3  UNL     1      12.534 -11.998  21.250  1.00  0.00     0.416 A
ENDROOT
BRANCH   6   7
HETATM    7  N2  UNL     1      13.447 -13.065  20.980  1.00  0.00    -0.048 N
HETATM    8  C4  UNL     1      12.625 -14.276  20.819  1.00  0.00     0.274 C
HETATM    9  C5  UNL     1      14.089 -12.846  19.681  1.00  0.00     0.274 C
HETATM   10  C6  UNL     1      14.393 -13.332  22.009  1.00  0.00     0.274 C
ENDBRANCH   6   7
TORSDOF 1
ENDMDL