MODEL 1
REMARK VINA RESULT: -4.248315047      0.000      0.000
REMARK  1 active torsions:
REMARK  status: ('A' for Active; 'I' for Inactive)
REMARK    1  A    between atoms: N1_7  and  C7_8
ROOT
HETATM    1  C1  UNL     1      12.807 -15.022  20.566  1.00  0.00     0.011 C
HETATM    2  C2  UNL     1      12.481 -13.656  21.065  1.00  0.00     0.001 C
HETATM    3  C3  UNL     1      13.282 -12.568  20.322  1.00  0.00     0.026 C
HETATM    4  C4  UNL     1      14.111 -12.090  21.497  1.00  0.00     0.067 C
HETATM    5  C5  UNL     1      14.551 -13.371  22.128  1.00  0.00     0.040 C
HETATM    6  C6  UNL     1      13.048 -13.444  22.438  1.00  0.00     0.071 C
HETATM    7  N1  UNL     1      13.149 -12.011  22.609  1.00  0.00    -0.251 NA
ENDROOT
BRANCH   7   8
HETATM    8  C7  UNL     1      12.007 -11.254  22.368  1.00  0.00     0.324 C
HETATM    9  O1  UNL     1      11.216 -11.053  23.258  1.00  0.00    -0.289 OA
ENDBRANCH   7   8
TORSDOF 1
ENDMDL