MODEL 3
REMARK VINA RESULT: -3.699775182      1.140      1.223
REMARK  1 active torsions:
REMARK  status: ('A' for Active; 'I' for Inactive)
REMARK    1  A    between atoms: C2_2  and  N1_3
ROOT
HETATM    1  N1  UNL     1      12.770 -12.469  22.000  1.00  0.00    -0.040 N
HETATM    2  C3  UNL     1      12.878 -11.464  21.004  1.00  0.00     0.468 C
HETATM    3  N2  UNL     1      13.727 -12.157  20.008  1.00  0.00    -0.043 N
ATOM      4  H21 UNL     1      14.633 -11.728  19.816  1.00  0.00     0.279 HD
ATOM      5  H22 UNL     1      13.412 -12.110  19.040  1.00  0.00     0.279 HD
HETATM    6  C4  UNL     1      13.760 -13.459  20.595  1.00  0.00     0.239 C
HETATM    7  C5  UNL     1      14.065 -13.149  22.038  1.00  0.00     0.274 C
HETATM    8  C6  UNL     1      12.346 -13.613  21.166  1.00  0.00     0.274 C
ENDROOT
BRANCH   1   9
HETATM    9  C2  UNL     1      12.093 -12.257  23.193  1.00  0.00     0.235 C
HETATM   10  C1  UNL     1      11.473 -10.885  23.327  1.00  0.00     0.035 C
ENDBRANCH   1   9
TORSDOF 1
ENDMDL