MODEL 3
REMARK VINA RESULT: -4.734695473      1.264      2.024
REMARK  1 active torsions:
REMARK  status: ('A' for Active; 'I' for Inactive)
REMARK    1  A    between atoms: N2_4  and  C1_6
ROOT
HETATM    1  C1  UNL     1      12.148 -12.136  22.872  1.00  0.00     0.137 C
HETATM    2  C2  UNL     1      12.944 -13.357  22.502  1.00  0.00     0.037 C
HETATM    3  C3  UNL     1      14.240 -12.944  21.842  1.00  0.00     0.047 C
HETATM    4  C4  UNL     1      13.883 -12.215  20.596  1.00  0.00     0.060 C
HETATM    5  N3  UNL     1      12.902 -11.232  20.692  1.00  0.00    -0.380 N
ATOM      6  H3  UNL     1      12.708 -10.636  19.887  1.00  0.00     0.164 HD
HETATM    7  C5  UNL     1      12.177 -11.048  21.871  1.00  0.00     0.086 C
ENDROOT
BRANCH   1   8
HETATM    8  N2  UNL     1      10.810 -12.568  23.169  1.00  0.00    -0.333 N
HETATM    9  N1  UNL     1      10.287 -12.469  24.288  1.00  0.00    -0.349 N
ATOM     10  H12 UNL     1      10.852 -12.055  25.030  1.00  0.00     0.176 HD
ATOM     11  H11 UNL     1       9.337 -12.775  24.499  1.00  0.00     0.176 HD
ATOM     12  H2  UNL     1      10.259 -12.980  22.415  1.00  0.00     0.180 HD
ENDBRANCH   1   8
TORSDOF 1
ENDMDL