MODEL 1
REMARK VINA RESULT: -5.190383330      0.000      0.000
REMARK  1 active torsions:
REMARK  status: ('A' for Active; 'I' for Inactive)
REMARK    1  A    between atoms: C3_3  and  C4_4
ROOT
HETATM    1  C1  UNL     1      11.478  -8.613  25.062  1.00  0.00     0.012 C
HETATM    2  C2  UNL     1      11.284  -9.698  24.567  1.00  0.00    -0.117 C
HETATM    3  C3  UNL     1      11.057 -11.024  23.974  1.00  0.00     0.102 C
ENDROOT
BRANCH   3   4
HETATM    4  C4  UNL     1      12.279 -11.294  23.086  1.00  0.00     0.035 C
HETATM    5  C5  UNL     1      12.360 -12.801  22.933  1.00  0.00     0.012 C
HETATM    6  C6  UNL     1      13.588 -13.012  22.037  1.00  0.00     0.020 C
HETATM    7  C7  UNL     1      13.216 -12.459  20.705  1.00  0.00     0.118 C
HETATM    8  N1  UNL     1      12.815 -11.107  20.678  1.00  0.00    -0.402 N
HETATM    9  C8  UNL     1      12.147 -10.578  21.801  1.00  0.00     0.061 C
ATOM     10  H1  UNL     1      13.004 -10.524  19.863  1.00  0.00     0.158 HD
ENDBRANCH   3   4
TORSDOF 1
ENDMDL