MODEL 2
REMARK VINA RESULT: -3.728961754      1.205      2.673
REMARK  0 active torsions:
REMARK  status: ('A' for Active; 'I' for Inactive)
ROOT
HETATM    1  C1  UNL     1      44.810  22.032  50.400  1.00  0.00     0.272 C
HETATM    2  N1  UNL     1      45.197  21.366  51.590  1.00  0.00    -0.065 N
HETATM    3  C2  UNL     1      45.143  19.928  51.557  1.00  0.00     0.264 C
HETATM    4  C3  UNL     1      45.590  19.316  52.838  1.00  0.00     0.260 C
HETATM    5  N2  UNL     1      45.726  20.219  53.931  1.00  0.00    -0.066 N
ATOM      6  H21 UNL     1      46.495  19.942  54.540  1.00  0.00     0.277 HD
ATOM      7  H22 UNL     1      44.951  20.119  54.587  1.00  0.00     0.277 HD
HETATM    8  C4  UNL     1      45.870  21.588  53.506  1.00  0.00     0.237 C
HETATM    9  C5  UNL     1      46.494  21.732  52.147  1.00  0.00     0.271 C
HETATM   10  C6  UNL     1      44.585  21.945  52.752  1.00  0.00     0.271 C
ENDROOT
TORSDOF 0
ENDMDL