MODEL 2
REMARK VINA RESULT: -3.906992173      1.432      2.365
REMARK  2 active torsions:
REMARK  status: ('A' for Active; 'I' for Inactive)
REMARK    1  A    between atoms: N1_2  and  N2_3
REMARK    2  A    between atoms: N2_3  and  C2_5
ROOT
HETATM    1  C1  UNL     1      44.628  23.115  49.726  1.00  0.00     0.302 C
HETATM    2  N1  UNL     1      44.402  22.249  50.917  1.00  0.00     0.010 N
HETATM    3  C3  UNL     1      43.643  22.989  51.902  1.00  0.00     0.264 C
HETATM    4  C4  UNL     1      44.285  22.761  53.226  1.00  0.00     0.032 C
HETATM    5  C5  UNL     1      45.679  22.301  52.954  1.00  0.00     0.032 C
HETATM    6  C6  UNL     1      45.681  21.980  51.500  1.00  0.00     0.264 C
ENDROOT
BRANCH   2   7
HETATM    7  N2  UNL     1      43.694  21.190  50.427  1.00  0.00    -0.193 N
ATOM      8  H2  UNL     1      42.811  21.357  49.943  1.00  0.00     0.196 HD
BRANCH   7   9
HETATM    9  C2  UNL     1      44.148  19.908  50.573  1.00  0.00     0.374 C
HETATM   10  O1  UNL     1      43.691  19.076  51.308  1.00  0.00    -0.282 OA
ENDBRANCH   7   9
ENDBRANCH   2   7
TORSDOF 2
ENDMDL