MODEL 2
REMARK VINA RESULT: -3.688676908      1.459      3.189
REMARK  1 active torsions:
REMARK  status: ('A' for Active; 'I' for Inactive)
REMARK    1  A    between atoms: C2_2  and  N1_3
ROOT
HETATM    1  N1  UNL     1      45.164  21.583  51.244  1.00  0.00     0.012 N
HETATM    2  C3  UNL     1      44.805  20.209  50.979  1.00  0.00     0.262 C
HETATM    3  C4  UNL     1      45.395  19.566  52.253  1.00  0.00     0.054 C
HETATM    4  C5  UNL     1      45.821  20.854  52.919  1.00  0.00     0.136 C
HETATM    5  C6  UNL     1      44.645  21.754  52.612  1.00  0.00     0.283 C
HETATM    6  N2  UNL     1      46.437  21.567  51.838  1.00  0.00    -0.040 NA
ENDROOT
BRANCH   1   7
HETATM    7  C2  UNL     1      44.863  22.570  50.310  1.00  0.00     0.256 C
HETATM    8  C1  UNL     1      43.440  23.061  50.300  1.00  0.00     0.036 C
ENDBRANCH   1   7
TORSDOF 1
ENDMDL