MODEL 1
REMARK VINA RESULT: -3.973918098      0.000      0.000
REMARK  1 active torsions:
REMARK  status: ('A' for Active; 'I' for Inactive)
REMARK    1  A    between atoms: C2_2  and  N1_3
ROOT
HETATM    1  N1  UNL     1      45.089  20.487  52.063  1.00  0.00    -0.031 N
HETATM    2  C3  UNL     1      44.597  19.480  51.119  1.00  0.00     0.276 C
HETATM    3  C4  UNL     1      45.598  21.688  51.453  1.00  0.00     0.276 A
HETATM    4  C5  UNL     1      44.820  22.235  50.297  1.00  0.00     0.272 A
HETATM    5  N2  UNL     1      43.606  22.143  51.056  1.00  0.00    -0.041 N
ATOM      6  H21 UNL     1      42.828  21.577  50.718  1.00  0.00     0.279 HD
ATOM      7  H22 UNL     1      42.980  22.945  51.128  1.00  0.00     0.279 HD
HETATM    8  C6  UNL     1      44.376  21.718  52.191  1.00  0.00     0.419 A
ENDROOT
BRANCH   1   9
HETATM    9  C2  UNL     1      45.785  19.918  53.184  1.00  0.00     0.236 C
HETATM   10  C1  UNL     1      45.463  18.490  53.453  1.00  0.00     0.035 C
ENDBRANCH   1   9
TORSDOF 1
ENDMDL