MODEL 4
REMARK VINA RESULT: -3.761006888      1.281      2.073
REMARK  1 active torsions:
REMARK  status: ('A' for Active; 'I' for Inactive)
REMARK    1  A    between atoms: C2_2  and  N1_3
ROOT
HETATM    1  N1  UNL     1      45.297  20.135  51.923  1.00  0.00    -0.032 N
HETATM    2  C3  UNL     1      45.799  21.376  51.414  1.00  0.00     0.267 C
HETATM    3  C4  UNL     1      44.593  22.073  50.849  1.00  0.00     0.262 C
HETATM    4  N2  UNL     1      43.622  21.019  50.573  1.00  0.00    -0.042 N
ATOM      5  H21 UNL     1      43.486  20.856  49.576  1.00  0.00     0.279 HD
ATOM      6  H22 UNL     1      42.665  21.292  50.796  1.00  0.00     0.279 HD
HETATM    7  C5  UNL     1      44.047  19.851  51.277  1.00  0.00     0.413 A
HETATM    8  C6  UNL     1      45.229  19.076  50.965  1.00  0.00     0.303 A
ENDROOT
BRANCH   1   9
HETATM    9  C2  UNL     1      45.355  19.811  53.314  1.00  0.00     0.236 C
HETATM   10  C1  UNL     1      45.432  18.346  53.596  1.00  0.00     0.035 C
ENDBRANCH   1   9
TORSDOF 1
ENDMDL