MODEL 5
REMARK VINA RESULT: -4.270192700      1.053      1.219
REMARK  1 active torsions:
REMARK  status: ('A' for Active; 'I' for Inactive)
REMARK    1  A    between atoms: C3_3  and  N1_4
ROOT
HETATM    1  C1  UNL     1      45.369  18.654  52.930  1.00  0.00     0.013 C
HETATM    2  C2  UNL     1      45.000  19.222  51.917  1.00  0.00    -0.088 C
HETATM    3  C3  UNL     1      44.560  19.878  50.694  1.00  0.00     0.353 C
ENDROOT
BRANCH   3   4
HETATM    4  N1  UNL     1      44.496  21.295  50.882  1.00  0.00     0.029 N
HETATM    5  C4  UNL     1      45.663  21.903  51.472  1.00  0.00     0.297 A
HETATM    6  C5  UNL     1      44.356  21.884  52.176  1.00  0.00     0.241 A
HETATM    7  C6  UNL     1      43.536  23.161  52.000  1.00  0.00     0.055 C
HETATM    8  C7  UNL     1      43.556  23.337  50.516  1.00  0.00     0.145 C
HETATM    9  N2  UNL     1      43.713  22.013  49.991  1.00  0.00    -0.045 NA
ENDBRANCH   3   4
TORSDOF 1
ENDMDL