MODEL 3
REMARK VINA RESULT: -3.617406832      1.041      1.897
REMARK  2 active torsions:
REMARK  status: ('A' for Active; 'I' for Inactive)
REMARK    1  A    between atoms: C5_6  and  N2_7
REMARK    2  A    between atoms: N2_7  and  C6_9
ROOT
HETATM    1  C1  UNL     1      44.435  22.396  52.980  1.00  0.00     0.274 C
HETATM    2  N1  UNL     1      44.841  21.779  51.728  1.00  0.00    -0.054 N
HETATM    3  C2  UNL     1      45.473  22.747  50.883  1.00  0.00     0.274 C
HETATM    4  C3  UNL     1      43.843  20.990  51.076  1.00  0.00     0.242 C
HETATM    5  C4  UNL     1      44.906  19.946  50.798  1.00  0.00     0.083 C
HETATM    6  C5  UNL     1      45.594  20.578  51.979  1.00  0.00     0.291 C
ENDROOT
BRANCH   6   7
HETATM    7  N2  UNL     1      45.198  19.887  53.198  1.00  0.00    -0.340 N
ATOM      8  H2  UNL     1      44.376  20.214  53.706  1.00  0.00     0.163 HD
BRANCH   7   9
HETATM    9  C6  UNL     1      45.916  18.774  53.702  1.00  0.00     0.350 C
HETATM   10  O1  UNL     1      45.441  17.617  53.505  1.00  0.00    -0.284 OA
ENDBRANCH   7   9
ENDBRANCH   6   7
TORSDOF 2
ENDMDL