MODEL 2
REMARK VINA RESULT: -3.882297476      2.452      3.865
REMARK  1 active torsions:
REMARK  status: ('A' for Active; 'I' for Inactive)
REMARK    1  A    between atoms: C3_3  and  S1_4
ROOT
HETATM    1  C1  UNL     1      45.420  17.960  54.029  1.00  0.00     0.012 C
HETATM    2  C2  UNL     1      45.778  18.970  53.471  1.00  0.00    -0.108 C
HETATM    3  C3  UNL     1      46.197  20.221  52.799  1.00  0.00     0.159 C
ENDROOT
BRANCH   3   4
HETATM    4  S1  UNL     1      44.745  20.958  52.110  1.00  0.00    -0.158 SA
HETATM    5  C4  UNL     1      44.066  20.111  50.723  1.00  0.00     0.299 C
HETATM    6  N1  UNL     1      43.735  21.430  50.160  1.00  0.00    -0.060 N
HETATM    7  C5  UNL     1      45.080  21.837  50.601  1.00  0.00     0.299 C
ATOM      8  H12 UNL     1      43.430  21.541  49.193  1.00  0.00     0.278 HD
ATOM      9  H11 UNL     1      42.899  21.941  50.444  1.00  0.00     0.278 HD
ENDBRANCH   3   4
TORSDOF 1
ENDMDL