MODEL 2
REMARK VINA RESULT: -3.454776048      1.181      1.538
REMARK  3 active torsions:
REMARK  status: ('A' for Active; 'I' for Inactive)
REMARK    1  A    between atoms: C2_2  and  C3_3
REMARK    2  A    between atoms: C4_4  and  C5_5
REMARK    3  A    between atoms: C5_5  and  N1_6
ROOT
HETATM    1  C3  UNL     1      45.267  22.379  50.949  1.00  0.00    -0.078 C
HETATM    2  C4  UNL     1      45.774  21.674  51.793  1.00  0.00    -0.072 C
ENDROOT
BRANCH   2   3
HETATM    3  C5  UNL     1      46.369  20.820  52.826  1.00  0.00     0.366 C
BRANCH   3   4
HETATM    4  N1  UNL     1      45.321  19.912  53.256  1.00  0.00     0.102 N
HETATM    5  C6  UNL     1      45.844  18.657  53.808  1.00  0.00     0.303 A
HETATM    6  C7  UNL     1      45.132  18.681  52.524  1.00  0.00     0.303 A
ENDBRANCH   3   4
ENDBRANCH   2   3
BRANCH   1   7
HETATM    7  C2  UNL     1      44.644  23.206  49.950  1.00  0.00     0.054 C
HETATM    8  C1  UNL     1      43.394  23.607  50.026  1.00  0.00     0.020 C
ENDBRANCH   1   7
TORSDOF 3
ENDMDL