MODEL 1
REMARK VINA RESULT: -5.253949805      0.000      0.000
REMARK  3 active torsions:
REMARK  status: ('A' for Active; 'I' for Inactive)
REMARK    1  A    between atoms: N1_2  and  C2_4
REMARK    2  A    between atoms: C2_4  and  N2_6
REMARK       I    between atoms: N3_9  and  C5_10
REMARK       I    between atoms: C5_10  and  N4_12
REMARK    3  A    between atoms: N4_12  and  N5_14
ROOT
HETATM    1  N2  UNL     1      43.726  -2.139  27.723  1.00  0.00    -0.338 N
HETATM    2  C3  UNL     1      43.927  -0.707  28.077  1.00  0.00     0.147 C
HETATM    3  C4  UNL     1      43.621  -0.353  29.468  1.00  0.00     0.147 C
HETATM    4  N3  UNL     1      42.547  -1.079  30.068  1.00  0.00    -0.328 N
HETATM    5  C5  UNL     1      42.108  -0.809  31.375  1.00  0.00     0.342 C
HETATM    6  O1  UNL     1      42.759   0.139  31.974  1.00  0.00    -0.245 OA
HETATM    7  N4  UNL     1      41.088  -1.432  32.059  1.00  0.00    -0.168 N
ATOM      8  H4  UNL     1      40.594  -2.170  31.558  1.00  0.00     0.198 HD
HETATM    9  C9  UNL     1      41.934  -2.111  29.282  1.00  0.00     0.169 C
HETATM   10  C10 UNL     1      43.166  -2.919  28.763  1.00  0.00     0.201 C
HETATM   11 CL1  UNL     1      42.748  -4.573  28.510  1.00  0.00    -0.101 Cl
ENDROOT
BRANCH   7  12
HETATM   12  N5  UNL     1      40.660  -1.176  33.335  1.00  0.00     0.004 N
HETATM   13  C6  UNL     1      40.201   0.163  33.535  1.00  0.00     0.301 C
HETATM   14  C7  UNL     1      41.701  -1.488  34.328  1.00  0.00     0.301 C
HETATM   15  C8  UNL     1      39.517  -2.035  33.696  1.00  0.00     0.301 C
ENDBRANCH   7  12
BRANCH   1  16
HETATM   16  C2  UNL     1      44.117  -2.522  26.444  1.00  0.00     0.170 C
HETATM   17  S1  UNL     1      44.143  -1.316  25.268  1.00  0.00    -0.041 SA
BRANCH  16  18
HETATM   18  N1  UNL     1      44.502  -3.805  26.012  1.00  0.00    -0.371 N
HETATM   19  C1  UNL     1      43.810  -4.397  24.850  1.00  0.00     0.148 C
ATOM     20  H1  UNL     1      45.244  -4.315  26.492  1.00  0.00     0.161 HD
ENDBRANCH  16  18
ENDBRANCH   1  16
TORSDOF 3
ENDMDL