MODEL 4
REMARK VINA RESULT: -5.006354381      2.637      3.277
REMARK  2 active torsions:
REMARK  status: ('A' for Active; 'I' for Inactive)
REMARK    1  A    between atoms: C2_2  and  C3_4
REMARK    2  A    between atoms: C6_12  and  C7_13
ROOT
HETATM    1  C3  UNL     1      43.033  -2.532  29.630  1.00  0.00     0.110 C
HETATM    2  C4  UNL     1      43.721  -3.848  29.840  1.00  0.00     0.049 C
HETATM    3  N1  UNL     1      43.564  -1.583  30.592  1.00  0.00    -0.326 N
ATOM      4  H1  UNL     1      44.562  -1.373  30.612  1.00  0.00     0.165 HD
HETATM    5  C5  UNL     1      42.675  -0.945  31.510  1.00  0.00     0.317 C
HETATM    6  O1  UNL     1      42.975   0.202  31.945  1.00  0.00    -0.247 OA
HETATM    7  N2  UNL     1      41.477  -1.579  31.934  1.00  0.00    -0.331 N
ATOM      8  H2  UNL     1      40.890  -1.175  32.664  1.00  0.00     0.165 HD
HETATM    9  C6  UNL     1      41.131  -2.811  31.288  1.00  0.00     0.162 C
HETATM   10  C14 UNL     1      41.578  -2.744  29.871  1.00  0.00     0.179 C
HETATM   11  O2  UNL     1      40.849  -2.847  28.909  1.00  0.00    -0.293 OA
ENDROOT
BRANCH   9  12
HETATM   12  C7  UNL     1      39.692  -3.203  31.448  1.00  0.00     0.019 C
HETATM   13  C8  UNL     1      38.939  -2.395  32.431  1.00  0.00     0.035 C
HETATM   14  C9  UNL     1      37.697  -3.034  32.952  1.00  0.00     0.237 C
HETATM   15  N3  UNL     1      37.970  -4.356  33.474  1.00  0.00    -0.075 N
HETATM   16  C10 UNL     1      36.731  -4.953  33.981  1.00  0.00     0.272 C
HETATM   17  C11 UNL     1      38.890  -4.350  34.585  1.00  0.00     0.272 C
HETATM   18  C12 UNL     1      38.415  -5.167  32.366  1.00  0.00     0.237 C
HETATM   19  C13 UNL     1      39.659  -4.686  31.700  1.00  0.00     0.035 C
ENDBRANCH   9  12
BRANCH   1  20
HETATM   20  C2  UNL     1      43.296  -1.955  28.258  1.00  0.00     0.113 C
HETATM   21  C1  UNL     1      44.243  -0.798  28.274  1.00  0.00     0.030 C
HETATM   22 CL1  UNL     1      43.795  -3.235  27.129  1.00  0.00    -0.122 Cl
ENDBRANCH   1  20
TORSDOF 2
ENDMDL