MODEL 4
REMARK VINA RESULT: -4.681309907      1.315      1.818
REMARK  3 active torsions:
REMARK  status: ('A' for Active; 'I' for Inactive)
REMARK    1  A    between atoms: N1_2  and  C2_3
REMARK    2  A    between atoms: C5_6  and  O1_7
REMARK    3  A    between atoms: C9_12  and  C10_13
ROOT
HETATM    1  C2  UNL     1      41.340  -1.511  30.406  1.00  0.00     0.197 C
HETATM    2  C3  UNL     1      41.197  -2.746  29.520  1.00  0.00     0.041 C
HETATM    3  C4  UNL     1      42.620  -3.276  29.389  1.00  0.00     0.021 C
HETATM    4  C5  UNL     1      43.079  -3.025  27.990  1.00  0.00     0.122 C
HETATM    5  C6  UNL     1      43.635  -1.629  27.981  1.00  0.00     0.032 C
HETATM    6  C7  UNL     1      44.024  -1.317  29.415  1.00  0.00     0.008 C
HETATM    7  C8  UNL     1      43.488  -2.405  30.276  1.00  0.00    -0.001 C
HETATM    8  C9  UNL     1      42.437  -1.923  31.287  1.00  0.00     0.031 C
ENDROOT
BRANCH   1   9
HETATM    9  N1  UNL     1      40.084  -1.210  30.955  1.00  0.00    -0.041 N
HETATM   10  C1  UNL     1      38.961  -1.861  30.274  1.00  0.00     0.275 C
HETATM   11  C11 UNL     1      39.848   0.231  30.736  1.00  0.00     0.267 C
HETATM   12  C12 UNL     1      39.076   0.687  31.957  1.00  0.00     0.262 C
HETATM   13  N2  UNL     1      39.733  -0.072  32.977  1.00  0.00    -0.049 N
HETATM   14  C13 UNL     1      39.913  -1.352  32.347  1.00  0.00     0.467 C
ATOM     15  H22 UNL     1      40.586   0.350  33.342  1.00  0.00     0.279 HD
ATOM     16  H21 UNL     1      39.244  -0.099  33.872  1.00  0.00     0.279 HD
ENDBRANCH   1   9
BRANCH   8  17
HETATM   17  C10 UNL     1      43.087  -0.908  32.139  1.00  0.00     0.092 C
HETATM   18 BR1  UNL     1      43.423  -1.724  33.883  1.00  0.00    -0.096 Br
ENDBRANCH   8  17
BRANCH   4  19
HETATM   19  O1  UNL     1      44.049  -3.946  27.569  1.00  0.00    -0.395 OA
ATOM     20  H1  UNL     1      44.846  -3.897  28.084  1.00  0.00     0.210 HD
ENDBRANCH   4  19
TORSDOF 3
ENDMDL