MODEL 2
REMARK VINA RESULT: -5.210314902      3.082      5.573
REMARK  2 active torsions:
REMARK  status: ('A' for Active; 'I' for Inactive)
REMARK    1  A    between atoms: O1_1  and  C1_3
REMARK    2  A    between atoms: C11_17  and  C12_18
ROOT
HETATM    1  C1  UNL     1      42.468  -2.144  32.182  1.00  0.00     0.154 C
HETATM    2  C2  UNL     1      41.697  -2.610  33.365  1.00  0.00     0.264 C
HETATM    3  N1  UNL     1      42.014  -3.963  33.767  1.00  0.00    -0.073 N
ATOM      4  H11 UNL     1      41.435  -4.266  34.550  1.00  0.00     0.277 HD
ATOM      5  H12 UNL     1      42.928  -4.015  34.218  1.00  0.00     0.277 HD
HETATM    6  C3  UNL     1      41.920  -4.883  32.647  1.00  0.00     0.233 C
HETATM    7  C4  UNL     1      42.940  -4.489  31.633  1.00  0.00     0.041 C
HETATM    8  C5  UNL     1      42.595  -3.146  31.071  1.00  0.00     0.015 C
HETATM    9  C6  UNL     1      41.351  -3.225  30.224  1.00  0.00     0.041 C
HETATM   10  C7  UNL     1      41.862  -3.202  28.796  1.00  0.00     0.239 C
HETATM   11  N2  UNL     1      43.141  -2.603  28.806  1.00  0.00    -0.061 N
HETATM   12  C8  UNL     1      42.952  -1.148  28.637  1.00  0.00     0.238 C
HETATM   13  C9  UNL     1      44.292  -0.669  28.092  1.00  0.00     0.030 C
HETATM   14  C10 UNL     1      44.580  -1.767  27.097  1.00  0.00     0.036 C
HETATM   15  C11 UNL     1      44.092  -2.987  27.844  1.00  0.00     0.200 C
HETATM   16  C13 UNL     1      43.693  -2.735  30.140  1.00  0.00     0.250 C
ENDROOT
BRANCH   1  17
HETATM   17  O1  UNL     1      43.738  -1.661  32.525  1.00  0.00    -0.393 OA
ATOM     18  H1  UNL     1      44.218  -1.335  31.773  1.00  0.00     0.210 HD
ENDBRANCH   1  17
BRANCH  15  19
HETATM   19  C12 UNL     1      43.682  -4.037  26.852  1.00  0.00     0.118 C
HETATM   20 BR1  UNL     1      44.039  -3.516  25.023  1.00  0.00    -0.094 Br
ENDBRANCH  15  19
TORSDOF 2
ENDMDL