MODEL 3
REMARK VINA RESULT: -6.250587101      1.097      1.195
REMARK  2 active torsions:
REMARK  status: ('A' for Active; 'I' for Inactive)
REMARK       I    between atoms: N2_9  and  C6_10
REMARK       I    between atoms: C6_10  and  N3_12
REMARK    1  A    between atoms: N3_12  and  C7_14
REMARK    2  A    between atoms: C7_14  and  N4_16
ROOT
HETATM    1  C1  UNL     1      44.167  -4.112  28.490  1.00  0.00     0.042 C
HETATM    2  C2  UNL     1      43.326  -3.165  27.669  1.00  0.00     0.176 C
HETATM    3  C3  UNL     1      43.538  -3.541  26.232  1.00  0.00     0.240 C
HETATM    4  O1  UNL     1      43.422  -4.749  25.917  1.00  0.00    -0.271 OA
HETATM    5  N1  UNL     1      43.861  -2.570  25.250  1.00  0.00    -0.358 N
ATOM      6  H1  UNL     1      43.786  -2.815  24.262  1.00  0.00     0.162 HD
HETATM    7  C4  UNL     1      44.299  -1.224  25.622  1.00  0.00     0.142 C
HETATM    8  C5  UNL     1      44.917  -1.400  27.016  1.00  0.00     0.148 C
HETATM    9  N2  UNL     1      43.845  -1.833  27.881  1.00  0.00    -0.320 N
HETATM   10  C6  UNL     1      43.308  -1.015  28.897  1.00  0.00     0.320 C
HETATM   11  O2  UNL     1      43.795   0.135  29.035  1.00  0.00    -0.247 OA
HETATM   12  N3  UNL     1      42.260  -1.391  29.775  1.00  0.00    -0.315 N
ATOM     13  H3  UNL     1      41.864  -2.324  29.665  1.00  0.00     0.166 HD
ENDROOT
BRANCH  12  14
HETATM   14  C7  UNL     1      41.720  -0.563  30.800  1.00  0.00     0.291 C
HETATM   15  C8  UNL     1      42.661  -0.580  32.003  1.00  0.00     0.064 C
BRANCH  14  16
HETATM   16  N4  UNL     1      40.400  -0.878  31.232  1.00  0.00    -0.020 N
HETATM   17  C9  UNL     1      40.534  -1.772  32.388  1.00  0.00     0.278 C
HETATM   18  C10 UNL     1      39.600  -1.575  30.257  1.00  0.00     0.243 C
HETATM   19  C11 UNL     1      38.378  -2.137  30.951  1.00  0.00     0.028 C
HETATM   20  C12 UNL     1      37.526  -0.961  31.373  1.00  0.00     0.006 C
HETATM   21  C13 UNL     1      38.316   0.017  32.179  1.00  0.00     0.067 C
HETATM   22  C14 UNL     1      39.688   0.295  31.641  1.00  0.00     0.374 C
HETATM   23  F1  UNL     1      39.505   1.124  30.527  1.00  0.00    -0.218 F
ENDBRANCH  14  16
ENDBRANCH  12  14
TORSDOF 2
ENDMDL