MODEL 1
REMARK VINA RESULT: -5.994543281      0.000      0.000
REMARK  3 active torsions:
REMARK  status: ('A' for Active; 'I' for Inactive)
REMARK    1  A    between atoms: C3_3  and  C4_4
REMARK       I    between atoms: C4_4  and  N1_6
REMARK    2  A    between atoms: C10_13  and  C11_14
REMARK    3  A    between atoms: C11_14  and  N3_18
ROOT
HETATM    1  C1  UNL     1      38.383   1.187  32.057  1.00  0.00     0.112 C
HETATM    2  C2  UNL     1      39.687   0.524  31.903  1.00  0.00    -0.101 C
HETATM    3  C3  UNL     1      40.761  -0.022  31.795  1.00  0.00    -0.006 C
ENDROOT
BRANCH   3   4
HETATM    4  C4  UNL     1      42.040  -0.672  31.693  1.00  0.00     0.299 C
HETATM    5  O1  UNL     1      42.834  -0.509  32.656  1.00  0.00    -0.258 OA
HETATM    6  N1  UNL     1      42.366  -1.455  30.553  1.00  0.00    -0.330 N
HETATM    7  C5  UNL     1      43.545  -2.209  30.177  1.00  0.00     0.103 C
HETATM    8  C9  UNL     1      41.778  -1.877  29.300  1.00  0.00     0.103 C
HETATM    9  C6  UNL     1      43.328  -3.605  30.727  1.00  0.00     0.042 C
HETATM   10  C10 UNL     1      43.145  -2.124  28.722  1.00  0.00     0.098 C
HETATM   11  C7  UNL     1      41.892  -4.017  30.557  1.00  0.00     0.061 C
HETATM   12 BR1  UNL     1      41.899  -5.905  30.060  1.00  0.00    -0.091 Br
HETATM   13  C8  UNL     1      41.151  -3.269  29.487  1.00  0.00     0.042 C
BRANCH  10  14
HETATM   14  C11 UNL     1      43.761  -1.073  27.933  1.00  0.00     0.078 C
HETATM   15  N2  UNL     1      43.956   0.077  28.463  1.00  0.00    -0.389 N
ATOM     16  H22 UNL     1      43.662   0.202  29.432  1.00  0.00     0.157 HD
ATOM     17  H21 UNL     1      44.389   0.815  27.908  1.00  0.00     0.157 HD
BRANCH  14  18
HETATM   18  N3  UNL     1      44.169  -1.247  26.586  1.00  0.00    -0.384 N
HETATM   19  C12 UNL     1      44.184  -2.562  25.947  1.00  0.00     0.147 C
ATOM     20  H3  UNL     1      44.459  -0.431  26.047  1.00  0.00     0.160 HD
ENDBRANCH  14  18
ENDBRANCH  10  14
ENDBRANCH   3   4
TORSDOF 3
ENDMDL