MODEL 2
REMARK VINA RESULT: -5.655478565      1.866      1.879
REMARK  5 active torsions:
REMARK  status: ('A' for Active; 'I' for Inactive)
REMARK    1  A    between atoms: C3_3  and  C4_4
REMARK    2  A    between atoms: C5_5  and  C6_6
REMARK    3  A    between atoms: C6_6  and  O1_7
REMARK    4  A    between atoms: C12_15  and  N1_16
REMARK    5  A    between atoms: N1_16  and  C13_18
ROOT
HETATM    1  C1  UNL     1      47.913   0.562  36.950  1.00  0.00     0.113 C
HETATM    2  C2  UNL     1      46.889   0.152  35.984  1.00  0.00    -0.097 C
HETATM    3  C3  UNL     1      46.044  -0.204  35.196  1.00  0.00    -0.015 C
ENDROOT
BRANCH   3   4
HETATM    4  C4  UNL     1      45.036  -0.627  34.292  1.00  0.00    -0.011 C
HETATM    5  C5  UNL     1      44.183  -1.008  33.523  1.00  0.00    -0.046 C
BRANCH   5   6
HETATM    6  C6  UNL     1      43.118  -1.491  32.595  1.00  0.00     0.185 C
HETATM    7  C7  UNL     1      42.938  -2.930  32.894  1.00  0.00     0.103 C
HETATM    8  C8  UNL     1      41.951  -3.720  32.180  1.00  0.00     0.112 C
HETATM    9  F1  UNL     1      41.521  -4.795  32.990  1.00  0.00    -0.242 F
HETATM   10  C9  UNL     1      40.759  -3.113  31.549  1.00  0.00     0.049 C
HETATM   11  C17 UNL     1      42.350  -4.293  30.852  1.00  0.00     0.032 C
HETATM   12  C10 UNL     1      41.050  -3.843  30.240  1.00  0.00    -0.002 C
HETATM   13  C11 UNL     1      41.393  -2.912  29.097  1.00  0.00     0.036 C
HETATM   14  C12 UNL     1      42.854  -2.562  29.237  1.00  0.00     0.040 C
HETATM   15  C14 UNL     1      42.923  -1.157  29.844  1.00  0.00     0.113 C
HETATM   16  C16 UNL     1      43.454  -3.585  30.149  1.00  0.00     0.039 C
HETATM   17  C15 UNL     1      43.496  -1.174  31.197  1.00  0.00     0.176 C
HETATM   18  O3  UNL     1      44.679  -0.799  31.141  1.00  0.00    -0.293 OA
BRANCH   6  19
HETATM   19  O1  UNL     1      41.982  -0.743  32.994  1.00  0.00    -0.370 OA
ATOM     20  H1  UNL     1      41.685  -1.201  33.771  1.00  0.00     0.212 HD
ENDBRANCH   6  19
BRANCH  14  21
HETATM   21  N1  UNL     1      43.454  -2.574  27.919  1.00  0.00    -0.359 N
ATOM     22  H1  UNL     1      43.286  -3.394  27.337  1.00  0.00     0.162 HD
BRANCH  21  23
HETATM   23  C13 UNL     1      44.242  -1.555  27.377  1.00  0.00     0.349 C
HETATM   24  O2  UNL     1      45.229  -1.805  26.639  1.00  0.00    -0.284 OA
ENDBRANCH  21  23
ENDBRANCH  14  21
ENDBRANCH   5   6
ENDBRANCH   3   4
TORSDOF 5
ENDMDL