MODEL 5
REMARK VINA RESULT: -4.772127117      2.136      3.573
REMARK  0 active torsions:
REMARK  status: ('A' for Active; 'I' for Inactive)
REMARK       I    between atoms: N1_2  and  C2_4
REMARK       I    between atoms: C2_4  and  N4_9
ROOT
HETATM    1  C1  UNL     1      42.948  -1.608  35.060  1.00  0.00     0.149 C
HETATM    2  N1  UNL     1      43.164  -2.377  33.881  1.00  0.00    -0.360 N
ATOM      3  H1  UNL     1      43.352  -3.372  34.010  1.00  0.00     0.162 HD
HETATM    4  C2  UNL     1      43.145  -1.901  32.549  1.00  0.00     0.290 C
HETATM    5  N2  UNL     1      43.906  -0.910  32.257  1.00  0.00    -0.259 N
ATOM      6  H2  UNL     1      43.880  -0.577  31.293  1.00  0.00     0.181 HD
HETATM    7  C3  UNL     1      44.753  -0.254  33.120  1.00  0.00     0.184 C
HETATM    8  N3  UNL     1      45.477   0.301  33.832  1.00  0.00    -0.172 NA
HETATM    9  N4  UNL     1      42.328  -2.467  31.535  1.00  0.00     0.009 N
HETATM   10  C4  UNL     1      42.858  -3.827  31.345  1.00  0.00     0.285 C
HETATM   11  C5  UNL     1      42.332  -1.705  30.318  1.00  0.00     0.276 C
HETATM   12 BR1  UNL     1      43.321  -2.528  28.893  1.00  0.00    -0.059 Br
HETATM   13  C6  UNL     1      40.858  -1.517  29.929  1.00  0.00     0.038 C
HETATM   14  C7  UNL     1      40.334  -2.881  29.603  1.00  0.00     0.010 C
HETATM   15  C8  UNL     1      40.301  -3.578  30.968  1.00  0.00     0.035 C
HETATM   16  C9  UNL     1      40.936  -2.555  31.916  1.00  0.00     0.209 C
HETATM   17  C10 UNL     1      40.268  -1.301  31.323  1.00  0.00    -0.012 C
HETATM   18  C11 UNL     1      38.787  -1.433  31.360  1.00  0.00     0.017 C
HETATM   19  C12 UNL     1      40.689  -0.039  31.964  1.00  0.00     0.017 C
ENDROOT
TORSDOF 0
ENDMDL