MODEL 5
REMARK VINA RESULT: -5.403545476      2.088      2.705
REMARK  1 active torsions:
REMARK  status: ('A' for Active; 'I' for Inactive)
REMARK       I    between atoms: C1_2  and  N1_3
REMARK       I    between atoms: C1_2  and  N2_9
REMARK    1  A    between atoms: N1_3  and  C2_5
ROOT
HETATM    1  O1  UNL     1      43.112  -0.998  31.681  1.00  0.00    -0.247 OA
HETATM    2  C1  UNL     1      42.099  -0.689  31.013  1.00  0.00     0.319 C
HETATM    3  N1  UNL     1      42.142  -0.869  29.620  1.00  0.00    -0.337 N
ATOM      4  H1  UNL     1      41.319  -0.619  29.070  1.00  0.00     0.164 HD
HETATM    5  N2  UNL     1      40.965  -0.180  31.644  1.00  0.00    -0.328 N
HETATM    6  C5  UNL     1      41.109  -0.062  33.102  1.00  0.00     0.152 C
HETATM    7  C6  UNL     1      39.844  -0.652  33.687  1.00  0.00     0.095 C
HETATM    8  C7  UNL     1      39.453  -1.836  32.858  1.00  0.00     0.031 C
HETATM    9  C8  UNL     1      38.394  -1.582  31.849  1.00  0.00    -0.009 C
HETATM   10  C9  UNL     1      37.337  -0.588  32.306  1.00  0.00     0.029 C
HETATM   11  C10 UNL     1      38.094   0.666  32.688  1.00  0.00     0.079 C
HETATM   12  C11 UNL     1      38.944   1.206  31.592  1.00  0.00     0.050 C
HETATM   13  C12 UNL     1      39.807   0.175  30.892  1.00  0.00     0.091 C
HETATM   14  C13 UNL     1      38.952  -1.001  30.546  1.00  0.00     0.030 C
HETATM   15  N3  UNL     1      38.891   0.364  33.810  1.00  0.00    -0.411 N
ATOM     16  H3  UNL     1      38.776   0.873  34.687  1.00  0.00     0.154 HD
ENDROOT
BRANCH   3  17
HETATM   17  C2  UNL     1      43.309  -1.398  28.927  1.00  0.00     0.101 A
HETATM   18  C3  UNL     1      44.217  -0.302  28.388  1.00  0.00     0.044 A
HETATM   19  C4  UNL     1      43.481  -1.219  27.482  1.00  0.00     0.082 A
HETATM   20 BR1  UNL     1      44.585  -2.551  26.600  1.00  0.00    -0.089 Br
ENDBRANCH   3  17
TORSDOF 1
ENDMDL