MODEL 3
REMARK VINA RESULT: -4.839134711      1.483      2.438
REMARK  1 active torsions:
REMARK  status: ('A' for Active; 'I' for Inactive)
REMARK    1  A    between atoms: N1_2  and  C2_3
ROOT
HETATM    1  C1  UNL     1      45.434  22.462  51.011  1.00  0.00     0.275 C
HETATM    2  N1  UNL     1      45.800  22.319  52.433  1.00  0.00    -0.039 N
HETATM    3  C6  UNL     1      45.053  23.307  53.148  1.00  0.00     0.267 C
HETATM    4  C7  UNL     1      45.459  24.698  52.801  1.00  0.00     0.260 C
HETATM    5  N3  UNL     1      46.878  24.925  52.836  1.00  0.00    -0.072 N
ATOM      6  H31 UNL     1      47.101  25.697  53.464  1.00  0.00     0.277 HD
ATOM      7  H32 UNL     1      47.199  25.322  51.954  1.00  0.00     0.277 HD
HETATM    8  C8  UNL     1      47.644  23.773  53.171  1.00  0.00     0.260 C
HETATM    9  C9  UNL     1      47.228  22.513  52.496  1.00  0.00     0.267 C
ENDROOT
BRANCH   2  10
HETATM   10  C2  UNL     1      45.495  20.985  52.791  1.00  0.00     0.387 C
HETATM   11  C3  UNL     1      45.109  20.069  51.694  1.00  0.00     0.065 C
HETATM   12  C4  UNL     1      45.302  18.693  52.348  1.00  0.00     0.031 C
HETATM   13  C5  UNL     1      45.854  19.006  53.736  1.00  0.00     0.235 C
HETATM   14  N2  UNL     1      46.554  20.273  53.459  1.00  0.00    -0.046 N
ATOM     15  H22 UNL     1      47.435  20.198  52.950  1.00  0.00     0.279 HD
ATOM     16  H21 UNL     1      46.971  20.741  54.265  1.00  0.00     0.279 HD
ENDBRANCH   2  10
TORSDOF 1
ENDMDL