MODEL 4
REMARK VINA RESULT: -4.544302846      1.655      2.698
REMARK  2 active torsions:
REMARK  status: ('A' for Active; 'I' for Inactive)
REMARK    1  A    between atoms: C2_2  and  O1_3
REMARK    2  A    between atoms: C2_2  and  C3_5
ROOT
HETATM    1  C3  UNL     1      44.190  21.285  51.501  1.00  0.00     0.046 C
HETATM    2  C4  UNL     1      43.974  22.615  50.808  1.00  0.00     0.244 C
HETATM    3  N1  UNL     1      44.490  23.630  51.718  1.00  0.00    -0.070 N
HETATM    4  C5  UNL     1      43.620  24.781  51.689  1.00  0.00     0.272 C
HETATM    5  C6  UNL     1      45.812  23.951  51.287  1.00  0.00     0.237 C
HETATM    6  C7  UNL     1      46.856  23.269  52.132  1.00  0.00     0.028 C
HETATM    7  C8  UNL     1      46.485  21.829  52.452  1.00  0.00     0.008 C
HETATM    8  C9  UNL     1      45.046  21.603  52.639  1.00  0.00     0.020 C
HETATM    9  C10 UNL     1      44.469  22.980  53.031  1.00  0.00     0.242 C
ENDROOT
BRANCH   1  10
HETATM   10  C2  UNL     1      44.556  20.190  50.582  1.00  0.00     0.120 C
HETATM   11  C1  UNL     1      45.232  19.037  51.294  1.00  0.00     0.040 C
BRANCH  10  12
HETATM   12  O1  UNL     1      45.367  20.530  49.521  1.00  0.00    -0.396 OA
ATOM     13  H1  UNL     1      46.262  20.366  49.799  1.00  0.00     0.210 HD
ENDBRANCH  10  12
ENDBRANCH   1  10
TORSDOF 2
ENDMDL