MODEL 2
REMARK VINA RESULT: -5.444987172      2.717      4.395
REMARK  3 active torsions:
REMARK  status: ('A' for Active; 'I' for Inactive)
REMARK    1  A    between atoms: C8_8  and  O1_9
REMARK    2  A    between atoms: C8_8  and  C9_11
REMARK    3  A    between atoms: C10_12  and  C11_13
ROOT
HETATM    1  C1  UNL     1      44.638  23.214  51.400  1.00  0.00     0.018 C
HETATM    2  C2  UNL     1      45.578  22.098  51.342  1.00  0.00     0.051 C
HETATM    3  C3  UNL     1      45.157  20.796  51.075  1.00  0.00    -0.022 C
HETATM    4  C4  UNL     1      44.984  19.818  51.215  1.00  0.00    -0.030 C
HETATM    5  C5  UNL     1      44.964  18.583  51.856  1.00  0.00     0.027 C
HETATM    6  C6  UNL     1      45.614  19.178  53.273  1.00  0.00     0.008 C
HETATM    7  C7  UNL     1      46.460  20.371  52.929  1.00  0.00     0.052 C
HETATM    8  C8  UNL     1      45.980  21.767  52.933  1.00  0.00     0.128 C
ENDROOT
BRANCH   8   9
HETATM    9  O1  UNL     1      44.870  22.065  53.655  1.00  0.00    -0.377 OA
ATOM     10  H1  UNL     1      44.943  21.555  54.453  1.00  0.00     0.211 HD
ENDBRANCH   8   9
BRANCH   8  11
HETATM   11  C9  UNL     1      47.055  22.681  53.258  1.00  0.00    -0.062 C
HETATM   12  C10 UNL     1      47.946  23.459  53.517  1.00  0.00    -0.059 C
BRANCH  12  13
HETATM   13  C11 UNL     1      49.004  24.398  53.807  1.00  0.00     0.146 C
HETATM   14  N1  UNL     1      50.156  24.347  53.236  1.00  0.00    -0.401 N
ATOM     15  H12 UNL     1      50.312  23.605  52.553  1.00  0.00     0.156 HD
ATOM     16  H11 UNL     1      50.904  25.010  53.440  1.00  0.00     0.156 HD
ENDBRANCH  12  13
ENDBRANCH   8  11
TORSDOF 3
ENDMDL