MODEL 2
REMARK VINA RESULT: -4.431687625      1.122      2.871
REMARK  2 active torsions:
REMARK  status: ('A' for Active; 'I' for Inactive)
REMARK    1  A    between atoms: C6_9  and  N3_10
REMARK    2  A    between atoms: N3_10  and  N4_12
ROOT
HETATM    1  C1  UNL     1      45.309  21.454  50.705  1.00  0.00     0.272 C
HETATM    2  N1  UNL     1      44.953  22.495  51.602  1.00  0.00    -0.071 N
HETATM    3  C2  UNL     1      43.677  23.041  51.086  1.00  0.00     0.272 C
HETATM    4  C3  UNL     1      45.849  23.610  51.640  1.00  0.00     0.256 C
HETATM    5  C4  UNL     1      47.235  23.317  52.084  1.00  0.00     0.146 C
HETATM    6  N2  UNL     1      47.460  23.349  53.477  1.00  0.00    -0.398 N
ATOM      7  H2  UNL     1      48.157  23.985  53.866  1.00  0.00     0.158 HD
HETATM    8  C5  UNL     1      46.733  22.517  54.317  1.00  0.00     0.084 C
HETATM    9  C6  UNL     1      45.792  21.538  53.725  1.00  0.00     0.164 C
HETATM   10  C7  UNL     1      44.675  22.088  52.942  1.00  0.00     0.268 C
ENDROOT
BRANCH   9  11
HETATM   11  N3  UNL     1      46.502  20.475  53.002  1.00  0.00    -0.311 N
ATOM     12  H3  UNL     1      46.836  20.636  52.052  1.00  0.00     0.182 HD
BRANCH  11  13
HETATM   13  N4  UNL     1      46.689  19.394  53.549  1.00  0.00    -0.253 N
HETATM   14  N5  UNL     1      46.967  18.648  54.513  1.00  0.00    -0.331 N
ATOM     15  H52 UNL     1      47.121  19.345  55.240  1.00  0.00     0.178 HD
ATOM     16  H51 UNL     1      47.123  17.748  54.969  1.00  0.00     0.178 HD
ATOM     17  H4  UNL     1      46.527  18.730  52.792  1.00  0.00     0.207 HD
ENDBRANCH  11  13
ENDBRANCH   9  11
TORSDOF 2
ENDMDL