MODEL 5
REMARK VINA RESULT: -3.708238815      2.354      4.140
REMARK  2 active torsions:
REMARK  status: ('A' for Active; 'I' for Inactive)
REMARK    1  A    between atoms: N1_2  and  C4_5
REMARK    2  A    between atoms: C9_13  and  O1_14
ROOT
HETATM    1  C4  UNL     1      43.626  23.014  51.441  1.00  0.00     0.248 C
HETATM    2  C5  UNL     1      43.171  24.257  52.221  1.00  0.00     0.220 C
HETATM    3  C6  UNL     1      41.713  24.242  51.694  1.00  0.00     0.044 C
HETATM    4  C7  UNL     1      42.158  24.428  50.233  1.00  0.00     0.044 C
HETATM    5  C8  UNL     1      42.957  25.698  50.405  1.00  0.00     0.240 C
HETATM    6  N2  UNL     1      43.636  25.471  51.659  1.00  0.00    -0.068 N
ATOM      7  H21 UNL     1      44.652  25.490  51.560  1.00  0.00     0.277 HD
ATOM      8  H22 UNL     1      43.542  26.258  52.301  1.00  0.00     0.277 HD
HETATM    9  C9  UNL     1      43.195  23.315  50.070  1.00  0.00     0.157 C
ENDROOT
BRANCH   1  10
HETATM   10  N1  UNL     1      44.916  22.587  51.705  1.00  0.00    -0.070 N
HETATM   11  C1  UNL     1      45.162  21.325  50.973  1.00  0.00     0.272 C
HETATM   12  C2  UNL     1      45.105  22.195  53.114  1.00  0.00     0.272 C
HETATM   13  C3  UNL     1      46.020  23.432  51.373  1.00  0.00     0.272 C
ENDBRANCH   1  10
BRANCH   9  14
HETATM   14  O1  UNL     1      44.124  23.783  49.192  1.00  0.00    -0.393 OA
ATOM     15  H1  UNL     1      43.818  24.221  48.406  1.00  0.00     0.210 HD
ENDBRANCH   9  14
TORSDOF 2
ENDMDL