MODEL 2
REMARK VINA RESULT: -4.367776904      0.079      1.177
REMARK  1 active torsions:
REMARK  status: ('A' for Active; 'I' for Inactive)
REMARK    1  A    between atoms: C5_7  and  N2_8
ROOT
HETATM    1  C1  UNL     1      46.958  22.812  52.456  1.00  0.00     0.048 C
HETATM    2  C2  UNL     1      45.729  21.909  52.350  1.00  0.00     0.134 C
HETATM    3  C3  UNL     1      46.196  20.527  52.792  1.00  0.00     0.048 C
HETATM    4  C4  UNL     1      45.182  21.898  50.960  1.00  0.00     0.153 C
HETATM    5  N1  UNL     1      43.771  22.081  50.868  1.00  0.00    -0.391 N
ATOM      6  H1  UNL     1      43.175  21.464  50.316  1.00  0.00     0.155 HD
HETATM    7  C5  UNL     1      43.252  23.188  51.604  1.00  0.00     0.309 C
HETATM    8  C9  UNL     1      44.070  23.567  52.805  1.00  0.00     0.287 C
HETATM    9  N3  UNL     1      44.737  22.371  53.276  1.00  0.00    -0.062 N
ATOM     10  H31 UNL     1      45.135  22.511  54.205  1.00  0.00     0.278 HD
ATOM     11  H32 UNL     1      44.066  21.636  53.497  1.00  0.00     0.278 HD
ENDROOT
BRANCH   7  12
HETATM   12  N2  UNL     1      42.992  24.288  50.713  1.00  0.00    -0.057 N
HETATM   13  C6  UNL     1      43.541  25.488  51.361  1.00  0.00     0.274 C
HETATM   14  C7  UNL     1      41.598  24.537  50.495  1.00  0.00     0.274 C
HETATM   15  C8  UNL     1      43.642  24.173  49.440  1.00  0.00     0.274 C
ENDBRANCH   7  12
TORSDOF 1
ENDMDL