MODEL 5
REMARK VINA RESULT: -4.639927181      1.972      2.633
REMARK  1 active torsions:
REMARK  status: ('A' for Active; 'I' for Inactive)
REMARK    1  A    between atoms: N1_3  and  C3_5
ROOT
HETATM    1  C1  UNL     1      45.872  18.778  53.328  1.00  0.00     0.037 C
HETATM    2  C2  UNL     1      45.914  19.959  53.593  1.00  0.00    -0.005 C
HETATM    3  N1  UNL     1      45.986  21.326  53.894  1.00  0.00    -0.345 N
ATOM      4  H1  UNL     1      45.692  21.671  54.808  1.00  0.00     0.170 HD
ENDROOT
BRANCH   3   5
HETATM    5  C3  UNL     1      46.481  22.233  52.898  1.00  0.00     0.104 C
HETATM    6  C4  UNL     1      46.605  23.644  53.364  1.00  0.00     0.048 C
HETATM    7  C5  UNL     1      45.392  24.146  54.100  1.00  0.00     0.062 C
HETATM    8  C9  UNL     1      46.667  24.414  52.060  1.00  0.00     0.017 C
HETATM    9  N2  UNL     1      44.208  23.468  53.867  1.00  0.00    -0.396 N
HETATM   10  C6  UNL     1      43.676  23.302  52.603  1.00  0.00     0.090 A
ATOM     11  H2  UNL     1      43.707  23.074  54.662  1.00  0.00     0.159 HD
HETATM   12  C7  UNL     1      44.305  23.817  51.429  1.00  0.00     0.019 A
HETATM   13  C11 UNL     1      44.256  22.277  51.723  1.00  0.00     0.021 A
HETATM   14  C8  UNL     1      45.734  23.659  51.189  1.00  0.00    -0.001 C
HETATM   15  C10 UNL     1      45.721  22.222  51.623  1.00  0.00     0.021 C
ENDBRANCH   3   5
TORSDOF 1
ENDMDL