MODEL 1
REMARK VINA RESULT: -4.210729511      0.000      0.000
REMARK  1 active torsions:
REMARK  status: ('A' for Active; 'I' for Inactive)
REMARK    1  A    between atoms: C2_2  and  N1_3
ROOT
HETATM    1  N1  UNL     1      43.948  23.831  51.405  1.00  0.00    -0.009 N
HETATM    2  C3  UNL     1      43.870  23.166  52.666  1.00  0.00     0.250 C
HETATM    3  C4  UNL     1      45.082  22.511  53.168  1.00  0.00     0.055 C
HETATM    4  C5  UNL     1      46.061  22.336  52.031  1.00  0.00     0.098 C
HETATM    5  C6  UNL     1      45.416  21.322  51.081  1.00  0.00     0.145 C
HETATM    6  N2  UNL     1      44.849  22.046  50.036  1.00  0.00    -0.378 N
ATOM      7  H2  UNL     1      45.206  21.945  49.086  1.00  0.00     0.160 HD
HETATM    8  C7  UNL     1      43.776  22.917  50.304  1.00  0.00     0.292 C
HETATM    9  N3  UNL     1      46.318  23.551  51.338  1.00  0.00    -0.385 N
ATOM     10  H3  UNL     1      47.224  23.752  50.914  1.00  0.00     0.156 HD
HETATM   11  C8  UNL     1      45.230  24.473  51.274  1.00  0.00     0.197 C
HETATM   12  C9  UNL     1      45.498  25.532  52.300  1.00  0.00     0.071 C
HETATM   13  C10 UNL     1      45.362  25.167  49.917  1.00  0.00     0.071 C
ENDROOT
BRANCH   1  14
HETATM   14  C2  UNL     1      42.853  24.770  51.375  1.00  0.00     0.243 C
HETATM   15  C1  UNL     1      41.653  24.330  50.605  1.00  0.00     0.035 C
ENDBRANCH   1  14
TORSDOF 1
ENDMDL