MODEL 4
REMARK VINA RESULT: -4.847723635      1.493      2.047
REMARK  4 active torsions:
REMARK  status: ('A' for Active; 'I' for Inactive)
REMARK    1  A    between atoms: C4_6  and  C5_7
REMARK    2  A    between atoms: C6_8  and  C7_9
REMARK    3  A    between atoms: C7_9  and  C8_10
REMARK    4  A    between atoms: C8_10  and  O2_11
ROOT
HETATM    1  O1  UNL     1      42.995  25.082  51.677  1.00  0.00    -0.062 OA
HETATM    2  N1  UNL     1      44.130  24.424  51.409  1.00  0.00     0.045 N
HETATM    3  C1  UNL     1      44.476  24.359  49.985  1.00  0.00     0.317 C
HETATM    4  C2  UNL     1      44.965  22.944  50.247  1.00  0.00     0.082 C
HETATM    5  C3  UNL     1      43.977  22.961  51.370  1.00  0.00     0.301 C
HETATM    6  C4  UNL     1      44.519  22.587  52.732  1.00  0.00     0.306 C
HETATM    7  N2  UNL     1      45.655  23.441  52.867  1.00  0.00    -0.026 N
ATOM      8  H21 UNL     1      46.512  23.063  52.466  1.00  0.00     0.281 HD
ATOM      9  H22 UNL     1      46.005  23.523  53.821  1.00  0.00     0.281 HD
HETATM   10  C9  UNL     1      45.230  24.691  52.283  1.00  0.00     0.544 C
ENDROOT
BRANCH   6  11
HETATM   11  C5  UNL     1      44.939  21.197  52.807  1.00  0.00    -0.070 C
HETATM   12  C6  UNL     1      45.267  20.036  52.867  1.00  0.00    -0.102 C
BRANCH  12  13
HETATM   13  C7  UNL     1      45.641  18.624  52.944  1.00  0.00     0.119 C
BRANCH  13  14
HETATM   14  C8  UNL     1      45.827  18.202  54.408  1.00  0.00     0.176 C
BRANCH  14  15
HETATM   15  O2  UNL     1      47.144  18.580  54.756  1.00  0.00    -0.400 OA
ATOM     16  H2  UNL     1      47.121  18.777  55.685  1.00  0.00     0.209 HD
ENDBRANCH  14  15
ENDBRANCH  13  14
ENDBRANCH  12  13
ENDBRANCH   6  11
TORSDOF 4
ENDMDL