MODEL 2
REMARK VINA RESULT: -4.987434415      3.615      4.542
REMARK  0 active torsions:
REMARK  status: ('A' for Active; 'I' for Inactive)
ROOT
HETATM    1  C1  UNL     1      46.036  23.989  53.135  1.00  0.00     0.012 C
HETATM    2  C2  UNL     1      45.293  23.090  52.161  1.00  0.00     0.013 A
HETATM    3  C3  UNL     1      43.934  22.594  52.493  1.00  0.00     0.038 A
HETATM    4  C4  UNL     1      45.105  21.621  52.564  1.00  0.00     0.047 A
HETATM    5  C5  UNL     1      45.546  21.259  53.915  1.00  0.00     0.052 C
HETATM    6  C6  UNL     1      46.010  19.881  54.147  1.00  0.00     0.136 C
HETATM    7  N1  UNL     1      45.250  18.840  53.553  1.00  0.00    -0.303 N
ATOM      8  H1  UNL     1      44.969  18.003  54.063  1.00  0.00     0.173 HD
HETATM    9  S1  UNL     1      44.844  19.100  51.915  1.00  0.00     0.315 S
HETATM   10  O1  UNL     1      43.423  18.817  51.611  1.00  0.00    -0.183 OA
HETATM   11  O2  UNL     1      45.692  18.162  51.074  1.00  0.00    -0.183 OA
HETATM   12  N2  UNL     1      45.331  20.697  51.524  1.00  0.00    -0.292 N
ATOM     13  H2  UNL     1      45.743  20.954  50.627  1.00  0.00     0.174 HD
ENDROOT
TORSDOF 0
ENDMDL