MODEL 1
REMARK VINA RESULT: -4.791740843      0.000      0.000
REMARK  3 active torsions:
REMARK  status: ('A' for Active; 'I' for Inactive)
REMARK    1  A    between atoms: O1_1  and  C1_3
REMARK    2  A    between atoms: C1_3  and  C2_4
REMARK    3  A    between atoms: C9_12  and  O2_13
ROOT
HETATM    1  C2  UNL     1      45.520  19.233  52.369  1.00  0.00     0.066 C
HETATM    2  C3  UNL     1      44.408  19.979  51.707  1.00  0.00     0.246 C
HETATM    3  N1  UNL     1      44.679  21.390  51.876  1.00  0.00    -0.064 N
HETATM    4  C4  UNL     1      43.435  22.095  51.773  1.00  0.00     0.237 C
HETATM    5  C5  UNL     1      43.857  23.511  51.512  1.00  0.00     0.029 C
HETATM    6  C6  UNL     1      44.990  23.305  50.504  1.00  0.00     0.029 C
HETATM    7  C7  UNL     1      45.542  21.942  50.887  1.00  0.00     0.237 C
HETATM    8  C8  UNL     1      45.266  21.431  53.190  1.00  0.00     0.269 C
HETATM    9  C9  UNL     1      46.306  20.315  53.082  1.00  0.00     0.152 C
ENDROOT
BRANCH   1  10
HETATM   10  C1  UNL     1      44.986  18.304  53.453  1.00  0.00     0.173 C
BRANCH  10  11
HETATM   11  O1  UNL     1      45.974  17.360  53.699  1.00  0.00    -0.400 OA
ATOM     12  H1  UNL     1      45.667  16.539  53.334  1.00  0.00     0.209 HD
ENDBRANCH  10  11
ENDBRANCH   1  10
BRANCH   9  13
HETATM   13  O2  UNL     1      46.758  19.896  54.309  1.00  0.00    -0.393 OA
ATOM     14  H2  UNL     1      47.101  19.010  54.277  1.00  0.00     0.210 HD
ENDBRANCH   9  13
TORSDOF 3
ENDMDL