MODEL 2
REMARK VINA RESULT: -5.182303331      1.718      3.090
REMARK  3 active torsions:
REMARK  status: ('A' for Active; 'I' for Inactive)
REMARK    1  A    between atoms: C3_3  and  O1_4
REMARK    2  A    between atoms: C4_6  and  C5_7
REMARK    3  A    between atoms: C8_10  and  O2_11
ROOT
HETATM    1  C1  UNL     1      45.424  24.172  53.886  1.00  0.00     0.017 C
HETATM    2  C2  UNL     1      45.549  23.214  53.166  1.00  0.00    -0.046 C
HETATM    3  C3  UNL     1      45.725  22.050  52.300  1.00  0.00     0.335 C
HETATM    4  C4  UNL     1      44.636  21.008  52.429  1.00  0.00     0.135 C
HETATM    5  C8  UNL     1      44.169  21.579  51.134  1.00  0.00     0.275 C
HETATM    6  C9  UNL     1      43.354  22.814  51.222  1.00  0.00     0.103 C
HETATM    7  C10 UNL     1      44.581  23.504  50.711  1.00  0.00     0.286 C
HETATM    8  N1  UNL     1      45.391  22.322  50.924  1.00  0.00     0.172 N
ENDROOT
BRANCH   3   9
HETATM    9  O1  UNL     1      47.032  21.572  52.384  1.00  0.00    -0.353 OA
ATOM     10  H1  UNL     1      47.135  20.790  51.855  1.00  0.00     0.213 HD
ENDBRANCH   3   9
BRANCH   4  11
HETATM   11  C5  UNL     1      45.172  19.637  52.447  1.00  0.00    -0.008 C
HETATM   12  C6  UNL     1      44.282  18.532  52.014  1.00  0.00     0.010 C
HETATM   13  C7  UNL     1      45.727  19.237  53.824  1.00  0.00     0.010 C
ENDBRANCH   4  11
BRANCH   5  14
HETATM   14  O2  UNL     1      43.772  20.738  50.148  1.00  0.00    -0.362 OA
ATOM     15  H2  UNL     1      43.354  21.097  49.374  1.00  0.00     0.212 HD
ENDBRANCH   5  14
TORSDOF 3
ENDMDL