MODEL 2
REMARK VINA RESULT: -4.732949727      2.203      3.449
REMARK  3 active torsions:
REMARK  status: ('A' for Active; 'I' for Inactive)
REMARK    1  A    between atoms: C3_6  and  C4_7
REMARK    2  A    between atoms: C4_7  and  C5_8
REMARK    3  A    between atoms: C5_8  and  O1_9
ROOT
HETATM    1  C1  UNL     1      43.177  23.906  50.470  1.00  0.00     0.040 C
HETATM    2  C2  UNL     1      43.548  22.652  51.200  1.00  0.00     0.189 A
HETATM    3  N1  UNL     1      43.781  22.762  52.608  1.00  0.00    -0.061 N
ATOM      4  H11 UNL     1      43.156  22.263  53.241  1.00  0.00     0.278 HD
ATOM      5  H12 UNL     1      43.585  23.654  53.062  1.00  0.00     0.278 HD
HETATM    6  C3  UNL     1      45.189  22.316  52.516  1.00  0.00     0.133 A
HETATM    7  C6  UNL     1      45.337  21.018  53.263  1.00  0.00     0.039 C
HETATM    8  C7  UNL     1      45.081  19.763  52.570  1.00  0.00     0.002 C
HETATM    9  C8  UNL     1      44.399  19.837  51.245  1.00  0.00     0.001 C
HETATM   10  C9  UNL     1      45.076  20.882  50.437  1.00  0.00     0.009 C
HETATM   11  C10 UNL     1      45.026  22.246  51.076  1.00  0.00     0.052 A
ENDROOT
BRANCH   6  12
HETATM   12  C4  UNL     1      46.053  23.321  53.181  1.00  0.00     0.065 C
BRANCH  12  13
HETATM   13  C5  UNL     1      46.913  22.974  54.296  1.00  0.00     0.166 C
BRANCH  13  14
HETATM   14  O1  UNL     1      46.384  23.131  55.569  1.00  0.00    -0.401 OA
ATOM     15  H1  UNL     1      45.660  23.739  55.661  1.00  0.00     0.209 HD
ENDBRANCH  13  14
ENDBRANCH  12  13
ENDBRANCH   6  12
TORSDOF 3
ENDMDL