MODEL 5
REMARK VINA RESULT: -4.597415371      2.513      3.455
REMARK  2 active torsions:
REMARK  status: ('A' for Active; 'I' for Inactive)
REMARK    1  A    between atoms: O1_1  and  C1_3
REMARK    2  A    between atoms: C1_3  and  C2_4
ROOT
HETATM    1  C2  UNL     1      44.633  20.863  51.661  1.00  0.00     0.235 C
HETATM    2  C3  UNL     1      43.876  21.923  50.934  1.00  0.00     0.272 C
HETATM    3  N1  UNL     1      43.889  23.209  51.609  1.00  0.00    -0.063 N
HETATM    4  C4  UNL     1      44.862  24.109  51.048  1.00  0.00     0.237 C
HETATM    5  C5  UNL     1      44.389  24.829  49.823  1.00  0.00     0.028 C
HETATM    6  C6  UNL     1      43.136  25.589  50.212  1.00  0.00     0.003 C
HETATM    7  C7  UNL     1      42.106  24.489  50.487  1.00  0.00     0.028 C
HETATM    8  C8  UNL     1      42.565  23.734  51.679  1.00  0.00     0.237 C
HETATM    9  C9  UNL     1      44.311  22.951  52.981  1.00  0.00     0.265 C
HETATM   10  C10 UNL     1      45.744  22.514  53.014  1.00  0.00     0.260 C
HETATM   11  N2  UNL     1      45.874  21.308  52.236  1.00  0.00    -0.066 N
ATOM     12  H21 UNL     1      46.587  21.419  51.515  1.00  0.00     0.277 HD
ATOM     13  H22 UNL     1      46.304  20.566  52.788  1.00  0.00     0.277 HD
ENDROOT
BRANCH   1  14
HETATM   14  C1  UNL     1      44.972  19.737  50.688  1.00  0.00     0.199 C
BRANCH  14  15
HETATM   15  O1  UNL     1      45.036  20.184  49.390  1.00  0.00    -0.399 OA
ATOM     16  H1  UNL     1      45.101  21.130  49.346  1.00  0.00     0.209 HD
ENDBRANCH  14  15
ENDBRANCH   1  14
TORSDOF 2
ENDMDL