MODEL 5
REMARK VINA RESULT: -4.663572909      1.490      1.785
REMARK  2 active torsions:
REMARK  status: ('A' for Active; 'I' for Inactive)
REMARK    1  A    between atoms: C2_2  and  N1_3
REMARK    2  A    between atoms: C8_11  and  O1_12
ROOT
HETATM    1  N1  UNL     1      44.776  22.892  52.918  1.00  0.00    -0.014 N
HETATM    2  C3  UNL     1      43.634  23.467  53.636  1.00  0.00     0.289 C
HETATM    3  C4  UNL     1      44.418  22.204  51.821  1.00  0.00     0.037 C
HETATM    4  C5  UNL     1      43.911  21.872  50.555  1.00  0.00     0.117 C
HETATM    5  C6  UNL     1      44.275  20.358  50.397  1.00  0.00     0.057 C
HETATM    6  C7  UNL     1      44.355  19.586  51.628  1.00  0.00     0.059 C
HETATM    7  N2  UNL     1      45.286  19.627  52.636  1.00  0.00    -0.375 N
ATOM      8  H2  UNL     1      45.553  18.706  52.983  1.00  0.00     0.161 HD
HETATM    9  C8  UNL     1      45.920  20.648  53.258  1.00  0.00     0.244 C
HETATM   10  C9  UNL     1      45.313  21.867  53.864  1.00  0.00     0.305 C
ENDROOT
BRANCH   1  11
HETATM   11  C2  UNL     1      45.698  23.974  52.764  1.00  0.00     0.248 C
HETATM   12  C1  UNL     1      45.186  25.135  51.978  1.00  0.00     0.036 C
ENDBRANCH   1  11
BRANCH   9  13
HETATM   13  O1  UNL     1      46.575  20.070  54.402  1.00  0.00    -0.375 OA
ATOM     14  H1  UNL     1      45.885  19.858  55.019  1.00  0.00     0.212 HD
ENDBRANCH   9  13
TORSDOF 2
ENDMDL