MODEL 3
REMARK VINA RESULT: -4.191947476      2.608      3.926
REMARK  4 active torsions:
REMARK  status: ('A' for Active; 'I' for Inactive)
REMARK    1  A    between atoms: C3_3  and  N1_4
REMARK    2  A    between atoms: N1_4  and  C4_5
REMARK    3  A    between atoms: C9_10  and  O1_11
REMARK    4  A    between atoms: C10_13  and  O2_14
ROOT
HETATM    1  C1  UNL     1      42.643  24.381  54.007  1.00  0.00     0.113 C
HETATM    2  C2  UNL     1      43.464  23.422  53.256  1.00  0.00    -0.081 C
HETATM    3  C3  UNL     1      44.143  22.624  52.657  1.00  0.00     0.119 C
ENDROOT
BRANCH   3   4
HETATM    4  N1  UNL     1      44.949  21.678  51.974  1.00  0.00     0.030 N
HETATM    5  C7  UNL     1      44.553  20.375  52.448  1.00  0.00     0.260 C
HETATM    6  C8  UNL     1      45.028  19.483  51.298  1.00  0.00     0.065 C
HETATM    7  C9  UNL     1      44.552  20.268  50.104  1.00  0.00     0.177 C
HETATM    8  C10 UNL     1      44.693  21.698  50.568  1.00  0.00     0.368 C
BRANCH   4   9
HETATM    9  C4  UNL     1      46.309  21.903  52.343  1.00  0.00     0.209 A
HETATM   10  C5  UNL     1      46.730  22.749  53.460  1.00  0.00     0.037 A
HETATM   11  C6  UNL     1      46.695  21.256  53.669  1.00  0.00     0.037 A
ENDBRANCH   4   9
BRANCH   7  12
HETATM   12  O1  UNL     1      45.322  20.031  48.973  1.00  0.00    -0.391 OA
ATOM     13  H1  UNL     1      45.477  19.104  48.829  1.00  0.00     0.210 HD
ENDBRANCH   7  12
BRANCH   8  14
HETATM   14  O2  UNL     1      43.440  22.328  50.387  1.00  0.00    -0.366 OA
ATOM     15  H2  UNL     1      42.794  21.638  50.295  1.00  0.00     0.212 HD
ENDBRANCH   8  14
ENDBRANCH   3   4
TORSDOF 4
ENDMDL