MODEL 2
REMARK VINA RESULT: -4.830475498      1.923      3.045
REMARK  2 active torsions:
REMARK  status: ('A' for Active; 'I' for Inactive)
REMARK    1  A    between atoms: C10_10  and  O1_11
REMARK    2  A    between atoms: C11_13  and  O2_14
ROOT
HETATM    1  C1  UNL     1      45.363  24.707  49.453  1.00  0.00     0.017 C
HETATM    2  C2  UNL     1      44.764  23.785  50.459  1.00  0.00    -0.019 A
HETATM    3  C3  UNL     1      43.354  23.423  50.425  1.00  0.00     0.008 A
HETATM    4  C4  UNL     1      42.926  23.016  51.838  1.00  0.00     0.012 C
HETATM    5  C5  UNL     1      44.171  23.014  52.633  1.00  0.00     0.003 C
HETATM    6  C6  UNL     1      44.865  21.738  52.928  1.00  0.00     0.023 C
HETATM    7  C7  UNL     1      46.118  22.351  52.267  1.00  0.00     0.019 C
HETATM    8  C8  UNL     1      45.266  23.252  51.608  1.00  0.00    -0.016 A
HETATM    9  C9  UNL     1      44.619  22.477  50.390  1.00  0.00     0.010 A
HETATM   10  C10 UNL     1      44.321  21.131  50.624  1.00  0.00     0.157 C
HETATM   11  C11 UNL     1      44.502  20.591  52.039  1.00  0.00     0.152 C
ENDROOT
BRANCH  10  12
HETATM   12  O1  UNL     1      45.033  20.295  49.720  1.00  0.00    -0.392 OA
ATOM     13  H1  UNL     1      45.937  20.577  49.643  1.00  0.00     0.210 HD
ENDBRANCH  10  12
BRANCH  11  14
HETATM   14  O2  UNL     1      45.629  19.736  52.012  1.00  0.00    -0.393 OA
ATOM     15  H2  UNL     1      46.049  19.873  51.172  1.00  0.00     0.210 HD
ENDBRANCH  11  14
TORSDOF 2
ENDMDL