MODEL 2
REMARK VINA RESULT: -5.340856921      2.358      2.854
REMARK  4 active torsions:
REMARK  status: ('A' for Active; 'I' for Inactive)
REMARK    1  A    between atoms: C3_3  and  C4_4
REMARK    2  A    between atoms: C5_5  and  N1_6
REMARK       I    between atoms: N1_6  and  C6_8
REMARK       I    between atoms: C6_8  and  N2_10
REMARK    3  A    between atoms: N3_13  and  C9_14
REMARK    4  A    between atoms: C9_14  and  C10_18
ROOT
HETATM    1  C1  UNL     1       8.099  -1.222  25.631  1.00  0.00     0.113 C
HETATM    2  C2  UNL     1       8.442   0.192  25.419  1.00  0.00    -0.097 C
HETATM    3  C3  UNL     1       8.723   1.348  25.225  1.00  0.00    -0.014 C
ENDROOT
BRANCH   3   4
HETATM    4  C4  UNL     1       9.064   2.706  24.974  1.00  0.00     0.008 C
HETATM    5  C5  UNL     1       9.360   3.859  24.740  1.00  0.00     0.028 C
BRANCH   5   6
HETATM    6  N1  UNL     1       9.703   5.192  24.445  1.00  0.00    -0.267 N
HETATM    7  C6  UNL     1      10.916   5.461  23.752  1.00  0.00     0.330 C
HETATM    8  O1  UNL     1      11.682   4.513  23.403  1.00  0.00    -0.246 OA
HETATM    9  N2  UNL     1      11.247   6.804  23.463  1.00  0.00    -0.330 N
HETATM   10  C7  UNL     1      10.331   7.833  23.893  1.00  0.00     0.147 C
HETATM   11  C12 UNL     1      12.476   7.065  22.758  1.00  0.00     0.147 C
HETATM   12  C8  UNL     1      10.831   9.235  23.658  1.00  0.00     0.144 C
HETATM   13  N3  UNL     1      11.464   9.266  22.361  1.00  0.00    -0.367 N
HETATM   14  C11 UNL     1      12.432   8.307  21.917  1.00  0.00     0.144 C
ATOM     15  H1  UNL     1       9.089   5.957  24.724  1.00  0.00     0.181 HD
BRANCH  13  16
HETATM   16  C9  UNL     1      11.106  10.312  21.473  1.00  0.00     0.083 C
HETATM   17  N4  UNL     1      11.805  10.492  20.429  1.00  0.00    -0.388 N
ATOM     18  H42 UNL     1      12.617   9.924  20.185  1.00  0.00     0.157 HD
ATOM     19  H41 UNL     1      11.548  11.244  19.791  1.00  0.00     0.157 HD
BRANCH  16  20
HETATM   20  C10 UNL     1       9.925  11.137  21.829  1.00  0.00     0.161 C
HETATM   21 BR1  UNL     1       8.688  11.128  20.348  1.00  0.00    -0.088 Br
ENDBRANCH  16  20
ENDBRANCH  13  16
ENDBRANCH   5   6
ENDBRANCH   3   4
TORSDOF 4
ENDMDL