MODEL 3
REMARK VINA RESULT: -5.043493644      1.795      3.670
REMARK  7 active torsions:
REMARK  status: ('A' for Active; 'I' for Inactive)
REMARK    1  A    between atoms: N1_1  and  N2_4
REMARK    2  A    between atoms: N2_4  and  C1_5
REMARK    3  A    between atoms: C9_16  and  C10_17
REMARK    4  A    between atoms: C11_18  and  C12_19
REMARK    5  A    between atoms: C13_20  and  C14_21
REMARK    6  A    between atoms: C15_22  and  C16_23
REMARK    7  A    between atoms: C16_23  and  C17_24
ROOT
HETATM    1  N2  UNL     1      10.739   8.990  24.225  1.00  0.00     0.026 N
HETATM    2  C6  UNL     1      11.324  10.226  23.793  1.00  0.00     0.266 C
HETATM    3  C7  UNL     1      12.115   9.963  22.548  1.00  0.00     0.033 C
HETATM    4  C8  UNL     1      11.863   8.470  22.290  1.00  0.00     0.050 C
HETATM    5  C9  UNL     1      11.663   8.006  23.720  1.00  0.00     0.294 C
ENDROOT
BRANCH   1   6
HETATM    6  N1  UNL     1      10.803   8.929  25.631  1.00  0.00    -0.260 N
ATOM      7  H12 UNL     1      11.440   9.496  26.192  1.00  0.00     0.183 HD
ATOM      8  H11 UNL     1      10.137   8.251  26.001  1.00  0.00     0.183 HD
ENDBRANCH   1   6
BRANCH   1   9
HETATM    9  C1  UNL     1       9.393   8.792  23.757  1.00  0.00     0.219 C
HETATM   10  C2  UNL     1       8.449   8.394  24.889  1.00  0.00     0.063 C
HETATM   11  C3  UNL     1       7.137   8.009  24.260  1.00  0.00     0.234 C
HETATM   12  N3  UNL     1       6.574   9.082  23.467  1.00  0.00    -0.075 N
HETATM   13  C4  UNL     1       7.482   9.549  22.451  1.00  0.00     0.234 C
ATOM     14  H32 UNL     1       5.678   8.809  23.064  1.00  0.00     0.277 HD
ATOM     15  H31 UNL     1       6.259   9.851  24.059  1.00  0.00     0.277 HD
HETATM   16  C5  UNL     1       8.797   9.998  23.097  1.00  0.00     0.063 C
ENDBRANCH   1   9
BRANCH   5  17
HETATM   17  C10 UNL     1      11.092   6.687  23.819  1.00  0.00    -0.056 C
HETATM   18  C11 UNL     1      10.629   5.573  23.912  1.00  0.00    -0.012 C
BRANCH  18  19
HETATM   19  C12 UNL     1      10.098   4.266  24.042  1.00  0.00    -0.001 C
HETATM   20  C13 UNL     1       9.656   3.147  24.171  1.00  0.00    -0.001 C
BRANCH  20  21
HETATM   21  C14 UNL     1       9.153   1.837  24.342  1.00  0.00    -0.014 C
HETATM   22  C15 UNL     1       8.735   0.717  24.506  1.00  0.00    -0.091 C
BRANCH  22  23
HETATM   23  C16 UNL     1       8.237  -0.661  24.725  1.00  0.00     0.110 C
BRANCH  23  24
HETATM   24  C17 UNL     1       8.001  -0.786  26.215  1.00  0.00     0.126 C
HETATM   25 CL1  UNL     1       6.450  -1.523  26.599  1.00  0.00    -0.130 Cl
ENDBRANCH  23  24
ENDBRANCH  22  23
ENDBRANCH  20  21
ENDBRANCH  18  19
ENDBRANCH   5  17
TORSDOF 7
ENDMDL