MODEL 5
REMARK VINA RESULT: -5.164756434      2.865      5.772
REMARK  2 active torsions:
REMARK  status: ('A' for Active; 'I' for Inactive)
REMARK       I    between atoms: C2_2  and  N1_4
REMARK       I    between atoms: C3_6  and  N2_7
REMARK       I    between atoms: C3_6  and  N3_13
REMARK    1  A    between atoms: N2_7  and  C4_9
REMARK    2  A    between atoms: C9_16  and  N4_17
ROOT
HETATM    1  C1  UNL     1       2.787   5.632  28.584  1.00  0.00     0.118 C
HETATM    2  C2  UNL     1       2.915   6.231  27.221  1.00  0.00     0.231 C
HETATM    3  O1  UNL     1       2.029   7.050  26.884  1.00  0.00    -0.273 OA
HETATM    4  N1  UNL     1       4.000   5.844  26.423  1.00  0.00    -0.160 N
ATOM      5  H1  UNL     1       4.245   4.855  26.404  1.00  0.00     0.187 HD
HETATM    6  C3  UNL     1       4.705   6.646  25.716  1.00  0.00     0.680 C
HETATM    7  N2  UNL     1       4.388   8.031  25.722  1.00  0.00    -0.204 N
ATOM      8  H2  UNL     1       3.605   8.349  25.151  1.00  0.00     0.179 HD
HETATM    9  N3  UNL     1       5.795   6.230  24.918  1.00  0.00    -0.216 N
HETATM   10  C7  UNL     1       5.850   6.542  23.482  1.00  0.00     0.143 C
HETATM   11  C8  UNL     1       7.092   5.785  22.993  1.00  0.00     0.055 C
HETATM   12  C9  UNL     1       7.950   5.872  24.237  1.00  0.00     0.210 C
HETATM   13  C14 UNL     1       6.983   5.477  25.306  1.00  0.00     0.174 C
ENDROOT
BRANCH   7  14
HETATM   14  C4  UNL     1       5.114   9.007  26.490  1.00  0.00     0.117 C
HETATM   15  C5  UNL     1       4.212  10.055  27.110  1.00  0.00     0.056 C
HETATM   16  C6  UNL     1       6.028   9.766  25.519  1.00  0.00     0.056 C
HETATM   17 CL1  UNL     1       6.140   8.316  27.737  1.00  0.00    -0.096 Cl
ENDBRANCH   7  14
BRANCH  12  18
HETATM   18  N4  UNL     1       9.120   5.054  24.163  1.00  0.00    -0.065 N
HETATM   19  C10 UNL     1      10.378   5.743  24.038  1.00  0.00     0.273 C
HETATM   20  C11 UNL     1       8.920   3.934  23.274  1.00  0.00     0.239 C
HETATM   21  C12 UNL     1       9.486   2.972  24.324  1.00  0.00     0.056 C
HETATM   22  C13 UNL     1       9.153   4.105  25.266  1.00  0.00     0.239 C
ENDBRANCH  12  18
TORSDOF 2
ENDMDL