MODEL 1
REMARK VINA RESULT: -5.693556691      0.000      0.000
REMARK  2 active torsions:
REMARK  status: ('A' for Active; 'I' for Inactive)
REMARK    1  A    between atoms: C5_9  and  C6_10
REMARK    2  A    between atoms: C8_13  and  N3_14
ROOT
HETATM    1  C1  UNL     1       9.666   3.117  23.330  1.00  0.00     0.155 C
HETATM    2  N1  UNL     1       8.765   3.904  24.128  1.00  0.00    -0.328 N
HETATM    3  C2  UNL     1       8.115   3.242  25.242  1.00  0.00     0.319 C
HETATM    4  O1  UNL     1       8.149   1.975  25.291  1.00  0.00    -0.247 OA
HETATM    5  N2  UNL     1       7.469   4.017  26.236  1.00  0.00    -0.336 N
ATOM      6  H2  UNL     1       7.201   3.609  27.131  1.00  0.00     0.164 HD
HETATM    7  C3  UNL     1       7.203   5.399  25.939  1.00  0.00     0.119 C
HETATM    8  C4  UNL     1       8.499   5.951  25.318  1.00  0.00     0.059 C
HETATM    9  C5  UNL     1       8.438   5.277  23.952  1.00  0.00     0.049 C
HETATM   10  C7  UNL     1       6.976   5.503  23.599  1.00  0.00     0.067 C
HETATM   11  C8  UNL     1       6.175   5.498  24.834  1.00  0.00     0.215 C
ENDROOT
BRANCH  11  12
HETATM   12  N3  UNL     1       5.251   6.558  25.024  1.00  0.00    -0.065 N
HETATM   13  C9  UNL     1       5.344   7.092  26.371  1.00  0.00     0.273 C
HETATM   14  C10 UNL     1       5.095   7.572  24.068  1.00  0.00     0.239 C
HETATM   15  C11 UNL     1       3.601   7.610  24.433  1.00  0.00     0.056 C
HETATM   16  C12 UNL     1       3.887   6.137  24.762  1.00  0.00     0.239 C
ENDBRANCH  11  12
BRANCH   9  17
HETATM   17  C6  UNL     1       9.269   6.009  22.934  1.00  0.00     0.116 C
HETATM   18 BR1  UNL     1      10.759   6.833  23.847  1.00  0.00    -0.094 Br
ENDBRANCH   9  17
TORSDOF 2
ENDMDL