MODEL 2
REMARK VINA RESULT: -5.160078433      1.181      1.256
REMARK  2 active torsions:
REMARK  status: ('A' for Active; 'I' for Inactive)
REMARK    1  A    between atoms: C3_3  and  N1_4
REMARK    2  A    between atoms: C10_11  and  O1_12
ROOT
HETATM    1  C1  UNL     1       9.055   1.949  24.821  1.00  0.00     0.013 C
HETATM    2  C2  UNL     1       8.974   2.950  24.149  1.00  0.00    -0.089 C
HETATM    3  C3  UNL     1       8.876   4.168  23.298  1.00  0.00     0.331 C
ENDROOT
BRANCH   3   4
HETATM    4  N1  UNL     1       8.208   5.111  24.024  1.00  0.00    -0.040 N
HETATM    5  C4  UNL     1       7.274   4.337  24.837  1.00  0.00     0.241 C
HETATM    6  C5  UNL     1       7.117   5.578  25.664  1.00  0.00     0.041 C
HETATM    7  C6  UNL     1       7.801   6.752  25.045  1.00  0.00     0.015 A
HETATM    8  C7  UNL     1       7.294   7.773  25.106  1.00  0.00     0.007 A
HETATM    9  C11 UNL     1       8.786   7.180  23.841  1.00  0.00     0.058 C
HETATM   10  C14 UNL     1       8.620   7.076  25.713  1.00  0.00     0.040 A
HETATM   11  C13 UNL     1       9.136   5.759  24.984  1.00  0.00     0.147 A
HETATM   12  C8  UNL     1       6.556   7.113  23.899  1.00  0.00     0.042 C
HETATM   13  C9  UNL     1       7.306   5.935  23.220  1.00  0.00     0.223 C
HETATM   14  C10 UNL     1       8.353   6.757  22.508  1.00  0.00     0.169 C
HETATM   15 BR1  UNL     1       9.226   9.004  23.903  1.00  0.00    -0.082 Br
HETATM   16  C12 UNL     1      10.100   6.444  24.160  1.00  0.00     0.065 C
BRANCH  14  17
HETATM   17  O1  UNL     1       7.820   7.784  21.747  1.00  0.00    -0.392 OA
ATOM     18  H1  UNL     1       8.447   8.472  21.553  1.00  0.00     0.210 HD
ENDBRANCH  14  17
ENDBRANCH   3   4
TORSDOF 2
ENDMDL