MODEL 4
REMARK VINA RESULT: -5.285184044      2.088      3.633
REMARK  1 active torsions:
REMARK  status: ('A' for Active; 'I' for Inactive)
REMARK    1  A    between atoms: C6_6  and  C7_7
ROOT
HETATM    1  C1  UNL     1       9.395   1.852  22.881  1.00  0.00     0.014 C
HETATM    2  C2  UNL     1       9.345   2.917  23.417  1.00  0.00    -0.084 C
HETATM    3  C3  UNL     1       9.307   4.196  24.070  1.00  0.00     0.264 C
HETATM    4  C4  UNL     1       8.115   4.306  25.030  1.00  0.00     0.053 C
HETATM    5  C5  UNL     1       7.972   5.749  25.444  1.00  0.00     0.021 C
HETATM    6  C6  UNL     1       6.853   6.468  24.773  1.00  0.00     0.105 C
HETATM    7  N1  UNL     1       7.330   7.329  23.726  1.00  0.00    -0.394 N
ATOM      8  H1  UNL     1       6.719   7.666  22.982  1.00  0.00     0.155 HD
HETATM    9  C9  UNL     1       8.698   7.679  23.788  1.00  0.00     0.121 C
HETATM   10 BR1  UNL     1       9.191   9.014  22.506  1.00  0.00    -0.059 Br
HETATM   11  C10 UNL     1       9.624   6.457  23.780  1.00  0.00     0.232 C
HETATM   12  N2  UNL     1       9.121   5.306  23.118  1.00  0.00    -0.053 N
ATOM     13  H21 UNL     1       8.161   5.408  22.789  1.00  0.00     0.279 HD
ATOM     14  H22 UNL     1       9.544   5.140  22.205  1.00  0.00     0.279 HD
HETATM   15  C11 UNL     1       9.309   6.407  25.286  1.00  0.00     0.037 C
HETATM   16  C12 UNL     1       9.244   7.900  25.170  1.00  0.00    -0.004 C
HETATM   17  C13 UNL     1       8.449   8.659  26.135  1.00  0.00     0.019 C
HETATM   18  C14 UNL     1      10.666   8.455  25.065  1.00  0.00     0.019 C
ENDROOT
BRANCH   6  19
HETATM   19  C7  UNL     1       5.773   5.550  24.308  1.00  0.00    -0.012 C
HETATM   20  C8  UNL     1       4.519   5.892  24.577  1.00  0.00     0.009 C
ENDBRANCH   6  19
TORSDOF 1
ENDMDL