MODEL 4
REMARK VINA RESULT: -5.198610670      2.464      4.952
REMARK  1 active torsions:
REMARK  status: ('A' for Active; 'I' for Inactive)
REMARK       I    between atoms: N1_2  and  C2_4
REMARK       I    between atoms: C2_4  and  N4_15
REMARK       I    between atoms: N2_5  and  C3_7
REMARK       I    between atoms: C3_7  and  N3_9
REMARK    1  A    between atoms: N4_15  and  N5_17
ROOT
HETATM    1  C1  UNL     1       5.604   8.902  23.333  1.00  0.00     0.165 C
HETATM    2  N1  UNL     1       6.489   8.320  24.316  1.00  0.00    -0.229 N
ATOM      3  H1  UNL     1       6.288   8.486  25.302  1.00  0.00     0.177 HD
HETATM    4  C2  UNL     1       7.624   7.530  23.987  1.00  0.00     0.703 C
HETATM    5  N2  UNL     1       7.397   6.326  23.588  1.00  0.00    -0.140 N
ATOM      6  H2  UNL     1       6.423   6.027  23.538  1.00  0.00     0.189 HD
HETATM    7  C3  UNL     1       8.373   5.392  23.219  1.00  0.00     0.336 C
HETATM    8  O1  UNL     1       9.112   5.511  22.207  1.00  0.00    -0.246 OA
HETATM    9  N3  UNL     1       8.562   4.229  24.016  1.00  0.00    -0.334 N
HETATM   10  C4  UNL     1       7.758   3.999  25.203  1.00  0.00     0.127 C
HETATM   11  C5  UNL     1       8.594   3.249  26.208  1.00  0.00     0.020 C
HETATM   12  C6  UNL     1       8.915   1.885  25.661  1.00  0.00     0.003 C
HETATM   13  C7  UNL     1       8.968   1.869  24.151  1.00  0.00     0.020 C
HETATM   14  C8  UNL     1       9.553   3.210  23.701  1.00  0.00     0.127 C
HETATM   15  N4  UNL     1       8.945   7.993  24.076  1.00  0.00    -0.038 N
ATOM     16  H4  UNL     1       9.615   7.617  23.404  1.00  0.00     0.214 HD
ENDROOT
BRANCH  15  17
HETATM   17  N5  UNL     1       9.423   8.914  24.993  1.00  0.00     0.077 N
HETATM   18  C9  UNL     1       8.914   8.607  26.335  1.00  0.00     0.318 C
HETATM   19  C10 UNL     1       9.095  10.270  24.708  1.00  0.00     0.318 C
HETATM   20 BR1  UNL     1      11.314   8.729  25.100  1.00  0.00     0.193 Br
ENDBRANCH  15  17
TORSDOF 1
ENDMDL