MODEL 2
REMARK VINA RESULT: -5.360905551      1.764      2.810
REMARK  3 active torsions:
REMARK  status: ('A' for Active; 'I' for Inactive)
REMARK    1  A    between atoms: N2_11  and  C10_12
REMARK    2  A    between atoms: C10_12  and  C11_13
REMARK    3  A    between atoms: N3_15  and  O1_17
ROOT
HETATM    1  C1  UNL     1      11.077   9.001  25.223  1.00  0.00     0.272 C
HETATM    2  N1  UNL     1      11.005   8.330  23.930  1.00  0.00    -0.074 N
HETATM    3  C2  UNL     1      11.896   9.127  23.065  1.00  0.00     0.272 C
HETATM    4  C3  UNL     1      11.576   7.052  24.068  1.00  0.00     0.238 C
HETATM    5  C4  UNL     1      10.677   5.900  23.685  1.00  0.00     0.054 C
HETATM    6  C5  UNL     1       9.398   6.130  24.452  1.00  0.00     0.092 C
HETATM    7  C6  UNL     1       8.743   7.325  23.791  1.00  0.00     0.034 C
HETATM    8  C7  UNL     1       7.959   6.881  22.554  1.00  0.00     0.010 C
HETATM    9  C8  UNL     1       6.868   5.919  22.881  1.00  0.00     0.020 C
HETATM   10  C9  UNL     1       7.109   5.247  24.207  1.00  0.00     0.124 C
HETATM   11  N2  UNL     1       8.513   5.022  24.462  1.00  0.00    -0.363 N
HETATM   12  C12 UNL     1       9.665   8.425  23.464  1.00  0.00     0.243 C
ENDROOT
BRANCH  11  13
HETATM   13  C10 UNL     1       8.940   3.673  24.716  1.00  0.00     0.109 C
HETATM   14  N3  UNL     1       9.277   2.915  23.729  1.00  0.00    -0.256 N
ATOM     15  H3  UNL     1       9.582   1.955  23.891  1.00  0.00     0.195 HD
BRANCH  13  16
HETATM   16  C11 UNL     1       9.016   3.102  26.064  1.00  0.00     0.163 C
HETATM   17 BR1  UNL     1       8.506   1.223  25.917  1.00  0.00    -0.088 Br
ENDBRANCH  13  16
BRANCH  14  18
HETATM   18  O1  UNL     1       9.217   3.418  22.462  1.00  0.00    -0.288 OA
ATOM     19  H1  UNL     1       9.385   2.836  21.730  1.00  0.00     0.244 HD
ENDBRANCH  14  18
ENDBRANCH  11  13
TORSDOF 3
ENDMDL