MODEL 2
REMARK VINA RESULT: -5.293282126      2.337      2.855
REMARK  3 active torsions:
REMARK  status: ('A' for Active; 'I' for Inactive)
REMARK    1  A    between atoms: C4_6  and  N2_7
REMARK    2  A    between atoms: N2_7  and  N3_8
REMARK    3  A    between atoms: C6_12  and  C7_13
ROOT
HETATM    1  C1  UNL     1       8.234   8.762  24.924  1.00  0.00     0.041 C
HETATM    2  C2  UNL     1       8.522   7.350  24.375  1.00  0.00     0.050 C
HETATM    3  C3  UNL     1       8.558   7.553  22.853  1.00  0.00     0.041 C
HETATM    4  N1  UNL     1       9.860   7.065  24.778  1.00  0.00    -0.356 N
ATOM      5  H1  UNL     1      10.387   7.556  25.501  1.00  0.00     0.162 HD
HETATM    6  C4  UNL     1      10.329   5.974  23.993  1.00  0.00     0.177 C
HETATM    7  C5  UNL     1       9.695   4.630  23.952  1.00  0.00     0.119 C
HETATM    8  C6  UNL     1       8.775   4.424  25.128  1.00  0.00     0.095 C
HETATM    9  N4  UNL     1       7.620   5.168  25.169  1.00  0.00    -0.405 N
ATOM     10  H4  UNL     1       6.794   4.696  25.535  1.00  0.00     0.154 HD
HETATM   11  C8  UNL     1       7.447   6.466  24.777  1.00  0.00     0.050 C
HETATM   12  C9  UNL     1       6.442   6.407  23.597  1.00  0.00     0.033 C
HETATM   13  C10 UNL     1       5.287   5.695  24.317  1.00  0.00     0.002 C
HETATM   14  C11 UNL     1       5.230   6.272  25.694  1.00  0.00     0.002 C
HETATM   15  C12 UNL     1       6.488   7.147  25.776  1.00  0.00     0.033 C
ENDROOT
BRANCH   6  16
HETATM   16  N2  UNL     1      11.345   6.179  23.298  1.00  0.00    -0.319 NA
BRANCH  16  17
HETATM   17  N3  UNL     1      12.315   6.735  22.749  1.00  0.00    -0.279 N
ATOM     18  H32 UNL     1      12.002   6.550  21.796  1.00  0.00     0.191 HD
ATOM     19  H31 UNL     1      13.190   7.238  22.600  1.00  0.00     0.191 HD
ENDBRANCH  16  17
ENDBRANCH   6  16
BRANCH   8  20
HETATM   20  C7  UNL     1       8.405   2.931  25.113  1.00  0.00     0.110 C
HETATM   21 BR1  UNL     1       9.338   2.010  23.702  1.00  0.00    -0.094 Br
ENDBRANCH   8  20
TORSDOF 3
ENDMDL