MODEL 5
REMARK VINA RESULT: -4.980114902      3.330      6.223
REMARK  1 active torsions:
REMARK  status: ('A' for Active; 'I' for Inactive)
REMARK    1  A    between atoms: C2_2  and  N1_3
REMARK       I    between atoms: N1_3  and  C3_5
REMARK       I    between atoms: C3_5  and  N5_15
REMARK       I    between atoms: N2_6  and  C4_8
REMARK       I    between atoms: C4_8  and  N4_12
ROOT
HETATM    1  N1  UNL     1       3.728   7.697  26.700  1.00  0.00    -0.225 N
ATOM      2  H1  UNL     1       2.871   7.669  26.149  1.00  0.00     0.177 HD
HETATM    3  C3  UNL     1       4.619   6.598  26.646  1.00  0.00     0.705 C
HETATM    4  N2  UNL     1       4.516   5.655  27.520  1.00  0.00    -0.021 N
ATOM      5  H2  UNL     1       5.170   4.875  27.458  1.00  0.00     0.203 HD
HETATM    6  C4  UNL     1       3.557   5.632  28.557  1.00  0.00     0.702 C
HETATM    7  N3  UNL     1       3.942   5.748  29.770  1.00  0.00    -0.229 N
ATOM      8  H3  UNL     1       3.245   5.731  30.514  1.00  0.00     0.177 HD
HETATM    9  C5  UNL     1       5.342   5.905  30.119  1.00  0.00     0.165 C
HETATM   10  N4  UNL     1       2.192   5.482  28.246  1.00  0.00    -0.131 N
ATOM     11  H4  UNL     1       1.877   4.700  27.671  1.00  0.00     0.199 HD
HETATM   12 CL1  UNL     1       1.054   6.641  28.851  1.00  0.00     0.026 Cl
HETATM   13  N5  UNL     1       5.642   6.459  25.671  1.00  0.00    -0.140 N
HETATM   14  C6  UNL     1       5.439   5.746  24.423  1.00  0.00     0.190 C
HETATM   15  C7  UNL     1       6.702   5.735  23.626  1.00  0.00     0.260 C
HETATM   16  N6  UNL     1       7.883   5.446  24.378  1.00  0.00    -0.056 N
HETATM   17  C8  UNL     1       7.981   3.989  24.492  1.00  0.00     0.274 C
HETATM   18  C9  UNL     1       9.028   5.851  23.547  1.00  0.00     0.274 C
HETATM   19  C10 UNL     1       7.948   6.071  25.662  1.00  0.00     0.279 C
HETATM   20  C11 UNL     1       7.867   5.046  26.800  1.00  0.00     0.059 C
HETATM   21  N7  UNL     1       6.883   7.018  25.906  1.00  0.00    -0.188 NA
HETATM   22  C12 UNL     1       7.050   8.251  25.185  1.00  0.00     0.139 C
ENDROOT
BRANCH   1  23
HETATM   23  C2  UNL     1       4.002   8.856  27.516  1.00  0.00     0.134 C
HETATM   24  C1  UNL     1       2.745   9.667  27.738  1.00  0.00     0.027 C
ENDBRANCH   1  23
TORSDOF 1
ENDMDL