MODEL 1
REMARK VINA RESULT: -5.181889436      0.000      0.000
REMARK  1 active torsions:
REMARK  status: ('A' for Active; 'I' for Inactive)
REMARK    1  A    between atoms: C2_2  and  C4_4
ROOT
HETATM    1  C4  UNL     1       8.832   3.684  23.928  1.00  0.00     0.111 C
HETATM    2  C5  UNL     1       9.070   4.641  25.028  1.00  0.00     0.134 C
HETATM    3  N1  UNL     1       8.934   5.978  24.563  1.00  0.00    -0.196 NA
HETATM    4  C6  UNL     1       7.821   6.701  25.074  1.00  0.00     0.131 C
HETATM    5  S1  UNL     1       8.943   5.859  22.836  1.00  0.00     0.298 S
HETATM    6  O1  UNL     1       7.580   6.048  22.259  1.00  0.00    -0.188 OA
HETATM    7  O2  UNL     1       9.966   6.760  22.244  1.00  0.00    -0.188 OA
HETATM    8  N2  UNL     1       9.434   4.180  22.723  1.00  0.00    -0.300 N
ATOM      9  H2  UNL     1       9.985   3.697  22.012  1.00  0.00     0.173 HD
ENDROOT
BRANCH   1  10
HETATM   10  C2  UNL     1       9.333   2.317  24.321  1.00  0.00     0.002 C
HETATM   11  C1  UNL     1       8.546   1.707  25.442  1.00  0.00     0.011 C
HETATM   12  C3  UNL     1       9.275   1.444  23.083  1.00  0.00     0.011 C
ENDBRANCH   1  10
TORSDOF 1
ENDMDL