MODEL 3
REMARK VINA RESULT: -4.138807717      0.971      3.069
REMARK  3 active torsions:
REMARK  status: ('A' for Active; 'I' for Inactive)
REMARK    1  A    between atoms: C2_2  and  C3_3
REMARK    2  A    between atoms: C5_5  and  O1_6
REMARK    3  A    between atoms: C6_8  and  O2_9
ROOT
HETATM    1  C3  UNL     1       8.128   5.531  24.937  1.00  0.00     0.215 C
HETATM    2  C4  UNL     1       9.477   5.738  24.393  1.00  0.00     0.072 C
HETATM    3  C5  UNL     1       9.558   5.856  22.893  1.00  0.00     0.150 C
HETATM    4  C6  UNL     1       8.498   6.849  22.481  1.00  0.00     0.173 C
HETATM    5  C7  UNL     1       7.181   6.150  22.801  1.00  0.00     0.272 C
HETATM    6  N1  UNL     1       7.020   6.012  24.210  1.00  0.00    -0.054 N
HETATM    7  C8  UNL     1       5.725   5.503  24.645  1.00  0.00     0.266 A
HETATM    8  C9  UNL     1       6.058   6.932  24.838  1.00  0.00     0.266 A
ENDROOT
BRANCH   1   9
HETATM    9  C2  UNL     1       7.938   4.050  25.169  1.00  0.00    -0.004 C
HETATM   10  C1  UNL     1       8.928   3.320  25.650  1.00  0.00     0.009 C
ENDBRANCH   1   9
BRANCH   3  11
HETATM   11  O1  UNL     1       9.275   4.612  22.322  1.00  0.00    -0.393 OA
ATOM     12  H1  UNL     1       9.870   4.461  21.598  1.00  0.00     0.210 HD
ENDBRANCH   3  11
BRANCH   4  13
HETATM   13  O2  UNL     1       8.650   7.982  23.294  1.00  0.00    -0.391 OA
ATOM     14  H2  UNL     1       7.976   7.942  23.963  1.00  0.00     0.210 HD
ENDBRANCH   4  13
TORSDOF 3
ENDMDL