MODEL 2
REMARK VINA RESULT: -4.620515888      2.012      3.790
REMARK  2 active torsions:
REMARK  status: ('A' for Active; 'I' for Inactive)
REMARK    1  A    between atoms: N1_2  and  C2_3
REMARK    2  A    between atoms: C8_12  and  O1_13
ROOT
HETATM    1  C1  UNL     1       8.845   4.739  25.754  1.00  0.00     0.273 C
HETATM    2  N1  UNL     1       8.787   4.153  24.430  1.00  0.00    -0.062 N
HETATM    3  C6  UNL     1       8.483   2.760  24.579  1.00  0.00     0.240 C
HETATM    4  C7  UNL     1       9.699   1.986  24.083  1.00  0.00     0.061 C
HETATM    5  C8  UNL     1      10.259   2.988  23.066  1.00  0.00     0.145 C
HETATM    6  C9  UNL     1      10.079   4.277  23.830  1.00  0.00     0.269 C
ENDROOT
BRANCH   2   7
HETATM    7  C2  UNL     1       7.776   4.756  23.594  1.00  0.00     0.217 C
HETATM    8  C3  UNL     1       6.579   5.237  24.376  1.00  0.00     0.062 C
HETATM    9  C4  UNL     1       6.176   6.538  23.749  1.00  0.00     0.234 C
HETATM   10  N2  UNL     1       7.344   7.041  23.106  1.00  0.00    -0.073 N
HETATM   11  C5  UNL     1       8.237   5.953  22.843  1.00  0.00     0.265 C
ATOM     12  H22 UNL     1       7.125   7.576  22.265  1.00  0.00     0.277 HD
ATOM     13  H21 UNL     1       7.790   7.788  23.639  1.00  0.00     0.277 HD
ENDBRANCH   2   7
BRANCH   5  14
HETATM   14  O1  UNL     1      11.575   2.710  22.791  1.00  0.00    -0.394 OA
ATOM     15  H1  UNL     1      11.732   2.740  21.855  1.00  0.00     0.210 HD
ENDBRANCH   5  14
TORSDOF 2
ENDMDL