MODEL 3
REMARK VINA RESULT: -4.630609105      2.373      3.589
REMARK  2 active torsions:
REMARK  status: ('A' for Active; 'I' for Inactive)
REMARK    1  A    between atoms: C9_13  and  C10_14
REMARK    2  A    between atoms: C10_14  and  O1_15
ROOT
HETATM    1  C1  UNL     1       8.263   2.071  25.974  1.00  0.00     0.131 C
HETATM    2  C2  UNL     1       8.268   3.243  25.634  1.00  0.00     0.033 C
HETATM    3  N1  UNL     1       8.258   4.625  25.264  1.00  0.00    -0.011 N
HETATM    4  C3  UNL     1       7.970   5.326  26.501  1.00  0.00     0.290 C
HETATM    5  C4  UNL     1       7.160   4.763  24.341  1.00  0.00     0.255 C
HETATM    6  C5  UNL     1       7.370   5.707  23.220  1.00  0.00     0.062 C
HETATM    7  C6  UNL     1       8.802   5.857  22.762  1.00  0.00     0.195 C
HETATM    8  N2  UNL     1       9.248   4.525  22.365  1.00  0.00    -0.068 N
ATOM      9  H21 UNL     1       9.925   4.539  21.601  1.00  0.00     0.277 HD
ATOM     10  H22 UNL     1       8.527   3.985  21.887  1.00  0.00     0.277 HD
HETATM   11  C7  UNL     1       9.756   3.870  23.575  1.00  0.00     0.268 C
HETATM   12  C8  UNL     1       9.536   4.892  24.711  1.00  0.00     0.237 C
HETATM   13  C9  UNL     1       9.752   6.102  23.903  1.00  0.00     0.074 C
ENDROOT
BRANCH  13  14
HETATM   14  C10 UNL     1       9.790   7.432  24.472  1.00  0.00     0.173 C
BRANCH  14  15
HETATM   15  O1  UNL     1      11.026   8.031  24.661  1.00  0.00    -0.400 OA
ATOM     16  H1  UNL     1      11.257   8.770  24.111  1.00  0.00     0.209 HD
ENDBRANCH  14  15
ENDBRANCH  13  14
TORSDOF 2
ENDMDL