MODEL 4
REMARK VINA RESULT: -5.429752119      2.296      4.643
REMARK  2 active torsions:
REMARK  status: ('A' for Active; 'I' for Inactive)
REMARK    1  A    between atoms: O1_1  and  C1_3
REMARK    2  A    between atoms: C4_6  and  N1_7
ROOT
HETATM    1  C1  UNL     1       7.891   5.928  23.247  1.00  0.00     0.144 C
HETATM    2  C2  UNL     1       7.237   5.175  24.328  1.00  0.00     0.037 C
HETATM    3  C3  UNL     1       7.881   3.936  24.791  1.00  0.00     0.068 C
HETATM    4  C4  UNL     1       9.320   3.747  24.421  1.00  0.00     0.419 C
HETATM    5  N2  UNL     1       9.422   4.025  22.977  1.00  0.00    -0.041 N
ATOM      6  H21 UNL     1       8.784   3.462  22.415  1.00  0.00     0.279 HD
ATOM      7  H22 UNL     1      10.291   3.687  22.564  1.00  0.00     0.279 HD
HETATM    8  C9  UNL     1       9.229   5.426  22.808  1.00  0.00     0.266 C
ENDROOT
BRANCH   4   9
HETATM    9  N1  UNL     1       9.658   2.362  24.573  1.00  0.00     0.119 N
HETATM   10  C5  UNL     1       9.203   1.755  25.788  1.00  0.00     0.275 C
HETATM   11  C6  UNL     1       8.254   0.629  25.345  1.00  0.00     0.032 C
HETATM   12  C7  UNL     1       9.018   0.145  24.104  1.00  0.00     0.032 C
HETATM   13  C8  UNL     1       9.348   1.509  23.477  1.00  0.00     0.275 C
ENDBRANCH   4   9
BRANCH   1  14
HETATM   14  O1  UNL     1       7.084   6.004  22.085  1.00  0.00    -0.394 OA
ATOM     15  H1  UNL     1       7.391   6.669  21.479  1.00  0.00     0.210 HD
ENDBRANCH   1  14
TORSDOF 2
ENDMDL