MODEL 3
REMARK VINA RESULT: -4.311618328      2.044      2.950
REMARK  2 active torsions:
REMARK  status: ('A' for Active; 'I' for Inactive)
REMARK    1  A    between atoms: O1_1  and  C1_3
REMARK    2  A    between atoms: C1_3  and  C2_4
ROOT
HETATM    1  C2  UNL     1       8.238   3.474  25.188  1.00  0.00     0.214 C
HETATM    2  C3  UNL     1       9.234   2.360  25.357  1.00  0.00     0.037 C
HETATM    3  C4  UNL     1       9.616   2.084  23.902  1.00  0.00     0.030 C
HETATM    4  C5  UNL     1       8.928   3.193  23.096  1.00  0.00     0.238 C
HETATM    5  N1  UNL     1       8.749   4.249  24.113  1.00  0.00    -0.058 N
HETATM    6  C6  UNL     1       7.761   5.166  23.582  1.00  0.00     0.265 C
HETATM    7  C7  UNL     1       8.331   6.040  22.508  1.00  0.00     0.260 C
HETATM    8  N2  UNL     1       9.519   6.745  22.900  1.00  0.00    -0.072 N
ATOM      9  H21 UNL     1       9.384   7.754  22.834  1.00  0.00     0.277 HD
ATOM     10  H22 UNL     1      10.258   6.631  22.206  1.00  0.00     0.277 HD
HETATM   11  C8  UNL     1       9.982   6.368  24.217  1.00  0.00     0.260 C
HETATM   12  C9  UNL     1      10.026   4.849  24.303  1.00  0.00     0.265 C
ENDROOT
BRANCH   1  13
HETATM   13  C1  UNL     1       7.887   4.172  26.436  1.00  0.00     0.197 C
BRANCH  13  14
HETATM   14  O1  UNL     1       7.560   3.381  27.510  1.00  0.00    -0.399 OA
ATOM     15  H1  UNL     1       7.015   3.778  28.179  1.00  0.00     0.209 HD
ENDBRANCH  13  14
ENDBRANCH   1  13
TORSDOF 2
ENDMDL