MODEL 1
REMARK VINA RESULT: -5.998018404      0.000      0.000
REMARK  2 active torsions:
REMARK  status: ('A' for Active; 'I' for Inactive)
REMARK    1  A    between atoms: C7_10  and  C8_11
REMARK    2  A    between atoms: C8_11  and  O1_13
ROOT
HETATM    1  C1  UNL     1       6.471   5.509  23.975  1.00  0.00     0.013 C
HETATM    2  C2  UNL     1       7.466   4.845  24.061  1.00  0.00    -0.105 C
HETATM    3  C3  UNL     1       8.676   4.063  24.178  1.00  0.00     0.057 C
HETATM    4  C4  UNL     1       9.969   4.836  24.253  1.00  0.00     0.256 C
HETATM    5  N1  UNL     1      10.951   4.135  23.480  1.00  0.00    -0.068 N
ATOM      6  H11 UNL     1      11.858   4.070  23.943  1.00  0.00     0.277 HD
ATOM      7  H12 UNL     1      11.264   4.653  22.659  1.00  0.00     0.277 HD
HETATM    8  C5  UNL     1      10.374   2.831  23.155  1.00  0.00     0.204 A
HETATM    9  C6  UNL     1       8.965   3.105  23.050  1.00  0.00     0.053 A
HETATM   10  C7  UNL     1       9.512   2.142  24.132  1.00  0.00     0.026 A
HETATM   11  C10 UNL     1       8.609   2.856  25.075  1.00  0.00     0.018 C
HETATM   12  C11 UNL     1       9.057   3.012  26.476  1.00  0.00     0.012 C
ENDROOT
BRANCH  10  13
HETATM   13  C8  UNL     1       9.284   0.684  23.939  1.00  0.00     0.125 C
HETATM   14  C9  UNL     1       8.474   0.061  25.048  1.00  0.00     0.040 C
BRANCH  13  15
HETATM   15  O1  UNL     1       8.716   0.466  22.697  1.00  0.00    -0.395 OA
ATOM     16  H1  UNL     1       8.113  -0.266  22.748  1.00  0.00     0.210 HD
ENDBRANCH  13  15
ENDBRANCH  10  13
TORSDOF 2
ENDMDL