MODEL 1
REMARK VINA RESULT: -4.611739311      0.000      0.000
REMARK  3 active torsions:
REMARK  status: ('A' for Active; 'I' for Inactive)
REMARK    1  A    between atoms: O1_1  and  C1_3
REMARK    2  A    between atoms: C1_3  and  C2_4
REMARK    3  A    between atoms: C5_8  and  O2_9
ROOT
HETATM    1  C2  UNL     1       8.702   4.262  24.214  1.00  0.00     0.044 C
HETATM    2  C3  UNL     1       9.841   5.191  23.985  1.00  0.00     0.279 C
HETATM    3  N1  UNL     1       9.488   6.475  23.473  1.00  0.00     0.091 N
HETATM    4  C4  UNL     1       8.434   6.466  22.505  1.00  0.00     0.304 C
HETATM    5  C5  UNL     1       7.225   5.736  23.031  1.00  0.00     0.151 C
HETATM    6  C6  UNL     1       7.432   5.099  24.356  1.00  0.00     0.028 C
HETATM    7  C7  UNL     1       7.474   5.948  25.548  1.00  0.00    -0.001 A
HETATM    8  C8  UNL     1       6.961   7.316  25.664  1.00  0.00     0.012 A
HETATM    9  C9  UNL     1       8.480   6.982  25.665  1.00  0.00     0.019 A
HETATM   10  C10 UNL     1       9.196   7.452  24.466  1.00  0.00     0.277 C
ENDROOT
BRANCH   1  11
HETATM   11  C1  UNL     1       8.911   3.360  25.399  1.00  0.00     0.170 C
BRANCH  11  12
HETATM   12  O1  UNL     1       7.832   2.493  25.527  1.00  0.00    -0.400 OA
ATOM     13  H1  UNL     1       8.039   1.660  25.120  1.00  0.00     0.209 HD
ENDBRANCH  11  12
ENDBRANCH   1  11
BRANCH   5  14
HETATM   14  O2  UNL     1       6.054   6.479  22.924  1.00  0.00    -0.393 OA
ATOM     15  H2  UNL     1       5.523   6.450  23.712  1.00  0.00     0.210 HD
ENDBRANCH   5  14
TORSDOF 3
ENDMDL