MODEL 1
REMARK VINA RESULT: -4.939631395      0.000      0.000
REMARK  2 active torsions:
REMARK  status: ('A' for Active; 'I' for Inactive)
REMARK    1  A    between atoms: C7_8  and  O1_9
REMARK    2  A    between atoms: C8_11  and  O2_12
ROOT
HETATM    1  C1  UNL     1      10.307   5.384  23.966  1.00  0.00     0.273 C
HETATM    2  N1  UNL     1       9.244   4.427  24.093  1.00  0.00    -0.062 N
HETATM    3  C2  UNL     1       8.007   5.156  24.301  1.00  0.00     0.237 C
HETATM    4  C3  UNL     1       7.895   5.708  25.702  1.00  0.00     0.028 C
HETATM    5  C4  UNL     1       7.811   4.529  26.639  1.00  0.00     0.004 C
HETATM    6  C5  UNL     1       8.354   3.265  26.072  1.00  0.00     0.036 C
HETATM    7  C6  UNL     1       9.452   3.431  25.085  1.00  0.00     0.221 C
HETATM    8  C7  UNL     1       9.647   2.100  24.374  1.00  0.00     0.179 C
HETATM    9  C8  UNL     1       9.974   2.521  22.946  1.00  0.00     0.175 C
HETATM   10  C9  UNL     1       9.092   3.736  22.806  1.00  0.00     0.271 C
ENDROOT
BRANCH   8  11
HETATM   11  O1  UNL     1       8.409   1.423  24.288  1.00  0.00    -0.391 OA
ATOM     12  H1  UNL     1       8.561   0.501  24.116  1.00  0.00     0.210 HD
ENDBRANCH   8  11
BRANCH   9  13
HETATM   13  O2  UNL     1      11.310   2.786  22.766  1.00  0.00    -0.391 OA
ATOM     14  H2  UNL     1      11.573   3.616  23.147  1.00  0.00     0.210 HD
ENDBRANCH   9  13
TORSDOF 2
ENDMDL