MODEL 3
REMARK VINA RESULT: -10.121411885      5.794     11.875
REMARK  10 active torsions:
REMARK  status: ('A' for Active; 'I' for Inactive)
REMARK    1  A    between atoms: C4_7  and  C5_8
REMARK    2  A    between atoms: C5_8  and  N2_9
REMARK       I    between atoms: N2_9  and  C6_10
REMARK    3  A    between atoms: N2_9  and  C11_21
REMARK    4  A    between atoms: C6_10  and  C7_12
REMARK    5  A    between atoms: C8_13  and  C9_14
REMARK       I    between atoms: C9_14  and  N3_16
REMARK    6  A    between atoms: C11_21  and  C12_22
REMARK    7  A    between atoms: C19_31  and  C20_32
REMARK    8  A    between atoms: C20_32  and  C21_33
REMARK    9  A    between atoms: C22_34  and  N7_35
REMARK       I    between atoms: N7_35  and  C23_37
REMARK       I    between atoms: C23_37  and  N8_39
REMARK   10  A    between atoms: N8_39  and  C24_41
ROOT
HETATM    1  C1  UNL     1       5.326  25.951   2.717  1.00  0.00     0.069 C
HETATM    2  C2  UNL     1       6.675  25.855   3.317  1.00  0.00     0.015 A
HETATM    3  N1  UNL     1       7.291  27.026   3.693  1.00  0.00    -0.327 N
ATOM      4  H1  UNL     1       6.807  27.905   3.506  1.00  0.00     0.169 HD
HETATM    5  C3  UNL     1       8.481  27.081   4.286  1.00  0.00     0.253 A
HETATM    6  O1  UNL     1       9.020  28.187   4.620  1.00  0.00    -0.268 OA
HETATM    7  C4  UNL     1       9.222  25.923   4.582  1.00  0.00     0.028 A
HETATM    8  C18 UNL     1       8.610  24.769   4.207  1.00  0.00     0.023 A
HETATM    9  C19 UNL     1       7.333  24.712   3.570  1.00  0.00    -0.032 A
ENDROOT
BRANCH   7  10
HETATM   10  C5  UNL     1      10.545  26.071   5.215  1.00  0.00     0.171 C
BRANCH  10  11
HETATM   11  N2  UNL     1      10.760  25.324   6.431  1.00  0.00    -0.326 N
HETATM   12  C6  UNL     1      11.304  24.019   6.335  1.00  0.00     0.244 C
HETATM   13  O2  UNL     1      11.530  23.673   5.112  1.00  0.00    -0.268 OA
BRANCH  12  14
HETATM   14  C7  UNL     1      11.615  23.098   7.360  1.00  0.00     0.080 C
HETATM   15  C8  UNL     1      12.740  22.671   7.782  1.00  0.00     0.080 C
BRANCH  15  16
HETATM   16  C9  UNL     1      14.097  22.929   7.418  1.00  0.00     0.247 C
HETATM   17  O3  UNL     1      15.018  23.437   8.095  1.00  0.00    -0.268 OA
HETATM   18  N3  UNL     1      14.507  22.557   6.058  1.00  0.00    -0.300 N
HETATM   19  C10 UNL     1      15.235  21.525   5.843  1.00  0.00     0.203 C
ATOM     20  H3  UNL     1      14.207  23.130   5.270  1.00  0.00     0.171 HD
HETATM   21  N4  UNL     1      15.666  20.711   6.921  1.00  0.00    -0.066 NA
HETATM   22  N5  UNL     1      15.585  21.234   4.512  1.00  0.00    -0.066 NA
ENDBRANCH  15  16
ENDBRANCH  12  14
BRANCH  11  23
HETATM   23  C11 UNL     1      10.491  25.924   7.722  1.00  0.00     0.114 C
HETATM   24  C13 UNL     1      10.078  27.384   7.521  1.00  0.00     0.041 C
HETATM   25  C14 UNL     1       9.571  27.954   8.795  1.00  0.00     0.003 C
HETATM   26  C15 UNL     1       8.447  27.202   9.442  1.00  0.00     0.000 C
HETATM   27  C16 UNL     1       8.162  25.913   8.698  1.00  0.00     0.003 C
HETATM   28  C17 UNL     1       9.465  25.166   8.472  1.00  0.00     0.041 C
BRANCH  23  29
HETATM   29  C12 UNL     1      11.790  26.005   8.466  1.00  0.00     0.259 C
HETATM   30  N6  UNL     1      11.918  25.713   9.843  1.00  0.00    -0.060 NA
HETATM   31  O4  UNL     1      12.818  26.348   7.836  1.00  0.00    -0.274 OA
ENDBRANCH  23  29
ENDBRANCH  11  23
ENDBRANCH  10  11
ENDBRANCH   7  10
BRANCH   9  32
HETATM   32  C20 UNL     1       6.885  23.349   3.191  1.00  0.00     0.069 C
BRANCH  32  33
HETATM   33  C21 UNL     1       7.701  22.220   3.604  1.00  0.00    -0.005 C
HETATM   34  C22 UNL     1       8.022  21.009   2.882  1.00  0.00     0.089 C
BRANCH  34  35
HETATM   35  N7  UNL     1       7.093  19.949   2.765  1.00  0.00    -0.319 N
HETATM   36  C23 UNL     1       5.792  19.680   3.067  1.00  0.00     0.320 C
HETATM   37  O5  UNL     1       4.995  20.447   3.619  1.00  0.00    -0.247 OA
HETATM   38  N8  UNL     1       5.205  18.378   2.741  1.00  0.00    -0.336 N
ATOM     39  H8  UNL     1       5.781  17.670   2.286  1.00  0.00     0.164 HD
ATOM     40  H7  UNL     1       7.529  19.142   2.320  1.00  0.00     0.169 HD
BRANCH  38  41
HETATM   41  C24 UNL     1       3.820  18.075   3.055  1.00  0.00     0.116 C
HETATM   42  C25 UNL     1       3.004  18.366   1.881  1.00  0.00     0.027 C
HETATM   43  C26 UNL     1       3.289  17.681   0.590  1.00  0.00     0.002 C
HETATM   44  C27 UNL     1       2.964  16.250   0.463  1.00  0.00     0.002 C
HETATM   45  C28 UNL     1       1.815  15.879   1.380  1.00  0.00     0.028 C
HETATM   46  C29 UNL     1       2.368  15.240   2.578  1.00  0.00     0.237 C
HETATM   47  N9  UNL     1       2.578  16.010   3.750  1.00  0.00    -0.069 N
HETATM   48  C30 UNL     1       1.424  16.761   4.187  1.00  0.00     0.272 C
HETATM   49  C31 UNL     1       2.786  15.003   4.823  1.00  0.00     0.272 C
HETATM   50  C32 UNL     1       3.771  16.806   3.780  1.00  0.00     0.208 C
HETATM   51  C33 UNL     1       5.003  15.956   3.522  1.00  0.00     0.042 C
ENDBRANCH  38  41
ENDBRANCH  34  35
ENDBRANCH  32  33
ENDBRANCH   9  32
TORSDOF 10
ENDMDL