MODEL 4
REMARK VINA RESULT: -9.623576788      2.666      5.053
REMARK  13 active torsions:
REMARK  status: ('A' for Active; 'I' for Inactive)
REMARK    1  A    between atoms: C2_2  and  C3_3
REMARK    2  A    between atoms: C3_3  and  C4_4
REMARK    3  A    between atoms: C4_4  and  C5_5
REMARK    4  A    between atoms: C10_10  and  O1_11
REMARK    5  A    between atoms: C11_14  and  C12_15
REMARK       I    between atoms: C12_15  and  N2_17
REMARK    6  A    between atoms: N2_17  and  C13_18
REMARK    7  A    between atoms: C13_18  and  C14_19
REMARK    8  A    between atoms: C13_18  and  C31_49
REMARK    9  A    between atoms: C14_19  and  C15_20
REMARK   10  A    between atoms: C17_22  and  C18_23
REMARK   11  A    between atoms: C18_23  and  N3_24
REMARK   12  A    between atoms: C20_29  and  C21_30
REMARK       I    between atoms: C21_30  and  N5_32
REMARK   13  A    between atoms: C24_36  and  C25_37
REMARK       I    between atoms: C25_37  and  N6_39
ROOT
HETATM    1  C15 UNL     1       9.548  24.917   4.980  1.00  0.00    -0.050 A
HETATM    2  C16 UNL     1       9.201  26.016   5.634  1.00  0.00     0.022 A
HETATM    3  C17 UNL     1       9.744  26.498   6.749  1.00  0.00     0.006 A
HETATM    4  C19 UNL     1      10.822  25.748   7.299  1.00  0.00     0.032 A
HETATM    5  C20 UNL     1      11.231  24.583   6.689  1.00  0.00     0.033 A
HETATM    6  C30 UNL     1      10.619  24.144   5.547  1.00  0.00     0.024 A
ENDROOT
BRANCH   1   7
HETATM    7  C14 UNL     1       9.148  24.523   3.610  1.00  0.00     0.117 C
BRANCH   7   8
HETATM    8  C13 UNL     1       8.559  23.209   3.468  1.00  0.00     0.157 C
BRANCH   8   9
HETATM    9  N2  UNL     1       7.251  22.884   3.605  1.00  0.00    -0.365 NA
HETATM   10  C12 UNL     1       5.953  22.473   3.774  1.00  0.00     0.331 C
HETATM   11  O2  UNL     1       5.487  21.408   4.272  1.00  0.00    -0.250 OA
BRANCH  10  12
HETATM   12  C11 UNL     1       5.112  23.577   3.167  1.00  0.00     0.183 C
HETATM   13  N1  UNL     1       5.434  24.828   2.745  1.00  0.00    -0.324 N
HETATM   14  C5  UNL     1       5.434  26.048   3.646  1.00  0.00     0.047 C
HETATM   15  C10 UNL     1       5.756  25.403   1.542  1.00  0.00     0.128 C
HETATM   16  C6  UNL     1       6.517  27.016   3.393  1.00  0.00     0.033 C
HETATM   17  C32 UNL     1       4.330  26.735   2.810  1.00  0.00    -0.007 C
HETATM   18  C7  UNL     1       6.324  27.649   2.017  1.00  0.00     0.021 C
HETATM   19  C8  UNL     1       5.190  26.798   1.507  1.00  0.00     0.031 C
HETATM   20  C9  UNL     1       4.483  27.227   0.339  1.00  0.00     0.025 C
HETATM   21  C33 UNL     1       3.141  25.880   2.592  1.00  0.00     0.018 C
HETATM   22  C34 UNL     1       3.981  28.073   3.328  1.00  0.00     0.018 C
BRANCH  14  23
HETATM   23  C4  UNL     1       5.084  25.783   5.020  1.00  0.00     0.032 C
BRANCH  23  24
HETATM   24  C3  UNL     1       5.721  26.661   6.060  1.00  0.00     0.002 C
BRANCH  24  25
HETATM   25  C2  UNL     1       4.882  26.997   7.271  1.00  0.00    -0.004 C
HETATM   26  C1  UNL     1       3.431  26.582   7.066  1.00  0.00     0.005 C
ENDBRANCH  24  25
ENDBRANCH  23  24
ENDBRANCH  14  23
BRANCH  15  27
HETATM   27  O1  UNL     1       6.455  24.883   0.561  1.00  0.00    -0.349 OA
ATOM     28  H1  UNL     1       7.190  24.297   0.696  1.00  0.00     0.219 HD
ENDBRANCH  15  27
ENDBRANCH  10  12
ENDBRANCH   8   9
BRANCH   8  29
HETATM   29  C31 UNL     1       9.172  22.510   2.254  1.00  0.00     0.291 C
HETATM   30  N9  UNL     1       8.764  21.299   1.706  1.00  0.00    -0.055 NA
HETATM   31  O5  UNL     1      10.143  23.176   1.731  1.00  0.00    -0.269 OA
ENDBRANCH   8  29
ENDBRANCH   7   8
ENDBRANCH   1   7
BRANCH   3  32
HETATM   32  C18 UNL     1       9.152  27.385   7.830  1.00  0.00     0.120 C
HETATM   33  N4  UNL     1       9.283  28.759   7.540  1.00  0.00    -0.082 NA
BRANCH  32  34
HETATM   34  N3  UNL     1       8.787  26.851   8.728  1.00  0.00    -0.387 N
ATOM     35  H32 UNL     1       8.349  25.937   8.846  1.00  0.00     0.157 HD
ATOM     36  H31 UNL     1       8.807  27.393   9.592  1.00  0.00     0.157 HD
ENDBRANCH  32  34
ENDBRANCH   3  32
BRANCH   5  37
HETATM   37  C21 UNL     1      12.382  23.910   7.171  1.00  0.00     0.257 C
HETATM   38  O3  UNL     1      12.994  23.072   7.687  1.00  0.00    -0.267 OA
HETATM   39  N5  UNL     1      13.579  24.996   6.658  1.00  0.00    -0.308 N
HETATM   40  C22 UNL     1      14.222  24.242   5.762  1.00  0.00     0.124 A
ATOM     41  H5  UNL     1      13.758  25.955   6.952  1.00  0.00     0.170 HD
HETATM   42  C23 UNL     1      14.039  22.958   5.342  1.00  0.00     0.086 A
HETATM   43  N8  UNL     1      15.304  24.716   5.075  1.00  0.00    -0.285 N
HETATM   44  C24 UNL     1      15.019  22.631   4.403  1.00  0.00     0.119 A
HETATM   45  N7  UNL     1      15.743  23.753   4.275  1.00  0.00    -0.294 N
ATOM     46  H7  UNL     1      16.535  23.854   3.639  1.00  0.00     0.187 HD
ATOM     47  H8  UNL     1      15.705  25.650   5.163  1.00  0.00     0.188 HD
BRANCH  44  48
HETATM   48  C25 UNL     1      15.140  21.396   3.687  1.00  0.00     0.271 C
HETATM   49  O4  UNL     1      14.668  21.297   2.501  1.00  0.00    -0.266 OA
HETATM   50  N6  UNL     1      15.739  20.221   4.142  1.00  0.00    -0.347 N
HETATM   51  C26 UNL     1      16.589  20.097   5.364  1.00  0.00     0.126 C
HETATM   52  C29 UNL     1      15.622  18.848   3.670  1.00  0.00     0.126 C
HETATM   53  C27 UNL     1      17.787  19.368   4.633  1.00  0.00     0.021 C
HETATM   54  C28 UNL     1      17.076  18.408   3.718  1.00  0.00     0.021 C
ENDBRANCH  44  48
ENDBRANCH   5  37
TORSDOF 13
ENDMDL