MODEL 3
REMARK VINA RESULT: -9.409308765      1.949      2.279
REMARK  12 active torsions:
REMARK  status: ('A' for Active; 'I' for Inactive)
REMARK    1  A    between atoms: C2_2  and  C3_3
REMARK    2  A    between atoms: C3_3  and  C4_4
REMARK    3  A    between atoms: C4_4  and  N1_5
REMARK    4  A    between atoms: C4_4  and  C12_17
REMARK       I    between atoms: N1_5  and  C5_7
REMARK       I    between atoms: C5_7  and  N2_9
REMARK    5  A    between atoms: N2_9  and  C6_11
REMARK       I    between atoms: C12_17  and  N3_19
REMARK    6  A    between atoms: N3_19  and  C13_21
REMARK    7  A    between atoms: C13_21  and  C14_22
REMARK       I    between atoms: C14_22  and  N4_24
REMARK    8  A    between atoms: C17_27  and  C18_28
REMARK    9  A    between atoms: C18_28  and  C19_29
REMARK   10  A    between atoms: C19_29  and  N5_31
REMARK   11  A    between atoms: N5_31  and  C20_33
REMARK   12  A    between atoms: C29_45  and  C30_46
ROOT
HETATM    1  C14 UNL     1      10.709  25.128   5.298  1.00  0.00     0.249 C
HETATM    2  O3  UNL     1      11.686  24.712   4.573  1.00  0.00    -0.270 OA
HETATM    3  N4  UNL     1       9.513  25.450   4.630  1.00  0.00    -0.336 N
HETATM    4  C15 UNL     1       8.307  25.945   5.177  1.00  0.00     0.134 C
HETATM    5  C16 UNL     1       7.240  25.571   4.126  1.00  0.00     0.042 C
HETATM    6  C17 UNL     1       6.195  26.640   4.203  1.00  0.00     0.097 C
HETATM    7  N6  UNL     1       6.617  27.624   3.253  1.00  0.00    -0.355 N
ATOM      8  H6  UNL     1       6.084  28.456   2.999  1.00  0.00     0.162 HD
HETATM    9  C27 UNL     1       7.888  27.274   2.713  1.00  0.00     0.225 C
HETATM   10  O4  UNL     1       8.770  28.027   2.204  1.00  0.00    -0.273 OA
HETATM   11  C28 UNL     1       8.031  25.825   2.843  1.00  0.00     0.117 C
HETATM   12  C29 UNL     1       9.372  25.302   3.173  1.00  0.00     0.190 C
ENDROOT
BRANCH   1  13
HETATM   13  C13 UNL     1      10.967  25.219   6.734  1.00  0.00     0.114 C
HETATM   14  C31 UNL     1       9.970  24.517   7.652  1.00  0.00     0.041 C
HETATM   15  C32 UNL     1       9.993  25.703   8.581  1.00  0.00     0.006 C
HETATM   16  C33 UNL     1      10.649  26.483   7.449  1.00  0.00     0.041 C
BRANCH  13  17
HETATM   17  N3  UNL     1      12.304  24.675   7.056  1.00  0.00    -0.341 N
HETATM   18  C12 UNL     1      12.442  23.308   7.277  1.00  0.00     0.241 C
HETATM   19  O2  UNL     1      11.442  22.545   7.165  1.00  0.00    -0.271 OA
ATOM     20  H3  UNL     1      13.113  25.293   7.114  1.00  0.00     0.163 HD
BRANCH  18  21
HETATM   21  C4  UNL     1      13.721  22.690   7.659  1.00  0.00     0.178 C
BRANCH  21  22
HETATM   22  C3  UNL     1      14.501  23.493   8.631  1.00  0.00     0.034 C
BRANCH  22  23
HETATM   23  C2  UNL     1      15.612  22.923   9.384  1.00  0.00    -0.002 C
HETATM   24  C1  UNL     1      15.609  21.511   9.814  1.00  0.00     0.005 C
ENDBRANCH  22  23
ENDBRANCH  21  22
BRANCH  21  25
HETATM   25  N1  UNL     1      14.493  22.627   6.376  1.00  0.00    -0.330 N
HETATM   26  C5  UNL     1      14.958  21.419   5.841  1.00  0.00     0.317 C
HETATM   27  O1  UNL     1      14.738  20.333   6.501  1.00  0.00    -0.247 OA
HETATM   28  N2  UNL     1      15.654  21.294   4.623  1.00  0.00    -0.339 N
ATOM     29  H2  UNL     1      15.835  22.124   4.058  1.00  0.00     0.164 HD
ATOM     30  H1  UNL     1      14.688  23.494   5.876  1.00  0.00     0.165 HD
BRANCH  28  31
HETATM   31  C6  UNL     1      16.109  20.015   4.170  1.00  0.00     0.086 C
HETATM   32  C7  UNL     1      17.557  19.742   4.378  1.00  0.00     0.025 C
HETATM   33  C8  UNL     1      17.898  18.508   3.550  1.00  0.00     0.002 C
HETATM   34  C9  UNL     1      16.652  17.681   3.284  1.00  0.00     0.000 C
HETATM   35  C10 UNL     1      15.644  18.406   2.422  1.00  0.00     0.002 C
HETATM   36  C11 UNL     1      15.825  19.884   2.660  1.00  0.00     0.025 C
ENDBRANCH  28  31
ENDBRANCH  21  25
ENDBRANCH  18  21
ENDBRANCH  13  17
ENDBRANCH   1  13
BRANCH  12  37
HETATM   37  C30 UNL     1       9.509  23.852   2.807  1.00  0.00     0.255 C
HETATM   38  N7  UNL     1       9.010  22.805   3.582  1.00  0.00    -0.060 NA
HETATM   39  O5  UNL     1      10.109  23.584   1.738  1.00  0.00    -0.275 OA
ENDBRANCH  12  37
BRANCH   6  40
HETATM   40  C18 UNL     1       4.828  26.059   3.965  1.00  0.00     0.095 C
BRANCH  40  41
HETATM   41  C19 UNL     1       4.254  25.301   5.063  1.00  0.00     0.076 C
HETATM   42  S1  UNL     1       3.647  26.155   6.343  1.00  0.00    -0.066 SA
BRANCH  41  43
HETATM   43  N5  UNL     1       4.173  23.909   5.131  1.00  0.00    -0.374 N
ATOM     44  H5  UNL     1       4.572  23.443   5.946  1.00  0.00     0.161 HD
BRANCH  43  45
HETATM   45  C20 UNL     1       3.557  23.092   4.114  1.00  0.00     0.041 C
HETATM   46  C21 UNL     1       2.147  23.567   3.869  1.00  0.00     0.039 C
HETATM   47  C22 UNL     1       3.620  21.616   4.291  1.00  0.00     0.037 C
HETATM   48  C23 UNL     1       5.080  21.340   4.293  1.00  0.00    -0.023 C
HETATM   49  C26 UNL     1       3.379  21.576   2.767  1.00  0.00     0.022 C
HETATM   50  C24 UNL     1       5.530  22.164   3.313  1.00  0.00    -0.023 C
HETATM   51  C25 UNL     1       4.294  22.824   2.854  1.00  0.00     0.037 C
ENDBRANCH  43  45
ENDBRANCH  41  43
ENDBRANCH  40  41
ENDBRANCH   6  40
TORSDOF 12
ENDMDL