MODEL 3
REMARK VINA RESULT: -6.909632668      2.208      5.534
REMARK  11 active torsions:
REMARK  status: ('A' for Active; 'I' for Inactive)
REMARK       I    between atoms: C2_2  and  N1_4
REMARK    1  A    between atoms: C4_7  and  C5_8
REMARK    2  A    between atoms: C5_8  and  C6_9
REMARK    3  A    between atoms: C6_9  and  C7_10
REMARK    4  A    between atoms: C11_18  and  C12_19
REMARK    5  A    between atoms: C13_20  and  C14_21
REMARK    6  A    between atoms: C14_21  and  C15_22
REMARK    7  A    between atoms: C15_22  and  N4_23
REMARK    8  A    between atoms: C18_31  and  C19_32
REMARK    9  A    between atoms: C18_31  and  N10_51
REMARK   10  A    between atoms: C19_32  and  N6_33
REMARK       I    between atoms: N7_36  and  C22_37
REMARK       I    between atoms: C22_37  and  N8_39
REMARK   11  A    between atoms: N8_39  and  C23_41
ROOT
HETATM    1  C1  UNL     1       4.485  29.078   1.050  1.00  0.00     0.117 C
HETATM    2  C2  UNL     1       4.625  27.623   1.149  1.00  0.00     0.223 C
HETATM    3  O1  UNL     1       4.745  26.944   0.075  1.00  0.00    -0.273 OA
HETATM    4  N1  UNL     1       4.638  26.948   2.404  1.00  0.00    -0.280 N
HETATM    5  C3  UNL     1       4.928  25.536   2.334  1.00  0.00     0.231 C
HETATM    6  O2  UNL     1       4.240  24.973   1.451  1.00  0.00    -0.272 OA
HETATM    7  C4  UNL     1       5.918  24.728   3.158  1.00  0.00     0.088 C
HETATM    8  C8  UNL     1       6.815  25.649   3.930  1.00  0.00     0.067 C
HETATM    9  C9  UNL     1       6.119  26.362   5.032  1.00  0.00     0.091 C
HETATM   10  C10 UNL     1       4.699  26.800   4.803  1.00  0.00     0.055 C
HETATM   11  C11 UNL     1       4.428  27.677   3.639  1.00  0.00     0.120 C
HETATM   12  N5  UNL     1       6.766  27.583   5.482  1.00  0.00    -0.394 N
ATOM     13  H5  UNL     1       6.380  28.186   6.209  1.00  0.00     0.159 HD
HETATM   14  C16 UNL     1       7.965  27.851   4.826  1.00  0.00     0.082 C
HETATM   15  C17 UNL     1       8.713  26.941   4.195  1.00  0.00     0.035 C
HETATM   16  C18 UNL     1       8.260  25.463   4.163  1.00  0.00     0.187 C
ENDROOT
BRANCH  16  17
HETATM   17  C19 UNL     1       8.784  25.007   5.454  1.00  0.00     0.126 C
BRANCH  17  18
HETATM   18  N6  UNL     1       9.991  25.233   6.105  1.00  0.00    -0.193 N
HETATM   19  C20 UNL     1      10.663  26.370   6.675  1.00  0.00     0.167 C
HETATM   20  C21 UNL     1      11.235  25.771   7.966  1.00  0.00     0.173 C
HETATM   21  N7  UNL     1      11.905  24.616   7.351  1.00  0.00    -0.131 N
HETATM   22  C22 UNL     1      13.163  24.128   7.761  1.00  0.00     0.337 C
HETATM   23  C29 UNL     1      11.010  24.197   6.355  1.00  0.00     0.684 C
HETATM   24  O3  UNL     1      13.742  24.720   8.734  1.00  0.00    -0.246 OA
HETATM   25  N8  UNL     1      13.872  23.043   7.211  1.00  0.00    -0.338 N
ATOM     26  H8  UNL     1      13.454  22.539   6.430  1.00  0.00     0.164 HD
HETATM   27  N9  UNL     1      11.108  23.054   5.763  1.00  0.00    -0.234 N
ATOM     28  H92 UNL     1      10.459  22.749   5.039  1.00  0.00     0.174 HD
ATOM     29  H91 UNL     1      11.813  22.337   5.936  1.00  0.00     0.174 HD
BRANCH  25  30
HETATM   30  C23 UNL     1      15.167  22.604   7.699  1.00  0.00     0.086 C
HETATM   31  C24 UNL     1      15.062  21.724   8.918  1.00  0.00     0.025 C
HETATM   32  C25 UNL     1      16.427  21.469   9.495  1.00  0.00     0.002 C
HETATM   33  C26 UNL     1      17.488  21.570   8.443  1.00  0.00     0.000 C
HETATM   34  C27 UNL     1      16.943  20.934   7.173  1.00  0.00     0.002 C
HETATM   35  C28 UNL     1      15.783  21.723   6.600  1.00  0.00     0.025 C
ENDBRANCH  25  30
ENDBRANCH  17  18
ENDBRANCH  16  17
BRANCH  16  36
HETATM   36  N10 UNL     1       9.055  25.011   3.024  1.00  0.00    -0.053 N
HETATM   37  C30 UNL     1       8.594  25.539   1.770  1.00  0.00     0.274 C
HETATM   38  C31 UNL     1      10.455  25.223   3.196  1.00  0.00     0.239 C
HETATM   39  C32 UNL     1      11.253  24.965   1.926  1.00  0.00     0.028 C
HETATM   40  C33 UNL     1      10.793  23.694   1.258  1.00  0.00     0.003 C
HETATM   41  C34 UNL     1      10.187  22.883   2.358  1.00  0.00     0.028 C
HETATM   42  C35 UNL     1       8.939  23.559   2.848  1.00  0.00     0.239 C
ENDBRANCH  16  36
BRANCH   7  43
HETATM   43  C5  UNL     1       5.123  23.745   3.934  1.00  0.00     0.022 C
BRANCH  43  44
HETATM   44  C6  UNL     1       5.374  22.314   3.740  1.00  0.00     0.073 C
BRANCH  44  45
HETATM   45  C7  UNL     1       4.423  21.352   4.274  1.00  0.00     0.086 C
HETATM   46  N2  UNL     1       4.743  20.449   5.105  1.00  0.00    -0.391 N
ATOM     47  H22 UNL     1       5.731  20.432   5.358  1.00  0.00     0.157 HD
ATOM     48  H21 UNL     1       4.076  19.775   5.480  1.00  0.00     0.157 HD
HETATM   49  N3  UNL     1       3.026  21.377   3.917  1.00  0.00    -0.088 NA
ENDBRANCH  44  45
ENDBRANCH  43  44
ENDBRANCH   7  43
BRANCH  11  50
HETATM   50  C12 UNL     1       3.075  28.285   3.767  1.00  0.00    -0.005 C
HETATM   51  C13 UNL     1       1.867  27.616   3.334  1.00  0.00    -0.027 C
BRANCH  51  52
HETATM   52  C14 UNL     1       1.312  26.384   3.857  1.00  0.00     0.054 C
BRANCH  52  53
HETATM   53  C15 UNL     1       0.902  25.319   2.872  1.00  0.00     0.233 C
BRANCH  53  54
HETATM   54  N4  UNL     1       1.689  24.107   3.000  1.00  0.00    -0.079 N
ATOM     55  H43 UNL     1       2.527  24.151   2.420  1.00  0.00     0.274 HD
ATOM     56  H42 UNL     1       2.127  24.050   3.919  1.00  0.00     0.274 HD
ATOM     57  H41 UNL     1       1.149  23.265   2.799  1.00  0.00     0.274 HD
ENDBRANCH  53  54
ENDBRANCH  52  53
ENDBRANCH  51  52
ENDBRANCH  11  50
TORSDOF 11
ENDMDL