MODEL 4
REMARK VINA RESULT: -7.495600581      1.091      1.439
REMARK  15 active torsions:
REMARK  status: ('A' for Active; 'I' for Inactive)
REMARK    1  A    between atoms: C2_2  and  C3_3
REMARK    2  A    between atoms: C3_3  and  C4_4
REMARK    3  A    between atoms: C4_4  and  C5_5
REMARK    4  A    between atoms: C6_8  and  O1_9
REMARK    5  A    between atoms: C12_18  and  C13_19
REMARK    6  A    between atoms: C13_19  and  C14_20
REMARK    7  A    between atoms: C20_30  and  O3_31
REMARK    8  A    between atoms: C21_33  and  C22_34
REMARK    9  A    between atoms: C22_34  and  C23_35
REMARK   10  A    between atoms: C23_35  and  C24_36
REMARK   11  A    between atoms: C24_36  and  C25_37
REMARK   12  A    between atoms: C25_37  and  N5_38
REMARK   13  A    between atoms: C26_44  and  O4_45
REMARK   14  A    between atoms: C27_47  and  C28_48
REMARK   15  A    between atoms: C28_48  and  C29_49
ROOT
HETATM    1  C5  UNL     1       8.691  26.831   7.233  1.00  0.00     0.175 C
HETATM    2  N1  UNL     1       8.912  25.790   6.200  1.00  0.00    -0.359 N
ATOM      3  H1  UNL     1       8.090  25.201   6.068  1.00  0.00     0.162 HD
HETATM    4  C6  UNL     1       9.936  25.423   5.386  1.00  0.00     0.135 C
HETATM    5  C7  UNL     1      11.078  24.487   5.494  1.00  0.00     0.161 C
HETATM    6  C8  UNL     1      12.361  25.130   5.928  1.00  0.00     0.035 C
HETATM    7  C9  UNL     1      13.333  24.016   5.496  1.00  0.00     0.022 C
HETATM    8  C10 UNL     1      12.813  23.758   4.115  1.00  0.00     0.127 C
HETATM    9  N2  UNL     1      11.361  23.856   4.201  1.00  0.00    -0.338 N
HETATM   10  C11 UNL     1      10.431  23.452   3.260  1.00  0.00     0.243 C
HETATM   11  O2  UNL     1      10.829  23.236   2.058  1.00  0.00    -0.271 OA
HETATM   12  C12 UNL     1       8.953  23.202   3.389  1.00  0.00     0.181 C
HETATM   13  N4  UNL     1       8.260  23.650   2.199  1.00  0.00    -0.355 N
ATOM     14  H4  UNL     1       8.779  23.418   1.352  1.00  0.00     0.162 HD
HETATM   15  C20 UNL     1       7.084  24.307   1.913  1.00  0.00     0.163 C
HETATM   16  C21 UNL     1       6.290  25.387   2.540  1.00  0.00     0.081 C
HETATM   17  N6  UNL     1       6.015  25.196   3.943  1.00  0.00    -0.336 N
ATOM     18  H6  UNL     1       6.390  24.302   4.260  1.00  0.00     0.168 HD
HETATM   19  C26 UNL     1       5.399  25.858   4.987  1.00  0.00     0.139 C
HETATM   20  C27 UNL     1       5.552  27.114   5.703  1.00  0.00     0.165 C
HETATM   21  N8  UNL     1       6.789  27.818   5.721  1.00  0.00    -0.347 N
ATOM     22  H8  UNL     1       6.918  28.385   4.883  1.00  0.00     0.163 HD
HETATM   23  C35 UNL     1       7.867  27.925   6.597  1.00  0.00     0.241 C
HETATM   24  O5  UNL     1       8.243  29.103   6.931  1.00  0.00    -0.271 OA
ENDROOT
BRANCH  12  25
HETATM   25  C13 UNL     1       8.865  21.651   3.333  1.00  0.00     0.092 C
BRANCH  25  26
HETATM   26  C14 UNL     1       7.468  21.204   3.438  1.00  0.00     0.017 A
HETATM   27  N3  UNL     1       6.438  21.851   4.005  1.00  0.00    -0.363 N
HETATM   28  C15 UNL     1       5.312  21.136   3.897  1.00  0.00     0.006 A
ATOM     29  H3  UNL     1       6.504  22.764   4.457  1.00  0.00     0.165 HD
HETATM   30  C16 UNL     1       3.932  21.477   4.386  1.00  0.00     0.068 C
HETATM   31  C17 UNL     1       5.612  19.973   3.234  1.00  0.00     0.033 A
HETATM   32  C18 UNL     1       6.971  20.023   2.949  1.00  0.00    -0.037 A
HETATM   33  C19 UNL     1       7.725  18.934   2.226  1.00  0.00     0.050 C
ENDBRANCH  25  26
ENDBRANCH  12  25
BRANCH  15  34
HETATM   34  O3  UNL     1       6.569  23.829   0.797  1.00  0.00    -0.345 OA
ATOM     35  H3  UNL     1       5.633  23.705   0.904  1.00  0.00     0.219 HD
ENDBRANCH  15  34
BRANCH  16  36
HETATM   36  C22 UNL     1       6.418  26.744   2.017  1.00  0.00     0.007 C
BRANCH  36  37
HETATM   37  C23 UNL     1       7.199  27.832   2.542  1.00  0.00     0.031 C
BRANCH  37  38
HETATM   38  C24 UNL     1       8.604  28.012   2.065  1.00  0.00     0.031 C
BRANCH  38  39
HETATM   39  C25 UNL     1       8.915  26.953   0.999  1.00  0.00     0.230 C
BRANCH  39  40
HETATM   40  N5  UNL     1      10.143  26.254   1.322  1.00  0.00    -0.079 N
ATOM     41  H53 UNL     1      10.967  26.813   1.100  1.00  0.00     0.274 HD
ATOM     42  H52 UNL     1      10.280  26.172   2.329  1.00  0.00     0.274 HD
ATOM     43  H51 UNL     1      10.167  25.344   0.861  1.00  0.00     0.274 HD
ENDBRANCH  39  40
ENDBRANCH  38  39
ENDBRANCH  37  38
ENDBRANCH  36  37
ENDBRANCH  16  36
BRANCH   4  44
HETATM   44  O1  UNL     1       9.994  25.985   4.207  1.00  0.00    -0.348 OA
ATOM     45  H1  UNL     1      10.788  25.855   3.702  1.00  0.00     0.219 HD
ENDBRANCH   4  44
BRANCH  19  46
HETATM   46  O4  UNL     1       4.376  25.191   5.522  1.00  0.00    -0.348 OA
ATOM     47  H4  UNL     1       4.313  25.275   6.466  1.00  0.00     0.219 HD
ENDBRANCH  19  46
BRANCH   1  48
HETATM   48  C4  UNL     1       7.952  26.118   8.328  1.00  0.00     0.035 C
BRANCH  48  49
HETATM   49  C3  UNL     1       8.626  25.171   9.203  1.00  0.00     0.002 C
BRANCH  49  50
HETATM   50  C2  UNL     1       9.849  25.553   9.937  1.00  0.00    -0.004 C
HETATM   51  C1  UNL     1      11.165  25.503   9.285  1.00  0.00     0.005 C
ENDBRANCH  49  50
ENDBRANCH  48  49
ENDBRANCH   1  48
BRANCH  20  52
HETATM   52  C28 UNL     1       4.417  28.084   5.323  1.00  0.00     0.090 C
BRANCH  52  53
HETATM   53  C29 UNL     1       3.251  27.990   6.208  1.00  0.00     0.013 A
HETATM   54  C30 UNL     1       3.445  28.343   7.548  1.00  0.00     0.025 A
HETATM   55  C31 UNL     1       2.408  28.334   8.442  1.00  0.00     0.003 A
HETATM   56  C32 UNL     1       1.153  27.959   7.964  1.00  0.00     0.017 A
HETATM   57  C33 UNL     1       0.954  27.616   6.668  1.00  0.00     0.090 A
HETATM   58  N7  UNL     1       2.030  27.643   5.812  1.00  0.00    -0.364 N
HETATM   59  C34 UNL     1       1.778  27.341   4.405  1.00  0.00     0.155 C
ENDBRANCH  52  53
ENDBRANCH  20  52
TORSDOF 15
ENDMDL