MODEL 4
REMARK VINA RESULT: -8.155129777      2.323      8.909
REMARK  13 active torsions:
REMARK  status: ('A' for Active; 'I' for Inactive)
REMARK    1  A    between atoms: C2_2  and  C3_3
REMARK    2  A    between atoms: C3_3  and  C4_4
REMARK    3  A    between atoms: C4_4  and  C5_5
REMARK    4  A    between atoms: C7_10  and  C8_11
REMARK    5  A    between atoms: N2_20  and  C17_21
REMARK    6  A    between atoms: C17_21  and  C18_22
REMARK    7  A    between atoms: C17_21  and  C20_24
REMARK    8  A    between atoms: C20_24  and  C21_25
REMARK       I    between atoms: C21_25  and  N3_27
REMARK    9  A    between atoms: C23_34  and  O3_35
REMARK   10  A    between atoms: C24_37  and  C25_38
REMARK   11  A    between atoms: C29_45  and  C30_46
REMARK   12  A    between atoms: C30_46  and  C31_47
REMARK   13  A    between atoms: C34_52  and  O5_53
ROOT
HETATM    1  C5  UNL     1      10.096  23.807   1.972  1.00  0.00     0.159 C
HETATM    2  N1  UNL     1       8.932  24.634   1.505  1.00  0.00    -0.347 N
ATOM      3  H1  UNL     1       8.461  24.319   0.657  1.00  0.00     0.163 HD
HETATM    4  C6  UNL     1       8.428  25.778   2.101  1.00  0.00     0.243 C
HETATM    5  O1  UNL     1       8.518  26.862   1.460  1.00  0.00    -0.271 OA
HETATM    6  C7  UNL     1       7.756  25.953   3.458  1.00  0.00     0.209 C
HETATM    7  N6  UNL     1       8.386  27.006   4.181  1.00  0.00    -0.354 N
ATOM      8  H6  UNL     1       8.515  27.797   3.549  1.00  0.00     0.162 HD
HETATM    9  C23 UNL     1       8.887  27.356   5.423  1.00  0.00     0.160 C
HETATM   10  C24 UNL     1       9.723  26.922   6.490  1.00  0.00     0.066 C
HETATM   11  N7  UNL     1      10.900  26.249   6.678  1.00  0.00    -0.325 N
ATOM     12  H7  UNL     1      11.090  26.354   7.674  1.00  0.00     0.169 HD
HETATM   13  C28 UNL     1      11.975  25.492   6.204  1.00  0.00     0.244 C
HETATM   14  O4  UNL     1      13.196  25.851   6.369  1.00  0.00    -0.271 OA
HETATM   15  C29 UNL     1      11.907  24.163   5.441  1.00  0.00     0.176 C
HETATM   16  N8  UNL     1      10.912  24.373   4.442  1.00  0.00    -0.359 N
ATOM     17  H8  UNL     1      10.009  24.454   4.910  1.00  0.00     0.162 HD
HETATM   18  C34 UNL     1      10.704  24.505   3.121  1.00  0.00     0.135 C
ENDROOT
BRANCH   6  19
HETATM   19  C8  UNL     1       6.292  25.899   3.235  1.00  0.00     0.259 C
HETATM   20  C9  UNL     1       5.667  24.539   3.237  1.00  0.00     0.026 C
HETATM   21  C10 UNL     1       5.181  23.866   4.411  1.00  0.00     0.007 C
HETATM   22  C14 UNL     1       4.546  24.486   2.185  1.00  0.00    -0.007 C
HETATM   23  C11 UNL     1       5.121  22.352   4.032  1.00  0.00     0.000 C
HETATM   24  C12 UNL     1       3.845  22.267   3.184  1.00  0.00     0.000 C
HETATM   25  C13 UNL     1       3.879  23.201   2.030  1.00  0.00     0.005 C
HETATM   26  C15 UNL     1       3.657  25.674   2.439  1.00  0.00     0.035 C
HETATM   27  C16 UNL     1       4.465  26.962   2.399  1.00  0.00     0.274 C
HETATM   28  N2  UNL     1       5.429  26.996   3.502  1.00  0.00     0.101 N
BRANCH  28  29
HETATM   29  C17 UNL     1       4.726  27.201   4.657  1.00  0.00     0.232 C
BRANCH  29  30
HETATM   30  C18 UNL     1       5.310  27.059   6.009  1.00  0.00     0.032 C
HETATM   31  C19 UNL     1       4.349  26.326   6.909  1.00  0.00     0.007 C
ENDBRANCH  29  30
BRANCH  29  32
HETATM   32  C20 UNL     1       3.923  28.474   4.653  1.00  0.00     0.139 C
BRANCH  32  33
HETATM   33  C21 UNL     1       2.503  28.358   5.041  1.00  0.00     0.225 C
HETATM   34  O2  UNL     1       1.773  27.439   4.580  1.00  0.00    -0.273 OA
HETATM   35  N3  UNL     1       1.821  29.211   5.927  1.00  0.00    -0.304 N
HETATM   36  C22 UNL     1       2.181  29.847   6.931  1.00  0.00     0.203 C
ATOM     37  H3  UNL     1       0.834  29.329   5.701  1.00  0.00     0.171 HD
HETATM   38  N4  UNL     1       3.475  29.893   7.500  1.00  0.00    -0.066 NA
HETATM   39  N5  UNL     1       1.176  30.629   7.607  1.00  0.00    -0.066 NA
ENDBRANCH  32  33
ENDBRANCH  29  32
ENDBRANCH  28  29
ENDBRANCH   6  19
BRANCH   9  40
HETATM   40  O3  UNL     1       8.357  28.563   5.671  1.00  0.00    -0.345 OA
ATOM     41  H3  UNL     1       9.106  29.119   5.853  1.00  0.00     0.219 HD
ENDBRANCH   9  40
BRANCH   1  42
HETATM   42  C4  UNL     1       9.706  22.393   2.132  1.00  0.00     0.033 C
BRANCH  42  43
HETATM   43  C3  UNL     1       8.240  22.105   1.933  1.00  0.00     0.002 C
BRANCH  43  44
HETATM   44  C2  UNL     1       7.870  20.855   2.708  1.00  0.00    -0.004 C
HETATM   45  C1  UNL     1       8.823  19.728   2.406  1.00  0.00     0.005 C
ENDBRANCH  43  44
ENDBRANCH  42  43
ENDBRANCH   1  42
BRANCH  10  46
HETATM   46  C25 UNL     1       8.722  26.474   7.587  1.00  0.00     0.032 C
HETATM   47  C26 UNL     1       8.485  27.537   8.616  1.00  0.00     0.016 C
HETATM   48  C27 UNL     1       9.052  25.207   8.250  1.00  0.00     0.016 C
ENDBRANCH  10  46
BRANCH  18  49
HETATM   49  O5  UNL     1      11.160  25.619   2.581  1.00  0.00    -0.348 OA
ATOM     50  H5  UNL     1      10.982  26.268   3.252  1.00  0.00     0.219 HD
ENDBRANCH  18  49
BRANCH  15  51
HETATM   51  C30 UNL     1      11.363  23.067   6.362  1.00  0.00     0.038 C
BRANCH  51  52
HETATM   52  C31 UNL     1      12.471  22.205   6.910  1.00  0.00    -0.020 C
HETATM   53  C32 UNL     1      13.615  22.283   5.908  1.00  0.00     0.009 C
HETATM   54  C33 UNL     1      13.001  22.723   8.229  1.00  0.00     0.009 C
ENDBRANCH  51  52
ENDBRANCH  15  51
TORSDOF 13
ENDMDL