MODEL 1
REMARK VINA RESULT: -9.490263595      0.000      0.000
REMARK  11 active torsions:
REMARK  status: ('A' for Active; 'I' for Inactive)
REMARK    1  A    between atoms: C2_2  and  N1_3
REMARK       I    between atoms: N1_3  and  C3_5
REMARK    2  A    between atoms: C3_5  and  C4_7
REMARK    3  A    between atoms: C4_7  and  C5_8
REMARK    4  A    between atoms: C8_11  and  C9_12
REMARK       I    between atoms: C9_12  and  N2_14
REMARK    5  A    between atoms: C21_29  and  C22_30
REMARK    6  A    between atoms: C22_30  and  C23_31
REMARK    7  A    between atoms: C22_30  and  N5_34
REMARK    8  A    between atoms: C28_37  and  C29_38
REMARK    9  A    between atoms: C29_38  and  C30_39
REMARK   10  A    between atoms: C30_39  and  C31_40
REMARK   11  A    between atoms: C31_40  and  N6_41
ROOT
HETATM    1  C9  UNL     1       9.774  23.932   4.937  1.00  0.00     0.247 C
HETATM    2  O2  UNL     1       9.496  24.583   5.980  1.00  0.00    -0.271 OA
HETATM    3  N2  UNL     1       8.893  24.095   3.867  1.00  0.00    -0.312 N
HETATM    4  C10 UNL     1       9.362  23.082   2.792  1.00  0.00     0.167 C
HETATM    5  C11 UNL     1       8.264  22.196   2.652  1.00  0.00    -0.048 C
HETATM    6  C12 UNL     1       7.348  22.708   1.597  1.00  0.00     0.056 C
HETATM    7  C13 UNL     1       6.049  23.256   2.122  1.00  0.00     0.126 C
HETATM    8  N3  UNL     1       6.106  23.116   3.536  1.00  0.00    -0.387 N
HETATM    9  C14 UNL     1       5.513  21.998   4.104  1.00  0.00     0.064 C
HETATM   10  C15 UNL     1       5.500  20.678   3.433  1.00  0.00     0.102 C
HETATM   11  C16 UNL     1       6.855  20.145   2.996  1.00  0.00     0.024 A
HETATM   12  N4  UNL     1       7.061  18.833   2.867  1.00  0.00    -0.368 N
ATOM     13  H4  UNL     1       6.362  18.111   3.044  1.00  0.00     0.165 HD
HETATM   14  C17 UNL     1       8.321  18.604   2.470  1.00  0.00     0.089 A
HETATM   15  C18 UNL     1       8.961  19.813   2.337  1.00  0.00     0.030 A
HETATM   16  C19 UNL     1       8.075  20.764   2.655  1.00  0.00    -0.008 A
HETATM   17  C20 UNL     1       6.432  24.277   4.277  1.00  0.00     0.181 C
HETATM   18  C21 UNL     1       7.790  24.954   3.845  1.00  0.00     0.055 C
ENDROOT
BRANCH  18  19
HETATM   19  C22 UNL     1       7.678  26.414   3.863  1.00  0.00     0.039 C
BRANCH  19  20
HETATM   20  C23 UNL     1       8.354  27.064   2.614  1.00  0.00     0.029 C
HETATM   21  C24 UNL     1       8.934  25.995   1.720  1.00  0.00     0.016 C
HETATM   22  C25 UNL     1       7.493  28.015   1.861  1.00  0.00     0.016 C
ENDBRANCH  19  20
BRANCH  19  23
HETATM   23  N5  UNL     1       7.616  27.270   4.927  1.00  0.00    -0.362 N
HETATM   24  C26 UNL     1       6.583  27.940   5.518  1.00  0.00     0.064 C
HETATM   25  C27 UNL     1       6.646  28.221   6.995  1.00  0.00     0.049 C
HETATM   26  C28 UNL     1       7.970  28.208   7.626  1.00  0.00    -0.008 C
HETATM   27  C33 UNL     1       9.122  27.789   6.792  1.00  0.00     0.025 C
HETATM   28  C34 UNL     1       8.810  27.965   5.356  1.00  0.00     0.128 C
BRANCH  26  29
HETATM   29  C29 UNL     1       8.010  27.295   8.865  1.00  0.00     0.006 C
BRANCH  29  30
HETATM   30  C30 UNL     1       8.465  25.903   8.534  1.00  0.00     0.020 C
BRANCH  30  31
HETATM   31  C31 UNL     1       9.482  25.357   9.512  1.00  0.00     0.122 C
BRANCH  31  32
HETATM   32  N6  UNL     1      10.795  25.203   8.968  1.00  0.00    -0.367 N
HETATM   33  C32 UNL     1      11.717  26.093   8.912  1.00  0.00     0.196 C
HETATM   34  N7  UNL     1      11.577  27.412   9.395  1.00  0.00    -0.067 NA
HETATM   35  N8  UNL     1      12.986  25.744   8.321  1.00  0.00    -0.067 NA
ATOM     36  H6  UNL     1      11.023  24.286   8.585  1.00  0.00     0.161 HD
ENDBRANCH  31  32
ENDBRANCH  30  31
ENDBRANCH  29  30
ENDBRANCH  26  29
ENDBRANCH  19  23
ENDBRANCH  18  19
BRANCH   1  37
HETATM   37  C8  UNL     1      11.001  23.135   5.088  1.00  0.00     0.177 C
HETATM   38  C7  UNL     1      11.556  23.044   6.482  1.00  0.00     0.036 C
HETATM   39  C6  UNL     1      12.926  22.398   6.407  1.00  0.00     0.017 C
HETATM   40  C5  UNL     1      13.917  23.437   6.017  1.00  0.00     0.086 C
HETATM   41  C35 UNL     1      13.264  24.302   4.997  1.00  0.00     0.223 C
HETATM   42  N9  UNL     1      12.080  23.919   4.391  1.00  0.00    -0.347 N
HETATM   43  O3  UNL     1      13.826  25.383   4.709  1.00  0.00    -0.273 OA
ATOM     44  H9  UNL     1      11.931  24.182   3.417  1.00  0.00     0.163 HD
BRANCH  40  45
HETATM   45  C4  UNL     1      15.255  22.958   5.593  1.00  0.00     0.117 C
BRANCH  45  46
HETATM   46  C3  UNL     1      15.286  22.000   4.489  1.00  0.00     0.218 C
HETATM   47  N1  UNL     1      16.028  20.798   4.640  1.00  0.00    -0.361 N
ATOM     48  H1  UNL     1      16.525  20.622   5.513  1.00  0.00     0.162 HD
HETATM   49  O1  UNL     1      14.688  22.170   3.386  1.00  0.00    -0.274 OA
BRANCH  47  50
HETATM   50  C2  UNL     1      16.091  19.812   3.570  1.00  0.00     0.118 C
HETATM   51  C1  UNL     1      15.842  18.445   4.148  1.00  0.00     0.026 C
ENDBRANCH  47  50
ENDBRANCH  45  46
ENDBRANCH  40  45
ENDBRANCH   1  37
TORSDOF 11
ENDMDL