MODEL 4
REMARK VINA RESULT: -9.677191266      4.919     10.100
REMARK  14 active torsions:
REMARK  status: ('A' for Active; 'I' for Inactive)
REMARK       I    between atoms: N1_2  and  C2_4
REMARK       I    between atoms: C2_4  and  N9_46
REMARK    1  A    between atoms: N2_5  and  C3_7
REMARK    2  A    between atoms: C3_7  and  C4_8
REMARK    3  A    between atoms: C4_8  and  C5_9
REMARK    4  A    between atoms: C5_9  and  C6_10
REMARK    5  A    between atoms: C6_10  and  N3_11
REMARK       I    between atoms: C7_13  and  N5_15
REMARK    6  A    between atoms: N5_15  and  C8_17
REMARK    7  A    between atoms: C8_17  and  C9_18
REMARK    8  A    between atoms: C9_18  and  C10_19
REMARK    9  A    between atoms: C10_19  and  N6_20
REMARK   10  A    between atoms: N6_20  and  C11_22
REMARK   11  A    between atoms: N7_25  and  C14_26
REMARK   12  A    between atoms: C14_26  and  C15_27
REMARK   13  A    between atoms: C27_39  and  C28_40
REMARK   14  A    between atoms: N9_46  and  C32_48
ROOT
HETATM    1  C9  UNL     1       7.280  26.141   2.620  1.00  0.00     0.039 C
ENDROOT
BRANCH   1   2
HETATM    2  C8  UNL     1       8.642  26.222   1.979  1.00  0.00     0.123 C
BRANCH   2   3
HETATM    3  N5  UNL     1       9.201  24.984   1.538  1.00  0.00    -0.365 N
HETATM    4  C7  UNL     1      10.440  24.411   1.869  1.00  0.00     0.183 C
HETATM    5  N3  UNL     1      10.514  23.103   2.018  1.00  0.00    -0.365 N
HETATM    6  N4  UNL     1      11.620  25.145   2.053  1.00  0.00    -0.064 NA
ATOM      7  H3  UNL     1      11.399  22.655   2.256  1.00  0.00     0.162 HD
ATOM      8  H5  UNL     1       8.622  24.443   0.896  1.00  0.00     0.162 HD
BRANCH   5   9
HETATM    9  C6  UNL     1       9.308  22.309   1.837  1.00  0.00     0.122 C
BRANCH   9  10
HETATM   10  C5  UNL     1       9.007  21.453   3.034  1.00  0.00     0.021 C
BRANCH  10  11
HETATM   11  C4  UNL     1       7.757  20.671   2.797  1.00  0.00     0.022 C
BRANCH  11  12
HETATM   12  C3  UNL     1       6.509  21.480   3.054  1.00  0.00     0.138 C
BRANCH  12  13
HETATM   13  N2  UNL     1       5.721  20.854   4.050  1.00  0.00    -0.226 N
HETATM   14  C2  UNL     1       4.658  21.087   4.642  1.00  0.00     0.675 C
HETATM   15  N1  UNL     1       4.305  20.033   5.620  1.00  0.00    -0.231 N
HETATM   16  N9  UNL     1       3.828  22.149   4.546  1.00  0.00    -0.175 N
HETATM   17  C1  UNL     1       4.277  18.673   5.194  1.00  0.00     0.165 C
ATOM     18  H1  UNL     1       4.086  20.277   6.585  1.00  0.00     0.177 HD
ATOM     19  H9  UNL     1       2.869  21.806   4.484  1.00  0.00     0.186 HD
ATOM     20  H2  UNL     1       6.140  19.980   4.364  1.00  0.00     0.177 HD
BRANCH  16  21
HETATM   21  C32 UNL     1       3.803  23.386   4.507  1.00  0.00     0.142 A
HETATM   22  N10 UNL     1       3.906  24.315   5.497  1.00  0.00    -0.285 N
HETATM   23  N11 UNL     1       3.833  25.534   5.007  1.00  0.00    -0.310 N
ATOM     24  H10 UNL     1       4.023  24.095   6.486  1.00  0.00     0.188 HD
HETATM   25  C33 UNL     1       3.677  25.471   3.658  1.00  0.00     0.117 A
ATOM     26  H11 UNL     1       3.885  26.394   5.554  1.00  0.00     0.186 HD
HETATM   27  C34 UNL     1       3.656  24.151   3.330  1.00  0.00     0.001 A
HETATM   28  C35 UNL     1       3.500  23.541   1.999  1.00  0.00     0.054 C
ENDBRANCH  16  21
ENDBRANCH  12  13
ENDBRANCH  11  12
ENDBRANCH  10  11
ENDBRANCH   9  10
ENDBRANCH   5   9
ENDBRANCH   2   3
ENDBRANCH   1   2
BRANCH   1  29
HETATM   29  C10 UNL     1       7.348  25.058   3.658  1.00  0.00     0.121 C
BRANCH  29  30
HETATM   30  N6  UNL     1       7.472  25.531   5.023  1.00  0.00    -0.389 N
ATOM     31  H6  UNL     1       6.623  25.822   5.508  1.00  0.00     0.159 HD
BRANCH  30  32
HETATM   32  C11 UNL     1       8.547  25.606   5.638  1.00  0.00     0.042 A
HETATM   33  C12 UNL     1       9.642  24.846   5.238  1.00  0.00     0.047 A
HETATM   34  C13 UNL     1      10.822  24.869   5.907  1.00  0.00     0.093 A
HETATM   35  N7  UNL     1      11.022  25.633   7.002  1.00  0.00    -0.355 N
HETATM   36  C25 UNL     1       9.958  26.391   7.399  1.00  0.00     0.043 A
HETATM   37  C26 UNL     1       8.705  26.403   6.754  1.00  0.00     0.028 A
HETATM   38  C31 UNL     1      10.240  27.238   8.359  1.00  0.00     0.004 C
HETATM   39  C27 UNL     1       7.713  27.138   7.192  1.00  0.00     0.022 C
HETATM   40  C29 UNL     1       7.886  27.817   8.554  1.00  0.00     0.049 C
HETATM   41  C30 UNL     1       9.245  28.148   8.919  1.00  0.00     0.034 C
BRANCH  35  42
HETATM   42  C14 UNL     1      12.283  25.597   7.698  1.00  0.00     0.138 C
BRANCH  42  43
HETATM   43  C15 UNL     1      13.112  24.374   7.506  1.00  0.00    -0.023 C
HETATM   44  C16 UNL     1      14.277  24.413   8.508  1.00  0.00     0.015 C
HETATM   45  C17 UNL     1      15.151  23.215   8.414  1.00  0.00    -0.013 C
HETATM   46  C18 UNL     1      14.357  21.924   8.473  1.00  0.00     0.009 C
HETATM   47  C22 UNL     1      15.862  23.264   7.082  1.00  0.00     0.009 C
HETATM   48  C19 UNL     1      13.400  21.918   7.316  1.00  0.00    -0.013 C
HETATM   49  C20 UNL     1      14.062  22.019   5.971  1.00  0.00     0.009 C
HETATM   50  C24 UNL     1      12.424  23.066   7.562  1.00  0.00     0.015 C
HETATM   51  C21 UNL     1      14.829  23.348   5.977  1.00  0.00    -0.013 C
HETATM   52  C23 UNL     1      13.830  24.433   6.140  1.00  0.00     0.015 C
ENDBRANCH  42  43
ENDBRANCH  35  42
BRANCH  39  53
HETATM   53  C28 UNL     1       6.398  27.265   6.634  1.00  0.00     0.262 C
HETATM   54  N8  UNL     1       5.382  26.419   7.365  1.00  0.00    -0.057 NA
HETATM   55  O1  UNL     1       5.842  27.834   5.767  1.00  0.00    -0.271 OA
ENDBRANCH  39  53
ENDBRANCH  30  32
ENDBRANCH  29  30
ENDBRANCH   1  29
TORSDOF 14
ENDMDL