MODEL 2
REMARK VINA RESULT: -8.720277001      1.525      1.940
REMARK  11 active torsions:
REMARK  status: ('A' for Active; 'I' for Inactive)
REMARK    1  A    between atoms: N1_6  and  C6_7
REMARK    2  A    between atoms: C6_7  and  C7_8
REMARK    3  A    between atoms: C6_7  and  C16_24
REMARK       I    between atoms: C7_8  and  N2_10
REMARK       I    between atoms: N2_10  and  C8_12
REMARK       I    between atoms: C8_12  and  N3_14
REMARK    4  A    between atoms: N3_14  and  C9_16
REMARK    5  A    between atoms: C16_24  and  C17_25
REMARK    6  A    between atoms: C16_24  and  N8_34
REMARK    7  A    between atoms: C17_25  and  C18_26
REMARK    8  A    between atoms: C18_26  and  C19_27
REMARK    9  A    between atoms: C19_27  and  C20_28
REMARK   10  A    between atoms: C20_28  and  N5_29
REMARK       I    between atoms: N8_34  and  C22_36
REMARK   11  A    between atoms: C22_36  and  C23_38
ROOT
HETATM    1  C16 UNL     1       9.904  25.349   4.890  1.00  0.00     0.127 C
ENDROOT
BRANCH   1   2
HETATM    2  C6  UNL     1      10.109  25.035   6.323  1.00  0.00     0.337 C
BRANCH   2   3
HETATM    3  N1  UNL     1       9.919  26.122   7.179  1.00  0.00     0.108 N
HETATM    4  C5  UNL     1      11.010  26.370   8.101  1.00  0.00     0.274 C
HETATM    5  C4  UNL     1      10.818  27.658   8.867  1.00  0.00     0.031 C
HETATM    6  C3  UNL     1       9.507  28.324   8.509  1.00  0.00     0.008 C
HETATM    7  C2  UNL     1       8.446  27.286   8.769  1.00  0.00     0.014 C
HETATM    8  C1  UNL     1       7.107  27.891   8.483  1.00  0.00     0.012 C
HETATM    9  C33 UNL     1       8.709  26.004   7.957  1.00  0.00     0.224 C
HETATM   10  C34 UNL     1       8.714  24.805   8.889  1.00  0.00     0.043 C
ENDBRANCH   2   3
BRANCH   2  11
HETATM   11  C7  UNL     1      11.381  24.290   6.481  1.00  0.00     0.261 C
HETATM   12  O1  UNL     1      11.422  23.381   7.324  1.00  0.00    -0.271 OA
HETATM   13  N2  UNL     1      12.541  24.533   5.753  1.00  0.00    -0.277 N
HETATM   14  C8  UNL     1      13.794  23.930   5.852  1.00  0.00     0.323 C
ATOM     15  H2  UNL     1      12.463  25.260   5.041  1.00  0.00     0.173 HD
HETATM   16  O2  UNL     1      14.709  24.393   5.068  1.00  0.00    -0.247 OA
HETATM   17  N3  UNL     1      14.213  22.885   6.685  1.00  0.00    -0.338 N
ATOM     18  H3  UNL     1      13.548  22.460   7.332  1.00  0.00     0.164 HD
BRANCH  17  19
HETATM   19  C9  UNL     1      15.578  22.396   6.641  1.00  0.00     0.089 C
HETATM   20  C10 UNL     1      16.453  23.188   7.532  1.00  0.00     0.053 C
HETATM   21  C11 UNL     1      16.511  22.563   8.914  1.00  0.00     0.238 C
HETATM   22  N4  UNL     1      17.057  21.232   8.900  1.00  0.00    -0.075 N
HETATM   23  C12 UNL     1      16.463  20.388   9.941  1.00  0.00     0.272 C
HETATM   24  C13 UNL     1      18.493  21.300   9.168  1.00  0.00     0.272 C
HETATM   25  C14 UNL     1      16.894  20.565   7.619  1.00  0.00     0.238 C
HETATM   26  C15 UNL     1      15.534  20.926   7.031  1.00  0.00     0.053 C
ENDBRANCH  17  19
ENDBRANCH   2  11
ENDBRANCH   1   2
BRANCH   1  27
HETATM   27  C17 UNL     1       9.747  26.818   4.580  1.00  0.00     0.028 C
BRANCH  27  28
HETATM   28  C18 UNL     1       8.493  27.283   3.988  1.00  0.00     0.004 C
BRANCH  28  29
HETATM   29  C19 UNL     1       7.389  27.711   4.915  1.00  0.00     0.020 C
BRANCH  29  30
HETATM   30  C20 UNL     1       6.023  27.283   4.494  1.00  0.00     0.122 C
BRANCH  30  31
HETATM   31  N5  UNL     1       5.375  26.614   5.593  1.00  0.00    -0.367 N
HETATM   32  C21 UNL     1       4.302  26.951   6.190  1.00  0.00     0.196 C
HETATM   33  N6  UNL     1       3.789  26.157   7.288  1.00  0.00    -0.067 NA
HETATM   34  N7  UNL     1       3.516  28.089   5.867  1.00  0.00    -0.067 NA
ATOM     35  H5  UNL     1       5.831  25.767   5.934  1.00  0.00     0.161 HD
ENDBRANCH  30  31
ENDBRANCH  29  30
ENDBRANCH  28  29
ENDBRANCH  27  28
ENDBRANCH   1  27
BRANCH   1  36
HETATM   36  N8  UNL     1       8.739  24.708   4.335  1.00  0.00    -0.352 N
HETATM   37  C22 UNL     1       8.829  24.100   3.023  1.00  0.00     0.240 C
HETATM   38  O3  UNL     1       9.894  24.132   2.385  1.00  0.00    -0.271 OA
ATOM     39  H8  UNL     1       7.864  24.682   4.859  1.00  0.00     0.163 HD
BRANCH  37  40
HETATM   40  C23 UNL     1       7.649  23.425   2.409  1.00  0.00     0.176 C
HETATM   41  C24 UNL     1       6.606  24.522   2.114  1.00  0.00     0.035 C
HETATM   42  C25 UNL     1       5.316  23.972   1.609  1.00  0.00     0.012 C
HETATM   43  C26 UNL     1       4.286  23.695   2.635  1.00  0.00    -0.032 C
HETATM   44  C27 UNL     1       3.421  22.508   2.287  1.00  0.00     0.016 C
HETATM   45  C28 UNL     1       3.341  24.839   2.936  1.00  0.00     0.010 C
HETATM   46  C31 UNL     1       4.861  23.506   4.030  1.00  0.00     0.086 C
HETATM   47  C29 UNL     1       2.681  24.361   4.238  1.00  0.00     0.002 C
HETATM   48  C30 UNL     1       3.617  23.293   4.816  1.00  0.00     0.015 C
HETATM   49  C32 UNL     1       5.800  22.379   3.972  1.00  0.00     0.223 C
HETATM   50  O4  UNL     1       5.483  21.271   4.435  1.00  0.00    -0.273 OA
HETATM   51  N9  UNL     1       7.104  22.492   3.390  1.00  0.00    -0.347 N
ATOM     52  H9  UNL     1       7.771  21.796   3.721  1.00  0.00     0.163 HD
ENDBRANCH  37  40
ENDBRANCH   1  36
TORSDOF 11
ENDMDL