MODEL 3
REMARK VINA RESULT: -7.168809155      1.169      1.432
REMARK  13 active torsions:
REMARK  status: ('A' for Active; 'I' for Inactive)
REMARK    1  A    between atoms: C2_2  and  C3_3
REMARK    2  A    between atoms: C3_3  and  C4_4
REMARK    3  A    between atoms: C4_4  and  C5_5
REMARK    4  A    between atoms: C5_5  and  C6_6
REMARK    5  A    between atoms: C6_6  and  C7_7
REMARK    6  A    between atoms: C8_10  and  O1_11
REMARK    7  A    between atoms: C19_27  and  C20_28
REMARK    8  A    between atoms: C20_28  and  C21_29
REMARK    9  A    between atoms: N5_37  and  C26_38
REMARK   10  A    between atoms: C26_38  and  C27_39
REMARK   11  A    between atoms: C28_42  and  O6_43
REMARK   12  A    between atoms: C29_45  and  C30_46
REMARK   13  A    between atoms: C30_46  and  C31_47
ROOT
HETATM    1  C7  UNL     1      10.449  24.621   6.922  1.00  0.00     0.175 C
HETATM    2  N1  UNL     1       9.113  25.070   6.671  1.00  0.00    -0.360 N
ATOM      3  H1  UNL     1       8.395  24.459   7.059  1.00  0.00     0.162 HD
HETATM    4  C8  UNL     1       8.603  26.176   6.001  1.00  0.00     0.139 C
HETATM    5  C9  UNL     1       8.450  27.576   6.424  1.00  0.00     0.325 C
HETATM    6  N2  UNL     1       7.046  27.933   6.569  1.00  0.00    -0.044 N
HETATM    7  C10 UNL     1       6.988  29.299   7.029  1.00  0.00     0.279 C
HETATM    8  C11 UNL     1       6.351  27.862   5.319  1.00  0.00     0.199 C
HETATM    9  C12 UNL     1       5.270  27.206   4.912  1.00  0.00     0.005 C
HETATM   10  C13 UNL     1       4.313  26.274   5.548  1.00  0.00     0.027 C
HETATM   11  C14 UNL     1       3.942  26.636   6.952  1.00  0.00     0.012 C
HETATM   12  C15 UNL     1       4.922  27.594   7.576  1.00  0.00     0.029 C
HETATM   13  C16 UNL     1       6.347  27.093   7.489  1.00  0.00     0.243 C
HETATM   14  C17 UNL     1       4.693  24.823   5.443  1.00  0.00     0.131 C
HETATM   15  N3  UNL     1       3.672  23.999   4.832  1.00  0.00    -0.359 N
ATOM     16  H3  UNL     1       2.708  24.186   5.110  1.00  0.00     0.162 HD
HETATM   17  C18 UNL     1       3.869  22.962   3.890  1.00  0.00     0.240 C
HETATM   18  O2  UNL     1       3.477  21.788   4.247  1.00  0.00    -0.271 OA
HETATM   19  C19 UNL     1       4.468  23.067   2.558  1.00  0.00     0.177 C
HETATM   20  N4  UNL     1       5.613  23.985   2.538  1.00  0.00    -0.346 N
ATOM     21  H4  UNL     1       5.396  24.975   2.663  1.00  0.00     0.163 HD
HETATM   22  C24 UNL     1       6.955  23.671   2.368  1.00  0.00     0.236 C
HETATM   23  O3  UNL     1       7.642  24.256   1.445  1.00  0.00    -0.272 OA
HETATM   24  C25 UNL     1       7.743  22.682   3.177  1.00  0.00     0.228 C
HETATM   25  N5  UNL     1       8.996  22.365   2.467  1.00  0.00    -0.345 N
HETATM   26  C28 UNL     1      10.212  23.030   2.666  1.00  0.00     0.137 C
HETATM   27  C29 UNL     1      10.877  23.469   3.876  1.00  0.00     0.159 C
HETATM   28  N6  UNL     1      10.368  22.802   5.088  1.00  0.00    -0.347 N
ATOM     29  H6  UNL     1       9.784  21.977   4.957  1.00  0.00     0.163 HD
HETATM   30  C34 UNL     1      10.617  23.207   6.396  1.00  0.00     0.241 C
HETATM   31  O7  UNL     1      11.021  22.327   7.232  1.00  0.00    -0.271 OA
ENDROOT
BRANCH   1  32
HETATM   32  C6  UNL     1      10.723  24.612   8.400  1.00  0.00     0.035 C
BRANCH  32  33
HETATM   33  C5  UNL     1      11.732  25.588   8.881  1.00  0.00     0.002 C
BRANCH  33  34
HETATM   34  C4  UNL     1      13.118  25.321   8.345  1.00  0.00     0.000 C
BRANCH  34  35
HETATM   35  C3  UNL     1      13.574  23.895   8.560  1.00  0.00    -0.000 C
BRANCH  35  36
HETATM   36  C2  UNL     1      15.100  23.816   8.427  1.00  0.00    -0.005 C
HETATM   37  C1  UNL     1      15.590  22.394   8.680  1.00  0.00     0.005 C
ENDBRANCH  35  36
ENDBRANCH  34  35
ENDBRANCH  33  34
ENDBRANCH  32  33
ENDBRANCH   1  32
BRANCH   4  38
HETATM   38  O1  UNL     1       8.168  25.984   4.783  1.00  0.00    -0.348 OA
ATOM     39  H1  UNL     1       8.535  26.535   4.102  1.00  0.00     0.219 HD
ENDBRANCH   4  38
BRANCH  27  40
HETATM   40  C30 UNL     1      12.358  23.485   3.870  1.00  0.00     0.037 C
BRANCH  40  41
HETATM   41  C31 UNL     1      13.109  24.708   4.143  1.00  0.00    -0.020 C
HETATM   42  C32 UNL     1      12.522  25.807   4.936  1.00  0.00     0.009 C
HETATM   43  C33 UNL     1      14.385  24.271   4.915  1.00  0.00     0.009 C
ENDBRANCH  40  41
ENDBRANCH  27  40
BRANCH  26  44
HETATM   44  O6  UNL     1      10.857  23.308   1.568  1.00  0.00    -0.348 OA
ATOM     45  H6  UNL     1      10.417  23.933   1.003  1.00  0.00     0.219 HD
ENDBRANCH  26  44
BRANCH  25  46
HETATM   46  C26 UNL     1       8.904  21.312   1.478  1.00  0.00     0.238 C
BRANCH  46  47
HETATM   47  C27 UNL     1       9.067  19.962   2.017  1.00  0.00     0.191 C
HETATM   48  O4  UNL     1       8.306  19.459   2.870  1.00  0.00    -0.647 OA
HETATM   49  O5  UNL     1      10.116  19.176   1.571  1.00  0.00    -0.647 OA
ENDBRANCH  46  47
ENDBRANCH  25  46
BRANCH  19  50
HETATM   50  C20 UNL     1       3.570  23.549   1.459  1.00  0.00     0.038 C
BRANCH  50  51
HETATM   51  C21 UNL     1       3.805  24.852   0.829  1.00  0.00    -0.020 C
HETATM   52  C22 UNL     1       2.570  25.737   1.189  1.00  0.00     0.009 C
HETATM   53  C23 UNL     1       3.866  24.808  -0.664  1.00  0.00     0.009 C
ENDBRANCH  50  51
ENDBRANCH  19  50
TORSDOF 13
ENDMDL