MODEL 4
REMARK VINA RESULT: -4.999098188      4.563      7.148
REMARK  3 active torsions:
REMARK  status: ('A' for Active; 'I' for Inactive)
REMARK    1  A    between atoms: O1_2  and  C2_3
REMARK    2  A    between atoms: C7_8  and  N1_9
REMARK       I    between atoms: N1_9  and  C8_11
REMARK    3  A    between atoms: C10_17  and  O2_18
ROOT
HETATM    1  C2  UNL     1      50.480   7.194   3.372  1.00  0.00     0.066 C
HETATM    2  C3  UNL     1      51.183   6.148   2.489  1.00  0.00     0.043 C
HETATM    3  C4  UNL     1      50.353   4.924   2.344  1.00  0.00    -0.009 C
HETATM    4  C5  UNL     1      49.314   5.182   1.284  1.00  0.00     0.007 C
HETATM    5  C6  UNL     1      47.996   5.536   1.871  1.00  0.00     0.031 C
HETATM    6  C7  UNL     1      48.046   6.654   2.888  1.00  0.00     0.038 C
HETATM    7  C9  UNL     1      48.000   6.035   4.253  1.00  0.00     0.069 C
HETATM    8  C10 UNL     1      49.332   5.422   4.588  1.00  0.00     0.063 C
HETATM    9  C11 UNL     1      49.793   4.393   3.623  1.00  0.00     0.042 C
HETATM   10  C12 UNL     1      50.325   6.538   4.720  1.00  0.00     0.076 C
HETATM   11  C13 UNL     1      49.207   7.578   2.718  1.00  0.00     0.069 C
ENDROOT
BRANCH   6  12
HETATM   12  N1  UNL     1      46.832   7.424   2.698  1.00  0.00    -0.355 N
HETATM   13  C8  UNL     1      46.687   8.508   1.820  1.00  0.00     0.182 C
HETATM   14  N2  UNL     1      46.636   9.704   2.267  1.00  0.00    -0.374 N
HETATM   15  N3  UNL     1      46.595   8.281   0.434  1.00  0.00    -0.064 NA
ATOM     16  H22 UNL     1      46.703   9.869   3.271  1.00  0.00     0.158 HD
ATOM     17  H21 UNL     1      46.530  10.492   1.628  1.00  0.00     0.158 HD
ATOM     18  H1  UNL     1      46.015   7.155   3.248  1.00  0.00     0.163 HD
ENDBRANCH   6  12
BRANCH   8  19
HETATM   19  O2  UNL     1      49.252   4.807   5.859  1.00  0.00    -0.390 OA
ATOM     20  H2  UNL     1      48.745   4.007   5.786  1.00  0.00     0.210 HD
ENDBRANCH   8  19
BRANCH   1  21
HETATM   21  O1  UNL     1      51.341   8.256   3.378  1.00  0.00    -0.385 OA
HETATM   22  C1  UNL     1      51.901   8.635   4.553  1.00  0.00     0.202 C
ENDBRANCH   1  21
TORSDOF 3
ENDMDL