MODEL 4
REMARK VINA RESULT: -5.544354109      1.598      2.593
REMARK  4 active torsions:
REMARK  status: ('A' for Active; 'I' for Inactive)
REMARK    1  A    between atoms: C3_5  and  N2_6
REMARK    2  A    between atoms: C4_11  and  N4_12
REMARK    3  A    between atoms: C5_15  and  C6_16
REMARK    4  A    between atoms: C6_16  and  N5_17
ROOT
HETATM    1  C1  UNL     1      43.105  15.530   1.257  1.00  0.00     0.069 C
HETATM    2  C2  UNL     1      44.150  14.927   2.075  1.00  0.00     0.034 A
HETATM    3  N1  UNL     1      44.751  15.597   3.057  1.00  0.00    -0.195 N
ATOM      4  H1  UNL     1      44.500  16.582   3.147  1.00  0.00     0.184 HD
HETATM    5  C3  UNL     1      45.628  15.142   3.925  1.00  0.00     0.677 A
HETATM    6  N3  UNL     1      45.982  13.848   3.836  1.00  0.00    -0.177 N
ATOM      7  H3  UNL     1      46.654  13.439   4.485  1.00  0.00     0.185 HD
HETATM    8  C4  UNL     1      45.394  13.084   2.821  1.00  0.00     0.124 A
HETATM    9  C5  UNL     1      44.508  13.535   1.928  1.00  0.00     0.037 A
ENDROOT
BRANCH   9  10
HETATM   10  C6  UNL     1      43.874  12.864   0.809  1.00  0.00     0.317 C
BRANCH  10  11
HETATM   11  N5  UNL     1      44.528  11.741   0.219  1.00  0.00     0.093 N
HETATM   12  C7  UNL     1      45.202  12.274  -0.983  1.00  0.00     0.277 C
HETATM   13  C8  UNL     1      46.006  11.320  -1.759  1.00  0.00     0.010 C
HETATM   14  C9  UNL     1      46.380  12.026  -3.080  1.00  0.00     0.011 C
HETATM   15  C10 UNL     1      45.280  10.056  -2.101  1.00  0.00     0.012 C
HETATM   16  C11 UNL     1      43.994   9.904  -1.382  1.00  0.00     0.010 C
HETATM   17  C12 UNL     1      42.816  10.465  -2.185  1.00  0.00     0.011 C
HETATM   18  C13 UNL     1      43.914  10.528  -0.012  1.00  0.00     0.277 C
ENDBRANCH  10  11
ENDBRANCH   9  10
BRANCH   8  19
HETATM   19  N4  UNL     1      45.739  11.839   2.963  1.00  0.00    -0.385 N
ATOM     20  H42 UNL     1      46.136  11.437   3.812  1.00  0.00     0.157 HD
ATOM     21  H41 UNL     1      45.649  11.358   2.068  1.00  0.00     0.157 HD
ENDBRANCH   8  19
BRANCH   5  22
HETATM   22  N2  UNL     1      46.205  15.945   4.809  1.00  0.00    -0.234 N
ATOM     23  H22 UNL     1      46.384  15.629   5.762  1.00  0.00     0.174 HD
ATOM     24  H21 UNL     1      46.536  16.873   4.546  1.00  0.00     0.174 HD
ENDBRANCH   5  22
TORSDOF 4
ENDMDL