MODEL 3
REMARK VINA RESULT: -5.705805130      3.127      4.981
REMARK  3 active torsions:
REMARK  status: ('A' for Active; 'I' for Inactive)
REMARK    1  A    between atoms: C3_3  and  C4_4
REMARK    2  A    between atoms: C10_10  and  C11_11
REMARK    3  A    between atoms: C13_20  and  N4_21
ROOT
HETATM    1  C1  UNL     1      47.146  11.715  -1.331  1.00  0.00     0.013 C
HETATM    2  C2  UNL     1      46.426  11.262  -0.507  1.00  0.00    -0.106 C
HETATM    3  C3  UNL     1      45.527  10.728   0.504  1.00  0.00     0.033 C
HETATM    4  C6  UNL     1      44.116  11.309   0.285  1.00  0.00     0.023 C
HETATM    5  C7  UNL     1      43.531  10.767  -1.019  1.00  0.00     0.002 C
HETATM    6  C8  UNL     1      43.459   9.282  -1.048  1.00  0.00     0.001 C
HETATM    7  C9  UNL     1      44.879   8.752  -0.899  1.00  0.00     0.014 C
HETATM    8  C10 UNL     1      45.351   9.249   0.474  1.00  0.00     0.074 C
ENDROOT
BRANCH   3   9
HETATM    9  C4  UNL     1      45.939  11.138   1.883  1.00  0.00     0.019 C
HETATM   10  C5  UNL     1      45.232  12.330   2.421  1.00  0.00     0.007 C
ENDBRANCH   3   9
BRANCH   8  11
HETATM   11  C11 UNL     1      46.456   8.443   1.010  1.00  0.00     0.102 C
HETATM   12  N1  UNL     1      46.373   7.827   2.155  1.00  0.00    -0.181 N
HETATM   13  C12 UNL     1      47.413   7.038   2.714  1.00  0.00     0.676 C
ATOM     14  H1  UNL     1      45.507   7.918   2.684  1.00  0.00     0.185 HD
HETATM   15  N2  UNL     1      47.296   6.439   3.857  1.00  0.00    -0.235 N
HETATM   16  N3  UNL     1      48.643   6.877   2.022  1.00  0.00    -0.180 N
ATOM     17  H22 UNL     1      46.412   6.555   4.354  1.00  0.00     0.174 HD
ATOM     18  H21 UNL     1      48.043   5.872   4.258  1.00  0.00     0.174 HD
HETATM   19  C13 UNL     1      48.918   7.874   0.985  1.00  0.00     0.402 C
ATOM     20  H3  UNL     1      49.292   6.118   2.234  1.00  0.00     0.181 HD
HETATM   21  N5  UNL     1      47.693   8.276   0.324  1.00  0.00    -0.335 N
ATOM     22  H5  UNL     1      47.718   8.448  -0.681  1.00  0.00     0.164 HD
BRANCH  19  23
HETATM   23  N4  UNL     1      49.616   8.962   1.607  1.00  0.00    -0.040 N
ATOM     24  H43 UNL     1      50.047   9.595   0.933  1.00  0.00     0.279 HD
ATOM     25  H42 UNL     1      48.990   9.639   2.044  1.00  0.00     0.279 HD
ATOM     26  H41 UNL     1      50.288   8.561   2.263  1.00  0.00     0.279 HD
ENDBRANCH  19  23
ENDBRANCH   8  11
TORSDOF 3
ENDMDL