MODEL 1
REMARK VINA RESULT: -5.533806748      0.000      0.000
REMARK  4 active torsions:
REMARK  status: ('A' for Active; 'I' for Inactive)
REMARK    1  A    between atoms: C1_2  and  C4_7
REMARK    2  A    between atoms: C2_3  and  C3_4
REMARK    3  A    between atoms: C3_4  and  O1_5
REMARK    4  A    between atoms: C10_13  and  O2_14
ROOT
HETATM    1  C4  UNL     1      45.010  10.467  -0.683  1.00  0.00     0.043 C
HETATM    2  C5  UNL     1      46.164   9.523  -0.690  1.00  0.00     0.002 C
HETATM    3  C6  UNL     1      46.201   8.514  -1.779  1.00  0.00     0.006 C
HETATM    4  C7  UNL     1      47.279   7.537  -1.277  1.00  0.00     0.001 C
HETATM    5  C8  UNL     1      47.448   7.788   0.185  1.00  0.00     0.007 C
HETATM    6  C9  UNL     1      46.207   8.599   0.528  1.00  0.00     0.021 C
HETATM    7  C10 UNL     1      46.418   9.388   1.817  1.00  0.00     0.153 C
HETATM    8  C11 UNL     1      46.017  10.803   1.492  1.00  0.00     0.219 C
HETATM    9  N2  UNL     1      45.652  11.573   2.651  1.00  0.00    -0.068 N
ATOM     10  H21 UNL     1      46.423  11.836   3.264  1.00  0.00     0.277 HD
ATOM     11  H22 UNL     1      45.137  11.068   3.371  1.00  0.00     0.277 HD
HETATM   12  C12 UNL     1      44.935  12.686   2.026  1.00  0.00     0.233 C
HETATM   13  C13 UNL     1      44.015  12.015   1.035  1.00  0.00     0.035 C
HETATM   14  C14 UNL     1      44.655  10.681   0.785  1.00  0.00     0.030 C
ENDROOT
BRANCH   1  15
HETATM   15  C1  UNL     1      43.870  10.098  -1.515  1.00  0.00     0.027 C
HETATM   16  N1  UNL     1      43.720  10.746  -2.779  1.00  0.00    -0.107 NA
HETATM   17  C2  UNL     1      42.989   9.207  -1.121  1.00  0.00     0.021 C
BRANCH  17  18
HETATM   18  C3  UNL     1      41.836   8.869  -1.986  1.00  0.00     0.193 C
BRANCH  18  19
HETATM   19  O1  UNL     1      41.731   7.487  -2.021  1.00  0.00    -0.397 OA
ATOM     20  H1  UNL     1      41.139   7.228  -1.324  1.00  0.00     0.209 HD
ENDBRANCH  18  19
ENDBRANCH  17  18
ENDBRANCH   1  15
BRANCH   7  21
HETATM   21  O2  UNL     1      47.723   9.274   2.259  1.00  0.00    -0.393 OA
ATOM     22  H2  UNL     1      47.774   8.727   3.033  1.00  0.00     0.210 HD
ENDBRANCH   7  21
TORSDOF 4
ENDMDL