MODEL 3
REMARK VINA RESULT: -5.241333981      1.942      3.867
REMARK  6 active torsions:
REMARK  status: ('A' for Active; 'I' for Inactive)
REMARK    1  A    between atoms: C2_2  and  C4_4
REMARK    2  A    between atoms: C4_4  and  N1_5
REMARK    3  A    between atoms: N1_5  and  C5_7
REMARK    4  A    between atoms: C6_10  and  N3_11
REMARK    5  A    between atoms: C7_16  and  N5_17
REMARK    6  A    between atoms: N5_17  and  C8_19
ROOT
HETATM    1  C5  UNL     1      45.593  12.207   2.412  1.00  0.00     0.710 A
HETATM    2  N2  UNL     1      46.124  10.985   2.361  1.00  0.00    -0.021 N
ATOM      3  H2  UNL     1      46.740  10.692   3.120  1.00  0.00     0.203 HD
HETATM    4  C6  UNL     1      45.887  10.111   1.349  1.00  0.00     0.705 A
HETATM    5  N4  UNL     1      45.073  10.515   0.356  1.00  0.00    -0.022 N
ATOM      6  H4  UNL     1      44.883   9.873  -0.414  1.00  0.00     0.203 HD
HETATM    7  C7  UNL     1      44.504  11.729   0.340  1.00  0.00     0.707 A
HETATM    8  N6  UNL     1      44.780  12.547   1.371  1.00  0.00    -0.021 N
ATOM      9  H6  UNL     1      44.356  13.474   1.375  1.00  0.00     0.203 HD
ENDROOT
BRANCH   1  10
HETATM   10  N1  UNL     1      45.811  13.039   3.362  1.00  0.00    -0.204 N
ATOM     11  H1  UNL     1      46.269  12.684   4.200  1.00  0.00     0.183 HD
BRANCH  10  12
HETATM   12  C4  UNL     1      45.467  14.404   3.339  1.00  0.00     0.083 C
BRANCH  12  13
HETATM   13  C2  UNL     1      45.890  15.165   4.578  1.00  0.00     0.016 C
HETATM   14  C1  UNL     1      44.760  16.099   4.948  1.00  0.00     0.015 C
HETATM   15  C3  UNL     1      47.121  16.000   4.354  1.00  0.00     0.015 C
ENDBRANCH  12  13
ENDBRANCH  10  12
ENDBRANCH   1  10
BRANCH   4  16
HETATM   16  N3  UNL     1      46.423   8.938   1.341  1.00  0.00    -0.234 N
ATOM     17  H32 UNL     1      47.397   8.798   1.608  1.00  0.00     0.174 HD
ATOM     18  H31 UNL     1      45.887   8.114   1.067  1.00  0.00     0.174 HD
ENDBRANCH   4  16
BRANCH   7  19
HETATM   19  N5  UNL     1      43.744  12.064  -0.618  1.00  0.00    -0.217 N
ATOM     20  H5  UNL     1      42.847  11.579  -0.631  1.00  0.00     0.178 HD
BRANCH  19  21
HETATM   21  C8  UNL     1      43.922  12.989  -1.669  1.00  0.00     0.036 C
HETATM   22  C9  UNL     1      45.333  12.969  -2.225  1.00  0.00     0.038 C
HETATM   23  C10 UNL     1      43.510  14.399  -1.321  1.00  0.00     0.038 C
HETATM   24  C11 UNL     1      43.020  12.562  -2.848  1.00  0.00     0.038 C
ENDBRANCH  19  21
ENDBRANCH   7  19
TORSDOF 6
ENDMDL