MODEL 3
REMARK VINA RESULT: -5.548216669      1.762      2.222
REMARK  3 active torsions:
REMARK  status: ('A' for Active; 'I' for Inactive)
REMARK    1  A    between atoms: N1_1  and  C1_5
REMARK    2  A    between atoms: C5_12  and  N3_13
REMARK    3  A    between atoms: N3_13  and  C6_15
ROOT
HETATM    1  C1  UNL     1      42.285   9.646  -4.184  1.00  0.00     0.216 C
HETATM    2  C2  UNL     1      41.400   8.525  -4.692  1.00  0.00     0.055 C
HETATM    3  C3  UNL     1      42.026   7.161  -4.488  1.00  0.00     0.125 C
HETATM    4  N2  UNL     1      42.486   7.093  -3.119  1.00  0.00    -0.359 N
ATOM      5  H2  UNL     1      42.943   6.242  -2.789  1.00  0.00     0.162 HD
HETATM    6  C4  UNL     1      42.319   8.167  -2.233  1.00  0.00     0.242 C
HETATM    7  O1  UNL     1      42.077   7.935  -1.026  1.00  0.00    -0.271 OA
HETATM    8  C5  UNL     1      42.423   9.630  -2.691  1.00  0.00     0.204 C
ENDROOT
BRANCH   8   9
HETATM    9  N3  UNL     1      43.686  10.113  -2.302  1.00  0.00    -0.378 N
ATOM     10  H3  UNL     1      44.541   9.683  -2.654  1.00  0.00     0.160 HD
BRANCH   9  11
HETATM   11  C6  UNL     1      43.742  11.240  -1.388  1.00  0.00     0.006 C
HETATM   12  C7  UNL     1      43.920  12.451  -2.135  1.00  0.00     0.020 C
HETATM   13  C8  UNL     1      44.300  13.770  -1.602  1.00  0.00    -0.024 C
HETATM   14  C9  UNL     1      43.570  14.572  -0.629  1.00  0.00     0.038 C
HETATM   15  C10 UNL     1      43.725  14.154   0.876  1.00  0.00     0.083 C
HETATM   16  C11 UNL     1      43.916  12.765   0.816  1.00  0.00    -0.182 C
HETATM   17  C12 UNL     1      44.094  11.414   1.156  1.00  0.00     0.086 C
HETATM   18  C13 UNL     1      44.436  10.729  -0.211  1.00  0.00     0.067 C
ENDBRANCH   9  11
ENDBRANCH   8   9
BRANCH   1  19
HETATM   19  N1  UNL     1      43.580   9.470  -4.772  1.00  0.00    -0.072 N
ATOM     20  H13 UNL     1      43.958   8.532  -4.630  1.00  0.00     0.274 HD
ATOM     21  H12 UNL     1      43.556   9.450  -5.792  1.00  0.00     0.274 HD
ATOM     22  H11 UNL     1      44.186  10.203  -4.403  1.00  0.00     0.274 HD
ENDBRANCH   1  19
TORSDOF 3
ENDMDL