MODEL 1
REMARK VINA RESULT: -5.950834785      0.000      0.000
REMARK  5 active torsions:
REMARK  status: ('A' for Active; 'I' for Inactive)
REMARK    1  A    between atoms: N1_1  and  C1_5
REMARK    2  A    between atoms: C4_10  and  N3_11
REMARK    3  A    between atoms: N3_11  and  C5_13
REMARK    4  A    between atoms: C5_13  and  N4_15
REMARK    5  A    between atoms: N4_15  and  C6_17
ROOT
HETATM    1  N3  UNL     1      47.369   9.320   1.903  1.00  0.00    -0.356 N
ATOM      2  H3  UNL     1      48.204   9.888   2.040  1.00  0.00     0.162 HD
ENDROOT
BRANCH   1   3
HETATM    3  C4  UNL     1      47.462   7.913   2.157  1.00  0.00     0.154 C
HETATM    4  C1  UNL     1      47.801   7.633   3.598  1.00  0.00     0.228 C
HETATM    5  C2  UNL     1      49.213   7.081   3.483  1.00  0.00     0.154 C
HETATM    6  N2  UNL     1      49.482   6.873   2.108  1.00  0.00    -0.398 N
HETATM    7  C3  UNL     1      48.564   7.306   1.362  1.00  0.00     0.082 C
ATOM      8  H2  UNL     1      50.327   6.420   1.761  1.00  0.00     0.158 HD
BRANCH   4   9
HETATM    9  N1  UNL     1      46.922   6.622   4.100  1.00  0.00    -0.071 N
ATOM     10  H13 UNL     1      46.692   5.928   3.390  1.00  0.00     0.274 HD
ATOM     11  H12 UNL     1      47.387   6.006   4.767  1.00  0.00     0.274 HD
ATOM     12  H11 UNL     1      46.087   7.054   4.498  1.00  0.00     0.274 HD
ENDBRANCH   4   9
ENDBRANCH   1   3
BRANCH   1  13
HETATM   13  C5  UNL     1      46.184   9.971   1.472  1.00  0.00     0.168 C
HETATM   14  S1  UNL     1      45.592   9.490   0.029  1.00  0.00    -0.041 SA
BRANCH  13  15
HETATM   15  N4  UNL     1      45.576  10.964   2.283  1.00  0.00    -0.359 N
ATOM     16  H4  UNL     1      45.078  10.627   3.107  1.00  0.00     0.162 HD
BRANCH  15  17
HETATM   17  C6  UNL     1      45.577  12.365   2.090  1.00  0.00     0.116 C
HETATM   18  C7  UNL     1      45.687  13.107   3.401  1.00  0.00    -0.005 C
HETATM   19  C8  UNL     1      45.748  14.540   3.501  1.00  0.00    -0.028 C
HETATM   20  C9  UNL     1      44.520  15.430   3.619  1.00  0.00     0.038 C
HETATM   21  C10 UNL     1      43.545  15.241   2.405  1.00  0.00     0.083 C
HETATM   22  C11 UNL     1      43.911  14.031   1.800  1.00  0.00    -0.180 C
HETATM   23  C12 UNL     1      44.329  12.809   1.253  1.00  0.00     0.109 C
ENDBRANCH  15  17
ENDBRANCH  13  15
ENDBRANCH   1  13
TORSDOF 5
ENDMDL