MODEL 2
REMARK VINA RESULT: -5.773607866      2.514      4.981
REMARK  2 active torsions:
REMARK  status: ('A' for Active; 'I' for Inactive)
REMARK       I    between atoms: C1_4  and  N3_6
REMARK    1  A    between atoms: N3_6  and  C2_8
REMARK    2  A    between atoms: C9_15  and  C10_16
ROOT
HETATM    1  C2  UNL     1      43.955  12.652   0.704  1.00  0.00     0.092 C
HETATM    2  C3  UNL     1      44.333  12.875  -0.705  1.00  0.00     0.010 C
HETATM    3  C4  UNL     1      43.645  11.775  -1.528  1.00  0.00     0.011 C
HETATM    4  C5  UNL     1      44.125  10.412  -1.105  1.00  0.00    -0.013 C
HETATM    5  C6  UNL     1      43.730  10.225   0.335  1.00  0.00     0.011 C
HETATM    6  C7  UNL     1      44.435  11.289   1.156  1.00  0.00     0.010 C
HETATM    7  C8  UNL     1      45.928  11.184   0.970  1.00  0.00     0.024 C
HETATM    8  C9  UNL     1      46.294  11.331  -0.478  1.00  0.00     0.023 C
HETATM    9  C11 UNL     1      45.609  10.243  -1.249  1.00  0.00     0.022 C
HETATM   10  C12 UNL     1      45.799  12.694  -0.967  1.00  0.00     0.024 C
ENDROOT
BRANCH   1  11
HETATM   11  N3  UNL     1      44.262  13.645   1.678  1.00  0.00    -0.359 N
HETATM   12  C1  UNL     1      43.715  14.932   1.801  1.00  0.00     0.182 C
HETATM   13  N1  UNL     1      43.297  15.570   0.819  1.00  0.00    -0.374 N
HETATM   14  N2  UNL     1      43.626  15.542   3.097  1.00  0.00    -0.064 NA
ATOM     15  H12 UNL     1      42.899  16.506   0.908  1.00  0.00     0.158 HD
ATOM     16  H11 UNL     1      43.360  15.137  -0.102  1.00  0.00     0.158 HD
ATOM     17  H3  UNL     1      44.966  13.391   2.371  1.00  0.00     0.162 HD
ENDBRANCH   1  11
BRANCH   8  18
HETATM   18  C10 UNL     1      47.750  11.284  -0.627  1.00  0.00     0.134 A
HETATM   19  N4  UNL     1      48.728  11.886  -1.324  1.00  0.00    -0.227 N
HETATM   20  O1  UNL     1      49.637  11.184  -0.785  1.00  0.00    -0.154 OA
ATOM     21  H4  UNL     1      48.737  12.627  -2.024  1.00  0.00     0.198 HD
HETATM   22  N5  UNL     1      48.765  10.568  -0.059  1.00  0.00    -0.227 N
ATOM     23  H5  UNL     1      48.814   9.840   0.653  1.00  0.00     0.198 HD
ENDBRANCH   8  18
TORSDOF 2
ENDMDL