MODEL 4
REMARK VINA RESULT: -4.679558537      2.674      4.530
REMARK  6 active torsions:
REMARK  status: ('A' for Active; 'I' for Inactive)
REMARK    1  A    between atoms: C2_2  and  C3_3
REMARK    2  A    between atoms: C2_2  and  C11_17
REMARK    3  A    between atoms: C5_5  and  O1_6
REMARK    4  A    between atoms: C6_8  and  O2_9
REMARK    5  A    between atoms: C7_11  and  O3_12
REMARK    6  A    between atoms: C11_17  and  O4_20
ROOT
HETATM    1  C3  UNL     1      44.323  11.884  -0.671  1.00  0.00    -0.013 C
HETATM    2  C4  UNL     1      45.047  10.945  -0.134  1.00  0.00    -0.042 C
HETATM    3  C5  UNL     1      46.158  11.056   0.845  1.00  0.00     0.179 C
HETATM    4  C6  UNL     1      46.015   9.808   1.737  1.00  0.00     0.180 C
HETATM    5  C7  UNL     1      45.666   8.772   0.723  1.00  0.00     0.162 C
HETATM    6  C8  UNL     1      44.937   9.471  -0.398  1.00  0.00     0.007 C
HETATM    7  C9  UNL     1      43.539   8.984  -0.454  1.00  0.00     0.022 C
HETATM    8  C10 UNL     1      45.617   9.200  -1.735  1.00  0.00     0.022 C
ENDROOT
BRANCH   1   9
HETATM    9  C2  UNL     1      44.313  13.322  -0.534  1.00  0.00     0.038 C
HETATM   10  C1  UNL     1      43.740  13.947   0.664  1.00  0.00     0.017 C
BRANCH   9  11
HETATM   11  C11 UNL     1      43.719  13.951  -1.792  1.00  0.00     0.057 C
HETATM   12  C12 UNL     1      44.823  14.555  -2.656  1.00  0.00     0.046 C
HETATM   13  C13 UNL     1      42.951  12.940  -2.590  1.00  0.00     0.046 C
BRANCH  11  14
HETATM   14  O4  UNL     1      42.848  14.991  -1.464  1.00  0.00    -0.390 OA
ATOM     15  H4  UNL     1      42.900  15.691  -2.103  1.00  0.00     0.210 HD
ENDBRANCH  11  14
ENDBRANCH   9  11
ENDBRANCH   1   9
BRANCH   3  16
HETATM   16  O1  UNL     1      47.400  10.928   0.232  1.00  0.00    -0.389 OA
ATOM     17  H1  UNL     1      47.775  10.067   0.372  1.00  0.00     0.210 HD
ENDBRANCH   3  16
BRANCH   4  18
HETATM   18  O2  UNL     1      47.265   9.562   2.325  1.00  0.00    -0.390 OA
ATOM     19  H2  UNL     1      47.125   9.438   3.256  1.00  0.00     0.210 HD
ENDBRANCH   4  18
BRANCH   5  20
HETATM   20  O3  UNL     1      46.760   8.037   0.277  1.00  0.00    -0.392 OA
ATOM     21  H3  UNL     1      46.692   7.764  -0.630  1.00  0.00     0.210 HD
ENDBRANCH   5  20
TORSDOF 6
ENDMDL