MODEL 1
REMARK VINA RESULT: -6.203073404      0.000      0.000
REMARK  2 active torsions:
REMARK  status: ('A' for Active; 'I' for Inactive)
REMARK    1  A    between atoms: C10_13  and  C11_14
REMARK    2  A    between atoms: C11_14  and  C12_15
ROOT
HETATM    1  C1  UNL     1      43.849   8.149  -3.305  1.00  0.00     0.022 C
HETATM    2  C2  UNL     1      43.142   9.090  -2.370  1.00  0.00     0.110 C
HETATM    3  C3  UNL     1      41.783   9.379  -2.884  1.00  0.00     0.223 C
HETATM    4  O1  UNL     1      40.749   8.948  -2.324  1.00  0.00    -0.273 OA
HETATM    5  N1  UNL     1      41.693  10.185  -4.068  1.00  0.00    -0.361 N
ATOM      6  H1  UNL     1      40.900  10.121  -4.707  1.00  0.00     0.162 HD
HETATM    7  C4  UNL     1      42.797  11.094  -4.302  1.00  0.00     0.125 C
HETATM    8  C5  UNL     1      43.326  11.519  -2.953  1.00  0.00     0.059 C
HETATM    9  C6  UNL     1      43.875  10.383  -2.149  1.00  0.00     0.139 C
HETATM   10  C7  UNL     1      45.377  10.219  -2.378  1.00  0.00     0.040 C
HETATM   11  C8  UNL     1      46.157  10.584  -1.108  1.00  0.00     0.004 C
HETATM   12  C9  UNL     1      45.764  11.960  -0.646  1.00  0.00     0.033 C
HETATM   13  C10 UNL     1      44.282  12.010  -0.462  1.00  0.00     0.192 C
HETATM   14  N5  UNL     1      43.721  10.726  -0.747  1.00  0.00    -0.061 N
ATOM     15  H51 UNL     1      44.110  10.004  -0.141  1.00  0.00     0.278 HD
ATOM     16  H52 UNL     1      42.747  10.669  -0.452  1.00  0.00     0.278 HD
ENDROOT
BRANCH  13  17
HETATM   17  C11 UNL     1      43.982  12.478   0.947  1.00  0.00     0.093 C
BRANCH  17  18
HETATM   18  C12 UNL     1      43.674  13.927   0.891  1.00  0.00     0.046 A
HETATM   19  C13 UNL     1      43.712  14.822   1.967  1.00  0.00     0.135 A
HETATM   20  N2  UNL     1      43.366  16.027   1.489  1.00  0.00    -0.296 N
HETATM   21  N3  UNL     1      43.118  15.941   0.205  1.00  0.00    -0.243 N
ATOM     22  H2  UNL     1      43.305  16.883   2.042  1.00  0.00     0.187 HD
HETATM   23  N4  UNL     1      43.301  14.698  -0.147  1.00  0.00    -0.289 N
ATOM     24  H3  UNL     1      42.834  16.706  -0.407  1.00  0.00     0.208 HD
ATOM     25  H4  UNL     1      43.176  14.351  -1.098  1.00  0.00     0.188 HD
ENDBRANCH  17  18
ENDBRANCH  13  17
TORSDOF 2
ENDMDL