MODEL 5
REMARK VINA RESULT: -5.447929802      1.691      2.494
REMARK  1 active torsions:
REMARK  status: ('A' for Active; 'I' for Inactive)
REMARK    1  A    between atoms: N1_2  and  C2_5
ROOT
HETATM    1  C2  UNL     1      44.029  13.808   0.823  1.00  0.00     0.190 C
HETATM    2  C3  UNL     1      44.114  12.538   1.594  1.00  0.00     0.033 C
HETATM    3  C4  UNL     1      44.551  11.380   0.743  1.00  0.00     0.002 C
HETATM    4  C5  UNL     1      43.845  11.313  -0.585  1.00  0.00     0.007 C
HETATM    5  C6  UNL     1      44.087  12.625  -1.300  1.00  0.00     0.022 C
HETATM    6  C7  UNL     1      43.322  13.671  -0.523  1.00  0.00     0.024 C
HETATM    7  C8  UNL     1      43.368  15.037  -1.154  1.00  0.00     0.028 C
HETATM    8  C9  UNL     1      43.663  15.016  -2.629  1.00  0.00     0.118 C
HETATM    9  C10 UNL     1      43.170  16.247  -3.221  1.00  0.00     0.066 C
HETATM   10  N2  UNL     1      42.778  17.248  -3.681  1.00  0.00    -0.197 NA
HETATM   11  C11 UNL     1      43.127  13.784  -3.323  1.00  0.00     0.132 C
HETATM   12  N3  UNL     1      43.667  13.824  -4.678  1.00  0.00    -0.335 N
ATOM     13  H3  UNL     1      43.174  14.075  -5.534  1.00  0.00     0.164 HD
HETATM   14  C12 UNL     1      45.033  13.437  -4.545  1.00  0.00     0.317 C
HETATM   15  O1  UNL     1      46.021  13.830  -5.258  1.00  0.00    -0.247 OA
HETATM   16  N4  UNL     1      45.112  12.521  -3.460  1.00  0.00    -0.332 N
ATOM     17  H4  UNL     1      45.911  11.936  -3.217  1.00  0.00     0.165 HD
HETATM   18  C13 UNL     1      43.817  12.577  -2.750  1.00  0.00     0.056 C
HETATM   19  C14 UNL     1      43.032  11.359  -3.217  1.00  0.00     0.041 C
ENDROOT
BRANCH   1  20
HETATM   20  N1  UNL     1      43.393  14.872   1.551  1.00  0.00    -0.074 N
HETATM   21  C1  UNL     1      44.216  15.379   2.645  1.00  0.00     0.267 C
ATOM     22  H12 UNL     1      42.474  14.586   1.888  1.00  0.00     0.277 HD
ATOM     23  H11 UNL     1      43.112  15.626   0.925  1.00  0.00     0.277 HD
ENDBRANCH   1  20
TORSDOF 1
ENDMDL