MODEL 2
REMARK VINA RESULT: -5.261637624      2.145      3.289
REMARK  6 active torsions:
REMARK  status: ('A' for Active; 'I' for Inactive)
REMARK    1  A    between atoms: C2_2  and  C4_4
REMARK    2  A    between atoms: C10_10  and  C11_11
REMARK    3  A    between atoms: C10_10  and  C12_14
REMARK    4  A    between atoms: C11_11  and  O1_12
REMARK    5  A    between atoms: C12_14  and  O2_15
REMARK    6  A    between atoms: C16_20  and  O3_21
ROOT
HETATM    1  C4  UNL     1      43.849   9.227  -1.883  1.00  0.00     0.018 C
HETATM    2  C5  UNL     1      43.820   9.302  -0.404  1.00  0.00     0.012 C
HETATM    3  C6  UNL     1      44.772  10.248   0.226  1.00  0.00    -0.014 C
HETATM    4  C7  UNL     1      44.071  11.521   0.720  1.00  0.00     0.010 C
HETATM    5  C8  UNL     1      45.907  10.681  -0.624  1.00  0.00    -0.003 C
HETATM    6  C9  UNL     1      47.151  10.757   0.237  1.00  0.00     0.019 C
HETATM    7  C10 UNL     1      47.883   9.448   0.067  1.00  0.00     0.006 C
HETATM    8  C13 UNL     1      47.053   8.651  -0.873  1.00  0.00     0.001 C
HETATM    9  C14 UNL     1      47.766   7.618  -1.661  1.00  0.00     0.011 C
HETATM   10  C15 UNL     1      46.317   9.675  -1.672  1.00  0.00     0.024 C
HETATM   11  C16 UNL     1      45.203   9.177  -2.503  1.00  0.00     0.127 C
ENDROOT
BRANCH   7  12
HETATM   12  C11 UNL     1      49.282   9.721  -0.379  1.00  0.00     0.176 C
BRANCH  12  13
HETATM   13  O1  UNL     1      50.174   9.960   0.647  1.00  0.00    -0.400 OA
ATOM     14  H1  UNL     1      50.892  10.539   0.419  1.00  0.00     0.209 HD
ENDBRANCH  12  13
ENDBRANCH   7  12
BRANCH   7  15
HETATM   15  C12 UNL     1      47.969   8.681   1.382  1.00  0.00     0.176 C
BRANCH  15  16
HETATM   16  O2  UNL     1      47.743   9.468   2.478  1.00  0.00    -0.400 OA
ATOM     17  H2  UNL     1      47.488   8.972   3.247  1.00  0.00     0.209 HD
ENDBRANCH  15  16
ENDBRANCH   7  15
BRANCH  11  18
HETATM   18  O3  UNL     1      45.526   7.877  -2.940  1.00  0.00    -0.395 OA
ATOM     19  H3  UNL     1      45.014   7.626  -3.700  1.00  0.00     0.210 HD
ENDBRANCH  11  18
BRANCH   1  20
HETATM   20  C2  UNL     1      42.973  10.309  -2.534  1.00  0.00    -0.016 C
HETATM   21  C1  UNL     1      41.644   9.641  -2.874  1.00  0.00     0.010 C
HETATM   22  C3  UNL     1      43.635  10.655  -3.854  1.00  0.00     0.010 C
ENDBRANCH   1  20
TORSDOF 6
ENDMDL