MODEL 2
REMARK VINA RESULT: -5.242192428      2.332      4.102
REMARK  5 active torsions:
REMARK  status: ('A' for Active; 'I' for Inactive)
REMARK    1  A    between atoms: C4_4  and  O1_5
REMARK    2  A    between atoms: C7_9  and  O2_10
REMARK    3  A    between atoms: C12_16  and  C13_17
REMARK    4  A    between atoms: C13_17  and  C14_18
REMARK    5  A    between atoms: C14_18  and  O3_19
ROOT
HETATM    1  C1  UNL     1      43.321  12.215  -2.474  1.00  0.00     0.016 C
HETATM    2  C2  UNL     1      44.745  12.135  -1.977  1.00  0.00    -0.031 C
HETATM    3  C3  UNL     1      45.421  13.418  -2.494  1.00  0.00     0.041 C
HETATM    4  C4  UNL     1      46.601  13.030  -3.299  1.00  0.00     0.119 C
HETATM    5  C5  UNL     1      46.874  11.611  -2.926  1.00  0.00     0.039 C
HETATM    6  C6  UNL     1      45.443  11.090  -2.758  1.00  0.00     0.025 C
HETATM    7  C7  UNL     1      45.502   9.722  -2.216  1.00  0.00     0.123 C
HETATM    8  C8  UNL     1      44.239   9.209  -1.582  1.00  0.00     0.032 C
HETATM    9  C9  UNL     1      43.933   9.784  -0.245  1.00  0.00     0.007 C
HETATM   10  C10 UNL     1      44.797  10.860   0.230  1.00  0.00    -0.009 C
HETATM   11  C11 UNL     1      44.058  11.677   1.323  1.00  0.00     0.010 C
HETATM   12  C12 UNL     1      43.762  12.714   0.269  1.00  0.00    -0.007 C
HETATM   13  C15 UNL     1      44.903  12.117  -0.521  1.00  0.00     0.002 C
ENDROOT
BRANCH  12  14
HETATM   14  C13 UNL     1      43.926  14.103   0.786  1.00  0.00     0.031 C
BRANCH  14  15
HETATM   15  C14 UNL     1      43.235  15.070  -0.139  1.00  0.00     0.164 C
BRANCH  15  16
HETATM   16  O3  UNL     1      42.789  16.228   0.448  1.00  0.00    -0.401 OA
ATOM     17  H3  UNL     1      42.081  16.668  -0.008  1.00  0.00     0.209 HD
ENDBRANCH  15  16
ENDBRANCH  14  15
ENDBRANCH  12  14
BRANCH   4  18
HETATM   18  O1  UNL     1      46.360  13.070  -4.681  1.00  0.00    -0.396 OA
ATOM     19  H1  UNL     1      46.584  13.905  -5.074  1.00  0.00     0.210 HD
ENDBRANCH   4  18
BRANCH   7  20
HETATM   20  O2  UNL     1      46.625   9.556  -1.409  1.00  0.00    -0.395 OA
ATOM     21  H2  UNL     1      46.465   9.888  -0.534  1.00  0.00     0.210 HD
ENDBRANCH   7  20
TORSDOF 5
ENDMDL