MODEL 5
REMARK VINA RESULT: -5.038648801      2.099      2.565
REMARK  5 active torsions:
REMARK  status: ('A' for Active; 'I' for Inactive)
REMARK    1  A    between atoms: C4_4  and  O1_5
REMARK    2  A    between atoms: C10_12  and  C11_13
REMARK    3  A    between atoms: C14_16  and  O2_17
REMARK    4  A    between atoms: O2_17  and  N1_18
REMARK    5  A    between atoms: C15_21  and  O3_22
ROOT
HETATM    1  C1  UNL     1      43.601  13.701  -0.581  1.00  0.00     0.015 C
HETATM    2  C2  UNL     1      44.343  12.724  -0.114  1.00  0.00    -0.082 C
HETATM    3  C3  UNL     1      44.315  12.413   1.329  1.00  0.00     0.065 C
HETATM    4  C4  UNL     1      45.503  11.688   1.836  1.00  0.00     0.122 C
HETATM    5  C5  UNL     1      46.362  11.052   0.803  1.00  0.00     0.044 C
HETATM    6  C6  UNL     1      45.613  10.683  -0.454  1.00  0.00    -0.006 C
HETATM    7  C7  UNL     1      44.484   9.789  -0.086  1.00  0.00     0.019 C
HETATM    8  C8  UNL     1      45.181  11.982  -1.096  1.00  0.00     0.025 C
HETATM    9  C9  UNL     1      44.560  11.815  -2.426  1.00  0.00     0.017 C
HETATM   10  C10 UNL     1      44.732  10.511  -3.090  1.00  0.00     0.024 C
HETATM   11  C14 UNL     1      45.921   9.711  -2.738  1.00  0.00     0.185 C
HETATM   12  C15 UNL     1      46.581  10.078  -1.440  1.00  0.00     0.158 C
ENDROOT
BRANCH  11  13
HETATM   13  O2  UNL     1      45.591   8.339  -2.639  1.00  0.00    -0.279 OA
BRANCH  13  14
HETATM   14  N1  UNL     1      46.373   7.560  -3.380  1.00  0.00    -0.311 N
ATOM     15  H12 UNL     1      46.721   7.842  -4.297  1.00  0.00     0.184 HD
ATOM     16  H11 UNL     1      46.581   6.664  -2.937  1.00  0.00     0.184 HD
ENDBRANCH  13  14
ENDBRANCH  11  13
BRANCH  10  17
HETATM   17  C11 UNL     1      44.696  10.621  -4.623  1.00  0.00    -0.016 C
HETATM   18  C12 UNL     1      43.843  11.804  -5.041  1.00  0.00     0.010 C
HETATM   19  C13 UNL     1      46.047  10.796  -5.216  1.00  0.00     0.010 C
ENDBRANCH  10  17
BRANCH  12  20
HETATM   20  O3  UNL     1      47.262   9.004  -0.885  1.00  0.00    -0.392 OA
ATOM     21  H3  UNL     1      46.786   8.633  -0.151  1.00  0.00     0.210 HD
ENDBRANCH  12  20
BRANCH   4  22
HETATM   22  O1  UNL     1      46.311  12.518   2.646  1.00  0.00    -0.395 OA
ATOM     23  H1  UNL     1      46.547  12.088   3.458  1.00  0.00     0.210 HD
ENDBRANCH   4  22
TORSDOF 5
ENDMDL