MODEL 3
REMARK VINA RESULT: -6.232238100      2.244      2.978
REMARK  4 active torsions:
REMARK  status: ('A' for Active; 'I' for Inactive)
REMARK    1  A    between atoms: C2_2  and  C3_3
REMARK    2  A    between atoms: C3_3  and  C4_4
REMARK    3  A    between atoms: C6_13  and  C7_14
REMARK    4  A    between atoms: C8_15  and  C9_16
ROOT
HETATM    1  C4  UNL     1      44.452  15.248   3.113  1.00  0.00     0.048 A
HETATM    2  N1  UNL     1      43.687  16.367   2.956  1.00  0.00    -0.302 N
ATOM      3  H1  UNL     1      43.594  17.113   3.646  1.00  0.00     0.186 HD
HETATM    4  N2  UNL     1      43.090  16.345   1.795  1.00  0.00    -0.284 N
ATOM      5  H2  UNL     1      42.462  17.062   1.433  1.00  0.00     0.188 HD
HETATM    6  C5  UNL     1      43.444  15.218   1.159  1.00  0.00     0.134 A
HETATM    7  N3  UNL     1      43.068  14.820  -0.018  1.00  0.00    -0.383 N
ATOM      8  H31 UNL     1      43.337  13.963  -0.501  1.00  0.00     0.157 HD
ATOM      9  H32 UNL     1      42.430  15.357  -0.606  1.00  0.00     0.157 HD
HETATM   10  C6  UNL     1      44.318  14.481   1.966  1.00  0.00     0.086 A
ENDROOT
BRANCH  10  11
HETATM   11  C7  UNL     1      44.931  13.216   1.659  1.00  0.00    -0.058 C
HETATM   12  C8  UNL     1      45.445  12.153   1.404  1.00  0.00    -0.066 C
BRANCH  12  13
HETATM   13  C9  UNL     1      46.084  10.860   1.068  1.00  0.00     0.228 C
HETATM   14  C10 UNL     1      47.347  11.058   0.285  1.00  0.00     0.216 C
HETATM   15  O1  UNL     1      47.160  10.262  -0.863  1.00  0.00    -0.352 OA
HETATM   16  C11 UNL     1      46.205   9.331  -0.464  1.00  0.00     0.158 C
HETATM   17  C12 UNL     1      46.877   8.268   0.349  1.00  0.00     0.078 C
HETATM   18  C13 UNL     1      45.576   8.656  -1.671  1.00  0.00     0.078 C
HETATM   19  O2  UNL     1      45.309  10.098   0.237  1.00  0.00    -0.336 OA
ENDBRANCH  12  13
ENDBRANCH  10  11
BRANCH   1  20
HETATM   20  C3  UNL     1      45.292  14.857   4.257  1.00  0.00     0.060 C
BRANCH  20  21
HETATM   21  C2  UNL     1      46.695  15.426   4.016  1.00  0.00     0.002 C
HETATM   22  C1  UNL     1      46.832  16.773   4.689  1.00  0.00     0.005 C
ENDBRANCH  20  21
ENDBRANCH   1  20
TORSDOF 4
ENDMDL