MODEL 4
REMARK VINA RESULT: -5.646953678      2.392      5.063
REMARK  3 active torsions:
REMARK  status: ('A' for Active; 'I' for Inactive)
REMARK    1  A    between atoms: N1_1  and  C1_4
REMARK    2  A    between atoms: C11_21  and  C12_22
REMARK    3  A    between atoms: C12_22  and  C13_23
ROOT
HETATM    1  C1  UNL     1      47.198   8.215   0.225  1.00  0.00     0.675 A
HETATM    2  N2  UNL     1      46.347   8.883  -0.565  1.00  0.00    -0.194 N
ATOM      3  H2  UNL     1      46.109   8.494  -1.477  1.00  0.00     0.184 HD
HETATM    4  C2  UNL     1      45.790  10.067  -0.185  1.00  0.00     0.045 A
HETATM    5  C3  UNL     1      46.174  10.503   1.055  1.00  0.00    -0.018 A
HETATM    6  C4  UNL     1      47.062   9.807   1.879  1.00  0.00     0.115 A
HETATM    7  N3  UNL     1      47.571   8.648   1.441  1.00  0.00    -0.202 N
ATOM      8  H3  UNL     1      48.222   8.111   2.014  1.00  0.00     0.183 HD
HETATM    9  C5  UNL     1      45.593  11.804   1.538  1.00  0.00     0.042 C
HETATM   10  C6  UNL     1      44.092  11.646   1.256  1.00  0.00     0.006 C
HETATM   11  C7  UNL     1      43.923  11.671  -0.239  1.00  0.00     0.018 C
HETATM   12  C8  UNL     1      44.875  10.831  -1.010  1.00  0.00     0.033 C
HETATM   13  C9  UNL     1      45.720  11.709  -1.967  1.00  0.00     0.045 C
HETATM   14  C10 UNL     1      46.177  10.626  -2.943  1.00  0.00     0.234 C
HETATM   15  N4  UNL     1      45.154   9.632  -2.941  1.00  0.00    -0.070 N
ATOM     16  H41 UNL     1      45.516   8.704  -2.724  1.00  0.00     0.277 HD
ATOM     17  H42 UNL     1      44.804   9.435  -3.879  1.00  0.00     0.277 HD
HETATM   18  C11 UNL     1      44.119  10.029  -2.052  1.00  0.00     0.200 C
ENDROOT
BRANCH  18  19
HETATM   19  C12 UNL     1      43.292   8.947  -1.489  1.00  0.00     0.039 C
BRANCH  19  20
HETATM   20  C13 UNL     1      41.986   8.727  -2.165  1.00  0.00    -0.013 A
HETATM   21  C14 UNL     1      41.428   9.685  -3.147  1.00  0.00     0.005 A
HETATM   22  C15 UNL     1      41.828   8.227  -3.527  1.00  0.00     0.005 A
ENDBRANCH  19  20
ENDBRANCH  18  19
BRANCH   1  23
HETATM   23  N1  UNL     1      47.707   7.080  -0.185  1.00  0.00    -0.234 N
ATOM     24  H12 UNL     1      47.953   7.013  -1.173  1.00  0.00     0.174 HD
ATOM     25  H11 UNL     1      47.839   6.317   0.478  1.00  0.00     0.174 HD
ENDBRANCH   1  23
TORSDOF 3
ENDMDL