MODEL 3
REMARK VINA RESULT: -4.797721442      1.460      1.871
REMARK  3 active torsions:
REMARK  status: ('A' for Active; 'I' for Inactive)
REMARK    1  A    between atoms: C2_2  and  C3_3
REMARK    2  A    between atoms: C8_8  and  O1_9
REMARK    3  A    between atoms: C8_8  and  C9_11
ROOT
HETATM    1  C3  UNL     1      44.057  11.434  -0.585  1.00  0.00     0.047 C
HETATM    2  C4  UNL     1      43.591  12.455  -1.531  1.00  0.00     0.012 C
HETATM    3  C5  UNL     1      44.607  13.278  -2.238  1.00  0.00     0.001 C
HETATM    4  C6  UNL     1      45.871  12.518  -2.587  1.00  0.00     0.003 C
HETATM    5  C7  UNL     1      46.284  11.826  -1.327  1.00  0.00     0.044 C
HETATM    6  C8  UNL     1      45.314  10.663  -1.068  1.00  0.00     0.097 C
ENDROOT
BRANCH   6   7
HETATM    7  O1  UNL     1      44.824  10.127  -2.243  1.00  0.00    -0.384 OA
ATOM      8  H1  UNL     1      44.221  10.816  -2.496  1.00  0.00     0.211 HD
ENDBRANCH   6   7
BRANCH   6   9
HETATM    9  C9  UNL     1      45.734   9.815  -0.000  1.00  0.00     0.104 C
HETATM   10  N1  UNL     1      46.774   8.960   0.198  1.00  0.00    -0.335 N
HETATM   11  C10 UNL     1      46.788   8.230   1.501  1.00  0.00     0.132 C
HETATM   12  C13 UNL     1      47.876   8.638  -0.598  1.00  0.00     0.173 C
HETATM   13  C11 UNL     1      48.077   8.426   2.230  1.00  0.00     0.040 C
HETATM   14  C12 UNL     1      49.304   8.442   1.378  1.00  0.00     0.123 C
HETATM   15  N2  UNL     1      49.074   8.146  -0.008  1.00  0.00    -0.367 N
ATOM     16  H2  UNL     1      49.744   7.601  -0.551  1.00  0.00     0.161 HD
HETATM   17  S1  UNL     1      47.710   8.852  -2.170  1.00  0.00    -0.041 SA
ENDBRANCH   6   9
BRANCH   1  18
HETATM   18  C2  UNL     1      44.137  11.834   0.828  1.00  0.00    -0.029 C
HETATM   19  C1  UNL     1      43.986  13.064   1.275  1.00  0.00     0.007 C
ENDBRANCH   1  18
TORSDOF 3
ENDMDL