MODEL 5
REMARK VINA RESULT: -4.788273188      2.150      3.746
REMARK  5 active torsions:
REMARK  status: ('A' for Active; 'I' for Inactive)
REMARK    1  A    between atoms: C2_2  and  O1_3
REMARK    2  A    between atoms: C2_2  and  C3_5
REMARK    3  A    between atoms: C10_12  and  O2_13
REMARK    4  A    between atoms: C13_17  and  C14_18
REMARK    5  A    between atoms: C14_18  and  O3_19
ROOT
HETATM    1  C3  UNL     1      46.620   8.763  -0.092  1.00  0.00     0.019 C
HETATM    2  C4  UNL     1      46.481   8.434  -1.563  1.00  0.00     0.008 C
HETATM    3  C5  UNL     1      45.079   8.715  -2.041  1.00  0.00     0.010 C
HETATM    4  C6  UNL     1      44.482   9.986  -1.524  1.00  0.00    -0.035 C
HETATM    5  C7  UNL     1      43.058  10.059  -2.012  1.00  0.00     0.016 C
HETATM    6  C8  UNL     1      44.607  10.043  -0.045  1.00  0.00     0.002 C
HETATM    7  C9  UNL     1      43.968  11.199   0.629  1.00  0.00     0.038 C
HETATM    8  C10 UNL     1      44.602  12.447   0.086  1.00  0.00     0.123 C
HETATM    9  C11 UNL     1      45.470  12.259  -1.080  1.00  0.00     0.031 A
HETATM   10  C12 UNL     1      45.318  11.143  -1.966  1.00  0.00     0.013 A
HETATM   11  C13 UNL     1      46.458  11.121  -0.995  1.00  0.00    -0.003 A
HETATM   12  C15 UNL     1      46.144  10.157   0.096  1.00  0.00     0.008 C
ENDROOT
BRANCH   1  13
HETATM   13  C2  UNL     1      47.931   8.385   0.477  1.00  0.00     0.118 C
HETATM   14  C1  UNL     1      49.050   8.252  -0.487  1.00  0.00     0.040 C
BRANCH  13  15
HETATM   15  O1  UNL     1      48.317   9.419   1.374  1.00  0.00    -0.396 OA
ATOM     16  H1  UNL     1      48.959   9.029   1.956  1.00  0.00     0.210 HD
ENDBRANCH  13  15
ENDBRANCH   1  13
BRANCH  11  17
HETATM   17  C14 UNL     1      47.831  11.509  -1.408  1.00  0.00     0.175 C
BRANCH  17  18
HETATM   18  O3  UNL     1      48.570  11.711  -0.218  1.00  0.00    -0.400 OA
ATOM     19  H3  UNL     1      48.910  10.862   0.039  1.00  0.00     0.209 HD
ENDBRANCH  17  18
ENDBRANCH  11  17
BRANCH   8  20
HETATM   20  O2  UNL     1      43.579  13.331  -0.240  1.00  0.00    -0.395 OA
ATOM     21  H2  UNL     1      43.724  14.132   0.249  1.00  0.00     0.210 HD
ENDBRANCH   8  20
TORSDOF 5
ENDMDL