MODEL 3
REMARK VINA RESULT: -5.313910690      1.345      3.373
REMARK  5 active torsions:
REMARK  status: ('A' for Active; 'I' for Inactive)
REMARK    1  A    between atoms: C2_2  and  C3_3
REMARK    2  A    between atoms: C2_2  and  C4_6
REMARK    3  A    between atoms: C3_3  and  O1_4
REMARK    4  A    between atoms: C9_11  and  O2_12
REMARK    5  A    between atoms: C11_15  and  O3_16
ROOT
HETATM    1  C4  UNL     1      44.262  12.937  -1.059  1.00  0.00     0.021 C
HETATM    2  C5  UNL     1      44.540  13.707  -2.328  1.00  0.00     0.010 C
HETATM    3  C6  UNL     1      45.803  13.176  -2.892  1.00  0.00     0.013 C
HETATM    4  C7  UNL     1      46.183  11.977  -2.046  1.00  0.00    -0.013 C
HETATM    5  C8  UNL     1      47.676  11.994  -1.885  1.00  0.00     0.018 C
HETATM    6  C9  UNL     1      45.640  10.779  -2.758  1.00  0.00     0.129 C
HETATM    7  C10 UNL     1      45.442   9.587  -1.861  1.00  0.00     0.065 C
HETATM    8  C11 UNL     1      45.996   9.811  -0.502  1.00  0.00     0.128 C
HETATM    9  C12 UNL     1      45.431  11.075   0.164  1.00  0.00    -0.017 C
HETATM   10  C13 UNL     1      46.244  11.210   1.441  1.00  0.00     0.018 C
HETATM   11  C14 UNL     1      44.015  10.714   0.547  1.00  0.00     0.018 C
HETATM   12  C15 UNL     1      45.538  12.289  -0.718  1.00  0.00     0.015 C
ENDROOT
BRANCH   1  13
HETATM   13  C2  UNL     1      43.766  13.973  -0.105  1.00  0.00    -0.061 C
HETATM   14  C1  UNL     1      43.759  13.915   1.188  1.00  0.00     0.017 C
BRANCH  13  15
HETATM   15  C3  UNL     1      43.179  15.203  -0.753  1.00  0.00     0.198 C
BRANCH  15  16
HETATM   16  O1  UNL     1      42.843  16.167   0.162  1.00  0.00    -0.397 OA
ATOM     17  H1  UNL     1      41.935  16.437   0.088  1.00  0.00     0.209 HD
ENDBRANCH  15  16
ENDBRANCH  13  15
ENDBRANCH   1  13
BRANCH   6  18
HETATM   18  O2  UNL     1      44.440  11.039  -3.403  1.00  0.00    -0.395 OA
ATOM     19  H2  UNL     1      44.517  11.724  -4.056  1.00  0.00     0.210 HD
ENDBRANCH   6  18
BRANCH   8  20
HETATM   20  O3  UNL     1      45.599   8.718   0.291  1.00  0.00    -0.395 OA
ATOM     21  H3  UNL     1      45.217   9.073   1.084  1.00  0.00     0.210 HD
ENDBRANCH   8  20
TORSDOF 5
ENDMDL