MODEL 2
REMARK VINA RESULT: -5.711560161      4.073      5.155
REMARK  3 active torsions:
REMARK  status: ('A' for Active; 'I' for Inactive)
REMARK    1  A    between atoms: O1_2  and  C2_3
REMARK    2  A    between atoms: C6_7  and  C7_8
REMARK    3  A    between atoms: N2_12  and  N3_14
ROOT
HETATM    1  C7  UNL     1      13.328  44.475  16.399  1.00  0.00     0.155 C
HETATM    2  N1  UNL     1      12.676  43.240  15.934  1.00  0.00    -0.214 N
ATOM      3  H1  UNL     1      11.881  42.895  16.472  1.00  0.00     0.178 HD
HETATM    4  C8  UNL     1      13.071  42.493  14.791  1.00  0.00     0.695 C
HETATM    5  N2  UNL     1      12.396  41.415  14.577  1.00  0.00    -0.139 N
ATOM      6  H2  UNL     1      11.645  41.180  15.227  1.00  0.00     0.205 HD
HETATM    7  N4  UNL     1      14.109  42.778  13.859  1.00  0.00    -0.162 N
ATOM      8  H4  UNL     1      14.406  42.019  13.246  1.00  0.00     0.187 HD
HETATM    9  C9  UNL     1      14.718  43.932  13.720  1.00  0.00     0.205 C
HETATM   10  N5  UNL     1      15.735  44.019  12.726  1.00  0.00    -0.063 NA
HETATM   11  N6  UNL     1      14.504  45.144  14.435  1.00  0.00    -0.353 N
HETATM   12  C10 UNL     1      15.518  46.181  14.357  1.00  0.00     0.152 C
HETATM   13  C11 UNL     1      13.342  45.442  15.253  1.00  0.00     0.110 C
HETATM   14  C12 UNL     1      13.357  46.883  15.696  1.00  0.00     0.035 C
ENDROOT
BRANCH   1  15
HETATM   15  C6  UNL     1      12.610  44.957  17.579  1.00  0.00    -0.030 A
HETATM   16  C5  UNL     1      13.298  45.429  18.669  1.00  0.00     0.009 A
HETATM   17  C4  UNL     1      12.593  45.871  19.756  1.00  0.00     0.003 A
HETATM   18  C3  UNL     1      11.217  45.837  19.746  1.00  0.00     0.037 A
HETATM   19  C2  UNL     1      10.504  45.368  18.665  1.00  0.00     0.068 A
HETATM   20  C13 UNL     1      11.232  44.929  17.582  1.00  0.00     0.046 A
BRANCH  19  21
HETATM   21  O1  UNL     1       9.097  45.344  18.679  1.00  0.00    -0.356 OA
HETATM   22  C1  UNL     1       8.377  45.714  19.834  1.00  0.00     0.210 C
ENDBRANCH  19  21
ENDBRANCH   1  15
BRANCH   5  23
HETATM   23  N3  UNL     1      12.633  40.557  13.514  1.00  0.00    -0.331 N
ATOM     24  H32 UNL     1      13.532  40.643  13.039  1.00  0.00     0.177 HD
ATOM     25  H31 UNL     1      11.964  39.858  13.191  1.00  0.00     0.177 HD
ENDBRANCH   5  23
TORSDOF 3
ENDMDL