MODEL 2
REMARK VINA RESULT: -6.811175695      0.117      1.057
REMARK  3 active torsions:
REMARK  status: ('A' for Active; 'I' for Inactive)
REMARK    1  A    between atoms: C4_11  and  N5_12
REMARK    2  A    between atoms: C5_18  and  N8_19
REMARK    3  A    between atoms: C6_21  and  C7_22
ROOT
HETATM    1  N1  UNL     1      13.617  48.463  15.657  1.00  0.00    -0.190 NA
HETATM    2  C1  UNL     1      14.350  48.138  16.486  1.00  0.00     0.123 C
HETATM    3  C2  UNL     1      15.278  47.718  17.507  1.00  0.00     0.175 A
HETATM    4  N2  UNL     1      16.322  48.467  17.795  1.00  0.00    -0.273 N
ATOM      5  H2  UNL     1      16.458  49.341  17.286  1.00  0.00     0.188 HD
HETATM    6  N3  UNL     1      17.185  48.131  18.706  1.00  0.00    -0.129 N
ATOM      7  H3  UNL     1      17.985  48.731  18.906  1.00  0.00     0.205 HD
HETATM    8  C3  UNL     1      17.014  46.992  19.377  1.00  0.00     0.735 A
HETATM    9  N4  UNL     1      17.739  46.403  20.360  1.00  0.00    -0.018 N
ATOM     10  H4  UNL     1      18.597  46.774  20.768  1.00  0.00     0.203 HD
HETATM   11  C4  UNL     1      17.157  45.276  20.701  1.00  0.00     0.706 A
HETATM   12  N6  UNL     1      16.045  45.132  19.934  1.00  0.00    -0.109 N
ATOM     13  H6  UNL     1      15.387  44.353  19.970  1.00  0.00     0.207 HD
HETATM   14  N7  UNL     1      15.969  46.178  19.136  1.00  0.00    -0.050 N
HETATM   15  C5  UNL     1      15.045  46.490  18.192  1.00  0.00     0.185 A
ENDROOT
BRANCH  15  16
HETATM   16  N8  UNL     1      14.040  45.863  17.849  1.00  0.00    -0.347 N
HETATM   17  C6  UNL     1      13.139  44.986  18.355  1.00  0.00     0.101 C
ATOM     18  H8  UNL     1      13.815  46.070  16.876  1.00  0.00     0.167 HD
BRANCH  17  19
HETATM   19  C7  UNL     1      12.003  45.586  19.125  1.00  0.00    -0.021 A
HETATM   20  C8  UNL     1      10.690  45.328  18.890  1.00  0.00     0.013 A
HETATM   21  C9  UNL     1       9.692  45.915  19.639  1.00  0.00     0.001 A
HETATM   22  C10 UNL     1      10.024  46.788  20.655  1.00  0.00     0.000 A
HETATM   23  C11 UNL     1      11.346  47.051  20.896  1.00  0.00     0.001 A
HETATM   24  C12 UNL     1      12.317  46.454  20.139  1.00  0.00     0.013 A
ENDBRANCH  17  19
ENDBRANCH  15  16
BRANCH  11  25
HETATM   25  N5  UNL     1      17.498  44.404  21.584  1.00  0.00    -0.233 N
ATOM     26  H52 UNL     1      17.913  44.669  22.477  1.00  0.00     0.174 HD
ATOM     27  H51 UNL     1      17.426  43.386  21.561  1.00  0.00     0.174 HD
ENDBRANCH  11  25
TORSDOF 3
ENDMDL