MODEL 2
REMARK VINA RESULT: -6.081634735      2.138      6.476
REMARK  3 active torsions:
REMARK  status: ('A' for Active; 'I' for Inactive)
REMARK    1  A    between atoms: N1_2  and  C2_4
REMARK    2  A    between atoms: C3_7  and  N3_8
REMARK    3  A    between atoms: C8_15  and  N5_16
ROOT
HETATM    1  C2  UNL     1      12.663  46.035  19.889  1.00  0.00     0.680 A
HETATM    2  N2  UNL     1      11.960  46.811  20.762  1.00  0.00    -0.175 N
ATOM      3  H2  UNL     1      12.430  47.282  21.536  1.00  0.00     0.186 HD
HETATM    4  C3  UNL     1      10.656  46.939  20.585  1.00  0.00     0.145 A
HETATM    5  C7  UNL     1      10.035  46.306  19.551  1.00  0.00     0.100 A
HETATM    6  C8  UNL     1      10.753  45.516  18.662  1.00  0.00     0.126 A
HETATM    7  N8  UNL     1      12.072  45.390  18.844  1.00  0.00    -0.177 N
ATOM      8  H8  UNL     1      12.629  44.818  18.209  1.00  0.00     0.186 HD
ENDROOT
BRANCH   6   9
HETATM    9  N5  UNL     1      10.074  44.969  17.710  1.00  0.00    -0.327 N
HETATM   10  C9  UNL     1      10.446  44.666  16.458  1.00  0.00     0.123 A
HETATM   11  C10 UNL     1      10.813  44.367  15.221  1.00  0.00     0.075 A
HETATM   12  N7  UNL     1       9.278  45.684  15.821  1.00  0.00    -0.285 N
HETATM   13  C11 UNL     1      10.280  44.845  14.147  1.00  0.00     0.025 A
HETATM   14  C12 UNL     1      10.571  44.609  12.700  1.00  0.00     0.070 C
HETATM   15  N6  UNL     1       9.329  45.657  14.603  1.00  0.00    -0.304 N
ATOM     16  H6  UNL     1       8.710  46.197  13.999  1.00  0.00     0.186 HD
ATOM     17  H7  UNL     1       8.622  46.241  16.369  1.00  0.00     0.188 HD
ATOM     18  H5  UNL     1       9.110  44.731  17.946  1.00  0.00     0.169 HD
ENDBRANCH   6   9
BRANCH   4  19
HETATM   19  N3  UNL     1       9.865  47.757  21.472  1.00  0.00    -0.251 N
HETATM   20  C4  UNL     1       9.025  47.276  22.418  1.00  0.00     0.119 A
HETATM   21  C5  UNL     1       8.412  48.327  23.087  1.00  0.00     0.038 A
HETATM   22  C6  UNL     1       8.933  49.452  22.488  1.00  0.00     0.109 A
HETATM   23  N4  UNL     1       9.797  49.060  21.528  1.00  0.00    -0.304 N
ATOM     24  H4  UNL     1      10.324  49.695  20.928  1.00  0.00     0.186 HD
ENDBRANCH   4  19
BRANCH   1  25
HETATM   25  N1  UNL     1      13.916  45.927  20.076  1.00  0.00    -0.230 N
HETATM   26  C1  UNL     1      14.915  45.905  19.051  1.00  0.00     0.165 C
ATOM     27  H1  UNL     1      14.237  45.850  21.041  1.00  0.00     0.177 HD
ENDBRANCH   1  25
TORSDOF 3
ENDMDL