MODEL 4
REMARK VINA RESULT: -6.674166284      4.172      5.305
REMARK  3 active torsions:
REMARK  status: ('A' for Active; 'I' for Inactive)
REMARK    1  A    between atoms: C3_5  and  N2_6
REMARK    2  A    between atoms: N7_19  and  C6_21
REMARK    3  A    between atoms: C6_21  and  C7_22
ROOT
HETATM    1  C1  UNL     1      12.160  44.274  18.519  1.00  0.00     0.070 C
HETATM    2  C2  UNL     1      12.134  44.184  17.059  1.00  0.00     0.040 A
HETATM    3  N1  UNL     1      13.175  43.648  16.349  1.00  0.00    -0.195 N
ATOM      4  H1  UNL     1      13.979  43.309  16.878  1.00  0.00     0.184 HD
HETATM    5  C3  UNL     1      13.222  43.534  15.037  1.00  0.00     0.677 A
HETATM    6  N3  UNL     1      12.218  43.947  14.253  1.00  0.00    -0.175 N
ATOM      7  H3  UNL     1      12.262  43.855  13.239  1.00  0.00     0.186 HD
HETATM    8  C4  UNL     1      11.152  44.487  14.864  1.00  0.00     0.152 A
HETATM    9  N4  UNL     1      10.101  44.928  14.153  1.00  0.00    -0.270 N
ATOM     10  H4  UNL     1      10.120  44.848  13.136  1.00  0.00     0.190 HD
HETATM   11  N5  UNL     1       9.049  45.460  14.734  1.00  0.00    -0.240 N
ATOM     12  H5  UNL     1       8.273  45.781  14.154  1.00  0.00     0.208 HD
HETATM   13  N6  UNL     1       8.964  45.592  16.054  1.00  0.00    -0.270 N
ATOM     14  H6  UNL     1       8.134  46.008  16.476  1.00  0.00     0.190 HD
HETATM   15  C5  UNL     1       9.975  45.175  16.830  1.00  0.00     0.133 A
HETATM   16  N7  UNL     1       9.910  45.294  18.094  1.00  0.00    -0.370 N
ATOM     17  H7  UNL     1      10.701  44.965  18.647  1.00  0.00     0.161 HD
HETATM   18  C13 UNL     1      11.085  44.616  16.255  1.00  0.00     0.078 A
ENDROOT
BRANCH  16  19
HETATM   19  C6  UNL     1       8.780  45.870  18.798  1.00  0.00     0.160 C
BRANCH  19  20
HETATM   20  C7  UNL     1       9.214  46.420  20.109  1.00  0.00    -0.041 A
HETATM   21  C8  UNL     1       8.320  46.494  21.172  1.00  0.00     0.009 A
HETATM   22  C9  UNL     1       8.737  47.007  22.383  1.00  0.00     0.001 A
HETATM   23  C10 UNL     1      10.038  47.457  22.572  1.00  0.00     0.000 A
HETATM   24  C11 UNL     1      10.938  47.389  21.519  1.00  0.00     0.001 A
HETATM   25  C12 UNL     1      10.504  46.874  20.319  1.00  0.00     0.009 A
ENDBRANCH  19  20
ENDBRANCH  16  19
BRANCH   5  26
HETATM   26  N2  UNL     1      14.247  43.012  14.420  1.00  0.00    -0.234 N
ATOM     27  H22 UNL     1      14.429  43.368  13.482  1.00  0.00     0.174 HD
ATOM     28  H21 UNL     1      14.829  42.292  14.847  1.00  0.00     0.174 HD
ENDBRANCH   5  26
TORSDOF 3
ENDMDL