MODEL 4
REMARK VINA RESULT: -6.449596555      1.756      6.476
REMARK  4 active torsions:
REMARK  status: ('A' for Active; 'I' for Inactive)
REMARK    1  A    between atoms: C3_5  and  N2_6
REMARK    2  A    between atoms: N2_6  and  C4_8
REMARK    3  A    between atoms: C7_13  and  N4_14
REMARK    4  A    between atoms: N4_14  and  C8_16
ROOT
HETATM    1  C4  UNL     1      12.970  46.091  18.419  1.00  0.00     0.698 A
HETATM    2  N3  UNL     1      11.952  45.447  17.819  1.00  0.00    -0.201 N
ATOM      3  H3  UNL     1      12.091  45.082  16.877  1.00  0.00     0.183 HD
HETATM    4  C5  UNL     1      10.753  45.264  18.415  1.00  0.00     0.110 A
HETATM    5  C6  UNL     1      10.613  45.775  19.689  1.00  0.00     0.066 A
HETATM    6  C7  UNL     1      11.651  46.437  20.312  1.00  0.00     0.122 A
HETATM    7  N6  UNL     1      12.819  46.583  19.661  1.00  0.00    -0.176 N
ATOM      8  H6  UNL     1      13.594  47.070  20.111  1.00  0.00     0.186 HD
ENDROOT
BRANCH   1   9
HETATM    9  N2  UNL     1      14.114  46.242  17.798  1.00  0.00    -0.021 N
ATOM     10  H2  UNL     1      14.160  46.208  16.779  1.00  0.00     0.203 HD
BRANCH   9  11
HETATM   11  C3  UNL     1      15.289  46.455  18.570  1.00  0.00     0.712 A
HETATM   12  N1  UNL     1      15.743  45.745  19.619  1.00  0.00    -0.178 N
HETATM   13  C2  UNL     1      16.892  46.262  20.079  1.00  0.00     0.108 A
ATOM     14  H1  UNL     1      15.277  44.926  20.011  1.00  0.00     0.185 HD
HETATM   15  C1  UNL     1      17.721  45.768  21.236  1.00  0.00     0.091 C
HETATM   16  N8  UNL     1      17.166  47.320  19.301  1.00  0.00    -0.275 N
HETATM   17  N7  UNL     1      16.202  47.425  18.402  1.00  0.00    -0.130 N
ATOM     18  H8  UNL     1      17.975  47.934  19.388  1.00  0.00     0.189 HD
ATOM     19  H7  UNL     1      16.157  48.145  17.680  1.00  0.00     0.205 HD
ENDBRANCH   9  11
ENDBRANCH   1   9
BRANCH   6  20
HETATM   20  N4  UNL     1      11.567  46.929  21.497  1.00  0.00    -0.341 N
ATOM     21  H4  UNL     1      12.311  46.767  22.176  1.00  0.00     0.167 HD
BRANCH  20  22
HETATM   22  C8  UNL     1      10.425  47.702  21.855  1.00  0.00     0.049 A
HETATM   23  C9  UNL     1      10.436  49.068  21.626  1.00  0.00     0.032 A
HETATM   24  C10 UNL     1       9.353  49.814  21.962  1.00  0.00     0.019 A
HETATM   25  C11 UNL     1       8.249  49.194  22.530  1.00  0.00     0.088 A
HETATM   26  N5  UNL     1       8.213  47.872  22.761  1.00  0.00    -0.373 N
HETATM   27  C12 UNL     1       9.300  47.144  22.421  1.00  0.00     0.117 A
ATOM     28  H5  UNL     1       7.393  47.432  23.178  1.00  0.00     0.164 HD
ENDBRANCH  20  22
ENDBRANCH   6  20
TORSDOF 4
ENDMDL