MODEL 3
REMARK VINA RESULT: -6.671876817      2.183      3.262
REMARK  3 active torsions:
REMARK  status: ('A' for Active; 'I' for Inactive)
REMARK    1  A    between atoms: N4_12  and  C8_13
REMARK    2  A    between atoms: C8_13  and  C9_14
REMARK    3  A    between atoms: N5_19  and  O1_20
ROOT
HETATM    1  N1  UNL     1       7.461  47.205  22.646  1.00  0.00    -0.191 NA
HETATM    2  C1  UNL     1       8.176  46.847  21.807  1.00  0.00     0.105 C
HETATM    3  C2  UNL     1       9.066  46.401  20.766  1.00  0.00     0.112 A
HETATM    4  C3  UNL     1       8.651  45.705  19.671  1.00  0.00     0.141 A
HETATM    5  N2  UNL     1       7.254  45.418  19.579  1.00  0.00    -0.081 NA
HETATM    6  N3  UNL     1       9.526  45.315  18.733  1.00  0.00    -0.329 N
ATOM      7  H3  UNL     1       9.187  44.795  17.925  1.00  0.00     0.168 HD
HETATM    8  C4  UNL     1      10.851  45.594  18.832  1.00  0.00     0.121 A
HETATM    9  C5  UNL     1      11.288  46.290  19.919  1.00  0.00     0.037 A
HETATM   10  C6  UNL     1      12.646  46.446  19.790  1.00  0.00     0.035 A
HETATM   11  C7  UNL     1      13.022  45.840  18.618  1.00  0.00     0.094 A
HETATM   12  N4  UNL     1      11.916  45.335  18.064  1.00  0.00    -0.337 N
HETATM   13  C14 UNL     1      10.403  46.699  20.894  1.00  0.00     0.064 A
HETATM   14  N6  UNL     1      10.874  47.356  21.905  1.00  0.00    -0.397 N
ATOM     15  H61 UNL     1      11.865  47.578  22.000  1.00  0.00     0.156 HD
ATOM     16  H62 UNL     1      10.220  47.659  22.626  1.00  0.00     0.156 HD
ENDROOT
BRANCH  12  17
HETATM   17  C8  UNL     1      11.889  44.608  16.810  1.00  0.00     0.189 C
BRANCH  17  18
HETATM   18  C9  UNL     1      11.463  45.404  15.655  1.00  0.00     0.058 A
HETATM   19  C10 UNL     1      12.357  46.160  14.930  1.00  0.00     0.029 A
HETATM   20  C11 UNL     1      11.986  46.930  13.827  1.00  0.00     0.003 A
HETATM   21  C12 UNL     1      10.656  46.913  13.470  1.00  0.00     0.020 A
HETATM   22  C13 UNL     1       9.780  46.160  14.197  1.00  0.00     0.123 A
HETATM   23  N5  UNL     1      10.163  45.425  15.259  1.00  0.00    -0.239 N
BRANCH  23  24
HETATM   24  O1  UNL     1       9.195  44.688  15.934  1.00  0.00    -0.283 OA
ATOM     25  H1  UNL     1       8.297  44.991  15.986  1.00  0.00     0.245 HD
ENDBRANCH  23  24
ENDBRANCH  17  18
ENDBRANCH  12  17
TORSDOF 3
ENDMDL