MODEL 5
REMARK VINA RESULT: -4.944379516      3.110      4.697
REMARK  4 active torsions:
REMARK  status: ('A' for Active; 'I' for Inactive)
REMARK    1  A    between atoms: C5_5  and  N1_6
REMARK    2  A    between atoms: C6_10  and  C7_11
REMARK    3  A    between atoms: C8_17  and  O2_18
REMARK    4  A    between atoms: O2_18  and  C9_19
ROOT
HETATM    1  C1  UNL     1      12.141  46.922  14.999  1.00  0.00     0.015 C
HETATM    2  C2  UNL     1      13.593  47.156  14.741  1.00  0.00    -0.035 C
HETATM    3  C3  UNL     1      14.023  46.730  13.371  1.00  0.00     0.015 C
HETATM    4  C4  UNL     1      14.088  48.549  15.135  1.00  0.00     0.051 C
HETATM    5  C5  UNL     1      15.303  47.876  15.719  1.00  0.00     0.165 C
HETATM    6  C6  UNL     1      15.457  48.267  17.171  1.00  0.00     0.225 C
HETATM    7  O1  UNL     1      14.185  47.920  17.672  1.00  0.00    -0.346 OA
HETATM    8  C8  UNL     1      13.981  46.624  17.195  1.00  0.00     0.271 C
HETATM    9  C14 UNL     1      14.541  46.600  15.782  1.00  0.00     0.088 C
ENDROOT
BRANCH   8  10
HETATM   10  O2  UNL     1      14.651  45.697  17.975  1.00  0.00    -0.327 OA
BRANCH  10  11
HETATM   11  C9  UNL     1      13.721  45.012  18.751  1.00  0.00     0.292 A
HETATM   12  C10 UNL     1      12.759  44.348  17.827  1.00  0.00     0.033 A
HETATM   13  C11 UNL     1      11.456  44.555  17.905  1.00  0.00     0.003 A
HETATM   14  C12 UNL     1      10.901  45.446  18.905  1.00  0.00     0.024 A
HETATM   15  C13 UNL     1      11.710  46.053  19.741  1.00  0.00     0.138 A
HETATM   16  O3  UNL     1      13.082  45.855  19.682  1.00  0.00    -0.329 OA
ENDBRANCH  10  11
ENDBRANCH   8  10
BRANCH   6  17
HETATM   17  C7  UNL     1      15.695  49.721  17.282  1.00  0.00     0.118 C
HETATM   18  N2  UNL     1      14.803  50.475  17.815  1.00  0.00    -0.389 N
ATOM     19  H22 UNL     1      13.938  50.055  18.154  1.00  0.00     0.157 HD
ATOM     20  H21 UNL     1      14.967  51.479  17.892  1.00  0.00     0.157 HD
HETATM   21  N3  UNL     1      16.896  50.306  16.810  1.00  0.00    -0.085 NA
ENDBRANCH   6  17
BRANCH   5  22
HETATM   22  N1  UNL     1      16.498  47.927  14.975  1.00  0.00    -0.067 N
ATOM     23  H13 UNL     1      16.792  48.898  14.876  1.00  0.00     0.275 HD
ATOM     24  H12 UNL     1      17.261  47.552  15.538  1.00  0.00     0.275 HD
ATOM     25  H11 UNL     1      16.503  47.478  14.059  1.00  0.00     0.275 HD
ENDBRANCH   5  22
TORSDOF 4
ENDMDL