MODEL 4
REMARK VINA RESULT: -5.943228151      2.814      6.120
REMARK  3 active torsions:
REMARK  status: ('A' for Active; 'I' for Inactive)
REMARK    1  A    between atoms: N1_1  and  N2_4
REMARK    2  A    between atoms: C4_9  and  N3_10
REMARK    3  A    between atoms: C5_12  and  C6_13
ROOT
HETATM    1  N2  UNL     1      10.741  44.206  15.982  1.00  0.00    -0.292 N
ATOM      2  H2  UNL     1       9.975  43.921  15.372  1.00  0.00     0.188 HD
HETATM    3  C1  UNL     1      10.511  44.840  17.082  1.00  0.00     0.120 A
HETATM    4  C2  UNL     1      11.581  45.215  17.895  1.00  0.00     0.067 A
HETATM    5  C3  UNL     1      11.371  45.888  19.070  1.00  0.00     0.040 A
HETATM    6  C4  UNL     1      12.419  46.281  19.911  1.00  0.00     0.118 A
HETATM    7  N5  UNL     1      12.116  46.957  21.079  1.00  0.00    -0.338 N
ATOM      8  H5  UNL     1      12.860  47.255  21.711  1.00  0.00     0.168 HD
HETATM    9  C11 UNL     1      10.849  47.213  21.366  1.00  0.00     0.182 A
HETATM   10  N6  UNL     1       9.849  46.835  20.559  1.00  0.00    -0.350 N
ATOM     11  H6  UNL     1       8.887  47.053  20.820  1.00  0.00     0.166 HD
HETATM   12  C12 UNL     1      10.085  46.178  19.416  1.00  0.00     0.062 A
HETATM   13  C13 UNL     1       9.059  45.783  18.575  1.00  0.00     0.120 A
HETATM   14  N7  UNL     1       9.237  45.126  17.426  1.00  0.00    -0.349 N
ATOM     15  H7  UNL     1       8.449  44.854  16.837  1.00  0.00     0.167 HD
ENDROOT
BRANCH   6  16
HETATM   16  N3  UNL     1      13.583  46.060  19.669  1.00  0.00    -0.349 N
HETATM   17  C5  UNL     1      14.630  45.490  19.028  1.00  0.00     0.119 C
ATOM     18  H3  UNL     1      14.054  46.653  20.351  1.00  0.00     0.167 HD
BRANCH  17  19
HETATM   19  C6  UNL     1      15.975  45.918  19.590  1.00  0.00     0.047 A
HETATM   20  C7  UNL     1      16.602  45.182  20.565  1.00  0.00     0.031 A
HETATM   21  C8  UNL     1      17.825  45.551  21.093  1.00  0.00     0.004 A
HETATM   22  C9  UNL     1      18.439  46.694  20.628  1.00  0.00     0.017 A
HETATM   23  C10 UNL     1      17.781  47.408  19.649  1.00  0.00     0.088 A
HETATM   24  N4  UNL     1      16.589  47.030  19.148  1.00  0.00    -0.365 N
ATOM     25  H4  UNL     1      16.146  47.596  18.424  1.00  0.00     0.165 HD
ENDBRANCH  17  19
ENDBRANCH   6  16
BRANCH   1  26
HETATM   26  N1  UNL     1      12.062  43.923  15.650  1.00  0.00    -0.344 N
ATOM     27  H12 UNL     1      12.809  44.125  16.314  1.00  0.00     0.176 HD
ATOM     28  H11 UNL     1      12.253  43.512  14.735  1.00  0.00     0.176 HD
ENDBRANCH   1  26
TORSDOF 3
ENDMDL