MODEL 1
REMARK VINA RESULT: -8.346645961      0.000      0.000
REMARK  4 active torsions:
REMARK  status: ('A' for Active; 'I' for Inactive)
REMARK    1  A    between atoms: N1_2  and  C2_4
REMARK    2  A    between atoms: C5_9  and  N3_10
REMARK    3  A    between atoms: C6_13  and  C7_14
REMARK    4  A    between atoms: C11_18  and  C12_19
ROOT
HETATM    1  C7  UNL     1      12.927  45.852  19.008  1.00  0.00    -0.021 A
HETATM    2  C8  UNL     1      12.305  44.952  18.158  1.00  0.00     0.012 A
HETATM    3  C9  UNL     1      10.954  44.710  18.177  1.00  0.00     0.002 A
HETATM    4  C10 UNL     1      10.199  45.405  19.091  1.00  0.00     0.015 A
HETATM    5  C11 UNL     1      10.780  46.308  19.953  1.00  0.00     0.011 A
HETATM    6  C13 UNL     1      12.143  46.544  19.926  1.00  0.00     0.027 A
ENDROOT
BRANCH   1   7
HETATM    7  C6  UNL     1      14.371  46.063  18.937  1.00  0.00     0.020 C
HETATM    8  C5  UNL     1      14.816  46.923  17.953  1.00  0.00     0.110 C
HETATM    9  N2  UNL     1      15.964  47.644  17.888  1.00  0.00    -0.352 N
HETATM   10  C4  UNL     1      17.110  47.380  18.555  1.00  0.00     0.092 C
ATOM     11  H2  UNL     1      15.962  48.462  17.279  1.00  0.00     0.166 HD
HETATM   12  C3  UNL     1      17.295  46.554  19.670  1.00  0.00     0.046 C
HETATM   13  C2  UNL     1      16.506  45.516  20.118  1.00  0.00     0.029 C
HETATM   14  C14 UNL     1      15.151  45.385  19.859  1.00  0.00     0.045 C
BRANCH   8  15
HETATM   15  N3  UNL     1      14.029  47.051  16.966  1.00  0.00    -0.385 N
ATOM     16  H32 UNL     1      13.559  47.955  16.911  1.00  0.00     0.157 HD
ATOM     17  H31 UNL     1      13.958  46.243  16.348  1.00  0.00     0.157 HD
ENDBRANCH   8  15
BRANCH  13  18
HETATM   18  N1  UNL     1      17.079  44.611  20.824  1.00  0.00    -0.394 N
HETATM   19  C1  UNL     1      18.102  45.002  21.766  1.00  0.00     0.146 C
ATOM     20  H1  UNL     1      16.817  43.631  20.722  1.00  0.00     0.159 HD
ENDBRANCH  13  18
ENDBRANCH   1   7
BRANCH   5  21
HETATM   21  C12 UNL     1       9.944  47.029  20.913  1.00  0.00     0.147 A
HETATM   22  N4  UNL     1      10.234  48.161  21.577  1.00  0.00    -0.268 N
HETATM   23  N5  UNL     1       9.191  48.449  22.332  1.00  0.00    -0.227 N
ATOM     24  H4  UNL     1      11.099  48.697  21.510  1.00  0.00     0.190 HD
HETATM   25  N6  UNL     1       8.255  47.549  22.174  1.00  0.00    -0.227 N
ATOM     26  H5  UNL     1       9.124  49.258  22.951  1.00  0.00     0.210 HD
HETATM   27  N7  UNL     1       8.711  46.681  21.308  1.00  0.00    -0.268 N
ATOM     28  H6  UNL     1       7.346  47.528  22.636  1.00  0.00     0.210 HD
ATOM     29  H7  UNL     1       8.203  45.859  20.981  1.00  0.00     0.190 HD
ENDBRANCH   5  21
TORSDOF 4
ENDMDL