MODEL 2
REMARK VINA RESULT: -6.672126282      0.590      2.248
REMARK  3 active torsions:
REMARK  status: ('A' for Active; 'I' for Inactive)
REMARK    1  A    between atoms: C3_7  and  N3_8
REMARK    2  A    between atoms: N3_8  and  C4_10
REMARK    3  A    between atoms: C8_14  and  O1_15
ROOT
HETATM    1  C1  UNL     1      16.437  48.953  15.785  1.00  0.00     0.147 C
HETATM    2  N1  UNL     1      15.589  48.058  16.419  1.00  0.00    -0.379 N
ATOM      3  H1  UNL     1      14.728  47.917  15.889  1.00  0.00     0.160 HD
HETATM    4  C2  UNL     1      15.597  47.379  17.466  1.00  0.00     0.141 A
HETATM    5  N2  UNL     1      14.511  46.574  17.753  1.00  0.00    -0.175 N
ATOM      6  H2  UNL     1      13.725  46.553  17.102  1.00  0.00     0.186 HD
HETATM    7  C3  UNL     1      14.460  45.828  18.850  1.00  0.00     0.685 A
HETATM    8  N4  UNL     1      15.455  45.809  19.745  1.00  0.00    -0.177 N
ATOM      9  H4  UNL     1      15.384  45.225  20.578  1.00  0.00     0.185 HD
HETATM   10  C11 UNL     1      16.538  46.558  19.542  1.00  0.00     0.156 A
HETATM   11  N5  UNL     1      17.614  46.569  20.462  1.00  0.00    -0.080 NA
HETATM   12  C12 UNL     1      16.611  47.356  18.382  1.00  0.00     0.130 A
HETATM   13  C13 UNL     1      17.808  48.150  18.208  1.00  0.00     0.107 C
HETATM   14  N6  UNL     1      18.782  48.777  18.096  1.00  0.00    -0.191 NA
ENDROOT
BRANCH   7  15
HETATM   15  N3  UNL     1      13.382  45.119  18.998  1.00  0.00    -0.192 N
ATOM     16  H3  UNL     1      13.440  44.124  18.782  1.00  0.00     0.184 HD
BRANCH  15  17
HETATM   17  C4  UNL     1      12.159  45.612  19.428  1.00  0.00     0.051 A
HETATM   18  C5  UNL     1      10.986  45.199  18.844  1.00  0.00     0.030 A
HETATM   19  C6  UNL     1       9.752  45.687  19.266  1.00  0.00     0.005 A
HETATM   20  C7  UNL     1       9.721  46.603  20.292  1.00  0.00     0.037 A
HETATM   21  C8  UNL     1      10.862  47.031  20.890  1.00  0.00     0.070 A
HETATM   22  C10 UNL     1      12.093  46.528  20.450  1.00  0.00     0.066 A
BRANCH  21  23
HETATM   23  O1  UNL     1      10.794  47.951  21.916  1.00  0.00    -0.356 OA
HETATM   24  C9  UNL     1       9.863  48.988  21.872  1.00  0.00     0.210 C
ENDBRANCH  21  23
ENDBRANCH  15  17
ENDBRANCH   7  15
TORSDOF 3
ENDMDL