MODEL 1
REMARK VINA RESULT: -6.955992300      0.000      0.000
REMARK  4 active torsions:
REMARK  status: ('A' for Active; 'I' for Inactive)
REMARK    1  A    between atoms: N1_2  and  C2_4
REMARK    2  A    between atoms: C3_7  and  N3_8
REMARK    3  A    between atoms: N3_8  and  C4_10
REMARK    4  A    between atoms: C7_15  and  C8_16
ROOT
HETATM    1  C4  UNL     1      14.071  45.370  17.958  1.00  0.00     0.137 A
HETATM    2  C5  UNL     1      13.815  44.273  17.169  1.00  0.00     0.137 A
HETATM    3  N4  UNL     1      12.624  43.699  17.192  1.00  0.00    -0.370 N
ATOM      4  H4  UNL     1      12.425  42.885  16.610  1.00  0.00     0.164 HD
HETATM    5  C6  UNL     1      11.678  44.218  18.007  1.00  0.00     0.118 A
HETATM    6  C7  UNL     1      11.881  45.311  18.817  1.00  0.00     0.060 A
HETATM    7  N6  UNL     1      13.110  45.860  18.757  1.00  0.00    -0.339 N
ATOM      8  H6  UNL     1      13.316  46.674  19.337  1.00  0.00     0.167 HD
ENDROOT
BRANCH   1   9
HETATM    9  N3  UNL     1      15.246  45.875  17.885  1.00  0.00    -0.173 N
ATOM     10  H3  UNL     1      15.435  46.508  17.107  1.00  0.00     0.186 HD
BRANCH   9  11
HETATM   11  C3  UNL     1      16.294  45.634  18.783  1.00  0.00     0.713 A
HETATM   12  N2  UNL     1      17.146  46.565  19.256  1.00  0.00    -0.020 N
HETATM   13  C2  UNL     1      18.028  46.014  20.092  1.00  0.00     0.707 A
ATOM     14  H2  UNL     1      17.120  47.555  19.010  1.00  0.00     0.203 HD
HETATM   15  N8  UNL     1      17.736  44.706  20.156  1.00  0.00    -0.117 N
HETATM   16  N7  UNL     1      16.685  44.482  19.363  1.00  0.00    -0.117 N
ATOM     17  H8  UNL     1      18.228  44.006  20.712  1.00  0.00     0.206 HD
ATOM     18  H7  UNL     1      16.244  43.574  19.217  1.00  0.00     0.206 HD
BRANCH  13  19
HETATM   19  N1  UNL     1      18.969  46.642  20.704  1.00  0.00    -0.229 N
HETATM   20  C1  UNL     1      19.244  48.025  20.430  1.00  0.00     0.165 C
ATOM     21  H1  UNL     1      19.530  46.147  21.398  1.00  0.00     0.177 HD
ENDBRANCH  13  19
ENDBRANCH   9  11
ENDBRANCH   1   9
BRANCH   6  22
HETATM   22  C8  UNL     1      10.837  45.843  19.684  1.00  0.00     0.007 A
HETATM   23  C9  UNL     1      11.088  46.705  20.723  1.00  0.00     0.016 A
HETATM   24  C10 UNL     1      10.093  47.218  21.556  1.00  0.00     0.018 A
HETATM   25  C11 UNL     1       8.796  46.846  21.334  1.00  0.00     0.087 A
HETATM   26  N5  UNL     1       8.537  46.004  20.323  1.00  0.00    -0.374 N
HETATM   27  C12 UNL     1       9.506  45.512  19.519  1.00  0.00     0.101 A
ATOM     28  H5  UNL     1       7.571  45.724  20.153  1.00  0.00     0.164 HD
ENDBRANCH   6  22
TORSDOF 4
ENDMDL