MODEL 3
REMARK VINA RESULT: -6.148915513      1.259      1.437
REMARK  4 active torsions:
REMARK  status: ('A' for Active; 'I' for Inactive)
REMARK    1  A    between atoms: C3_3  and  N1_4
REMARK    2  A    between atoms: N1_4  and  C4_6
REMARK    3  A    between atoms: C7_11  and  N3_12
REMARK    4  A    between atoms: N3_12  and  C8_14
ROOT
HETATM    1  C4  UNL     1      11.852  44.781  17.595  1.00  0.00     0.684 A
HETATM    2  N2  UNL     1      11.250  44.839  16.400  1.00  0.00    -0.202 N
ATOM      3  H2  UNL     1      11.811  44.753  15.553  1.00  0.00     0.183 HD
HETATM    4  C5  UNL     1       9.924  45.008  16.298  1.00  0.00     0.110 A
HETATM    5  C6  UNL     1       9.193  45.120  17.465  1.00  0.00     0.067 A
HETATM    6  C7  UNL     1       9.792  45.063  18.710  1.00  0.00     0.123 A
HETATM    7  N6  UNL     1      11.116  44.894  18.714  1.00  0.00    -0.176 N
ATOM      8  H6  UNL     1      11.594  44.847  19.614  1.00  0.00     0.186 HD
ENDROOT
BRANCH   1   9
HETATM    9  N1  UNL     1      13.129  44.620  17.720  1.00  0.00    -0.188 N
ATOM     10  H1  UNL     1      13.478  43.719  18.048  1.00  0.00     0.184 HD
BRANCH   9  11
HETATM   11  C3  UNL     1      14.063  45.643  17.422  1.00  0.00     0.089 A
HETATM   12  C2  UNL     1      15.389  45.635  17.806  1.00  0.00     0.052 A
HETATM   13  C1  UNL     1      16.039  44.550  18.592  1.00  0.00     0.072 C
HETATM   14  N8  UNL     1      15.973  46.736  17.365  1.00  0.00    -0.299 N
HETATM   15  N7  UNL     1      15.076  47.454  16.711  1.00  0.00    -0.308 N
HETATM   16  C12 UNL     1      17.366  47.174  17.521  1.00  0.00     0.177 C
HETATM   17  C11 UNL     1      13.886  46.817  16.723  1.00  0.00     0.139 A
ATOM     18  H7  UNL     1      15.255  48.354  16.264  1.00  0.00     0.186 HD
ENDBRANCH   9  11
ENDBRANCH   1   9
BRANCH   6  19
HETATM   19  N3  UNL     1       9.074  45.173  19.768  1.00  0.00    -0.327 N
ATOM     20  H3  UNL     1       8.477  44.388  20.030  1.00  0.00     0.169 HD
BRANCH  19  21
HETATM   21  C8  UNL     1       9.066  46.325  20.591  1.00  0.00     0.122 A
HETATM   22  C9  UNL     1      10.039  47.285  20.764  1.00  0.00     0.068 A
HETATM   23  C10 UNL     1       9.578  48.237  21.681  1.00  0.00     0.111 A
HETATM   24  N4  UNL     1       8.351  47.816  22.024  1.00  0.00    -0.310 N
HETATM   25  N5  UNL     1       8.053  46.699  21.388  1.00  0.00    -0.286 N
ATOM     26  H4  UNL     1       7.736  48.291  22.685  1.00  0.00     0.186 HD
ATOM     27  H5  UNL     1       7.175  46.191  21.487  1.00  0.00     0.188 HD
ENDBRANCH  19  21
ENDBRANCH   6  19
TORSDOF 4
ENDMDL