MODEL 3
REMARK VINA RESULT: -5.662745111      1.393      1.580
REMARK  4 active torsions:
REMARK  status: ('A' for Active; 'I' for Inactive)
REMARK    1  A    between atoms: N1_1  and  C1_4
REMARK    2  A    between atoms: C5_10  and  C6_11
REMARK    3  A    between atoms: C10_16  and  N3_17
REMARK    4  A    between atoms: C11_21  and  N4_22
ROOT
HETATM    1  C6  UNL     1      11.052  44.798  18.218  1.00  0.00     0.165 C
HETATM    2  O1  UNL     1      12.049  43.824  18.560  1.00  0.00    -0.373 OA
HETATM    3  C7  UNL     1      13.107  44.608  18.226  1.00  0.00     0.154 C
HETATM    4  C8  UNL     1      12.198  45.550  17.552  1.00  0.00     0.052 C
HETATM    5  C9  UNL     1      12.207  45.199  16.070  1.00  0.00     0.045 C
HETATM    6  C10 UNL     1      13.722  45.013  15.916  1.00  0.00     0.209 C
HETATM    7  C11 UNL     1      14.064  44.197  17.116  1.00  0.00     0.150 C
ENDROOT
BRANCH   1   8
HETATM    8  C5  UNL     1      10.623  45.646  19.356  1.00  0.00     0.013 A
HETATM    9  C1  UNL     1       9.256  45.743  19.537  1.00  0.00     0.037 A
HETATM   10  C2  UNL     1       8.781  46.506  20.589  1.00  0.00     0.046 A
HETATM   11  C3  UNL     1       9.634  47.155  21.442  1.00  0.00     0.090 A
HETATM   12  N2  UNL     1      10.936  47.040  21.242  1.00  0.00    -0.374 N
HETATM   13  C4  UNL     1      11.455  46.301  20.218  1.00  0.00     0.099 A
ATOM     14  H2  UNL     1      11.575  47.520  21.875  1.00  0.00     0.164 HD
BRANCH   9  15
HETATM   15  N1  UNL     1       8.398  45.175  18.765  1.00  0.00    -0.399 N
ATOM     16  H12 UNL     1       8.443  44.189  18.506  1.00  0.00     0.156 HD
ATOM     17  H11 UNL     1       7.643  45.744  18.384  1.00  0.00     0.156 HD
ENDBRANCH   9  15
ENDBRANCH   1   8
BRANCH   7  18
HETATM   18  N4  UNL     1      15.382  44.583  17.594  1.00  0.00    -0.342 N
HETATM   19  C12 UNL     1      15.655  45.175  18.766  1.00  0.00     0.109 A
HETATM   20  C13 UNL     1      17.008  45.413  18.857  1.00  0.00     0.106 A
HETATM   21  N5  UNL     1      17.508  44.945  17.710  1.00  0.00    -0.361 N
HETATM   22  C14 UNL     1      16.529  44.425  16.914  1.00  0.00     0.183 A
ATOM     23  H5  UNL     1      18.496  44.973  17.460  1.00  0.00     0.166 HD
ENDBRANCH   7  18
BRANCH   6  24
HETATM   24  N3  UNL     1      14.016  44.442  14.650  1.00  0.00    -0.073 N
ATOM     25  H33 UNL     1      13.420  44.819  13.912  1.00  0.00     0.274 HD
ATOM     26  H32 UNL     1      14.917  44.756  14.289  1.00  0.00     0.274 HD
ATOM     27  H31 UNL     1      13.959  43.425  14.704  1.00  0.00     0.274 HD
ENDBRANCH   6  24
TORSDOF 4
ENDMDL