MODEL 5
REMARK VINA RESULT: -6.354678287      3.601      5.386
REMARK  5 active torsions:
REMARK  status: ('A' for Active; 'I' for Inactive)
REMARK    1  A    between atoms: C2_3  and  C3_4
REMARK    2  A    between atoms: C3_4  and  N2_5
REMARK    3  A    between atoms: N2_5  and  N3_7
REMARK    4  A    between atoms: N3_7  and  C4_9
REMARK    5  A    between atoms: C7_14  and  N5_15
ROOT
HETATM    1  N2  UNL     1      13.543  45.936  18.226  1.00  0.00    -0.307 N
ATOM      2  H2  UNL     1      13.150  46.712  17.694  1.00  0.00     0.186 HD
ENDROOT
BRANCH   1   3
HETATM    3  C3  UNL     1      14.596  45.334  17.797  1.00  0.00     0.155 C
BRANCH   3   4
HETATM    4  C2  UNL     1      15.868  45.477  18.520  1.00  0.00     0.125 A
HETATM    5  N1  UNL     1      16.802  46.416  18.299  1.00  0.00    -0.335 N
HETATM    6  C1  UNL     1      16.741  47.479  17.304  1.00  0.00     0.158 C
HETATM    7  C13 UNL     1      17.845  46.233  19.161  1.00  0.00     0.062 A
HETATM    8  C8  UNL     1      17.540  45.146  19.932  1.00  0.00     0.060 A
HETATM    9  C12 UNL     1      19.035  46.917  19.340  1.00  0.00     0.032 A
HETATM   10  N7  UNL     1      16.340  44.713  19.520  1.00  0.00    -0.339 N
HETATM   11  C9  UNL     1      18.454  44.757  20.892  1.00  0.00     0.032 A
ATOM     12  H7  UNL     1      15.850  43.910  19.913  1.00  0.00     0.167 HD
HETATM   13  C10 UNL     1      19.649  45.406  21.107  1.00  0.00     0.002 A
HETATM   14  C11 UNL     1      19.924  46.500  20.310  1.00  0.00     0.002 A
ENDBRANCH   3   4
ENDBRANCH   1   3
BRANCH   1  15
HETATM   15  N3  UNL     1      12.942  45.533  19.409  1.00  0.00    -0.285 N
ATOM     16  H3  UNL     1      13.472  44.985  20.086  1.00  0.00     0.188 HD
BRANCH  15  17
HETATM   17  C4  UNL     1      11.721  45.848  19.654  1.00  0.00     0.136 A
HETATM   18  C5  UNL     1      11.453  46.750  20.651  1.00  0.00     0.068 A
HETATM   19  C6  UNL     1      10.153  47.141  20.977  1.00  0.00     0.110 A
HETATM   20  N4  UNL     1       9.165  46.577  20.246  1.00  0.00    -0.202 N
HETATM   21  C7  UNL     1       9.438  45.683  19.260  1.00  0.00     0.677 A
ATOM     22  H4  UNL     1       8.195  46.826  20.439  1.00  0.00     0.183 HD
HETATM   23  N6  UNL     1      10.694  45.319  18.961  1.00  0.00    -0.176 N
ATOM     24  H6  UNL     1      10.870  44.646  18.214  1.00  0.00     0.186 HD
BRANCH  21  25
HETATM   25  N5  UNL     1       8.419  45.207  18.627  1.00  0.00    -0.234 N
ATOM     26  H52 UNL     1       7.613  45.785  18.389  1.00  0.00     0.174 HD
ATOM     27  H51 UNL     1       8.465  44.218  18.380  1.00  0.00     0.174 HD
ENDBRANCH  21  25
ENDBRANCH  15  17
ENDBRANCH   1  15
TORSDOF 5
ENDMDL