MODEL 5
REMARK VINA RESULT: -5.947601953      1.891      2.991
REMARK  3 active torsions:
REMARK  status: ('A' for Active; 'I' for Inactive)
REMARK    1  A    between atoms: C5_8  and  C6_9
REMARK    2  A    between atoms: C11_16  and  N3_17
REMARK    3  A    between atoms: N5_23  and  N6_25
ROOT
HETATM    1  C1  UNL     1      17.880  44.852  16.374  1.00  0.00     0.048 C
HETATM    2  C2  UNL     1      16.694  45.278  15.481  1.00  0.00     0.140 C
HETATM    3  C3  UNL     1      17.237  46.224  14.471  1.00  0.00     0.048 C
HETATM    4  N1  UNL     1      16.170  44.051  14.978  1.00  0.00    -0.064 N
ATOM      5  H11 UNL     1      16.893  43.338  14.883  1.00  0.00     0.278 HD
ATOM      6  H12 UNL     1      15.901  44.125  13.997  1.00  0.00     0.278 HD
HETATM    7  C4  UNL     1      15.087  43.607  15.794  1.00  0.00     0.246 C
HETATM    8  C5  UNL     1      14.977  44.603  16.905  1.00  0.00     0.087 C
HETATM    9  C11 UNL     1      15.627  45.855  16.382  1.00  0.00     0.154 C
ENDROOT
BRANCH   9  10
HETATM   10  N3  UNL     1      14.811  46.871  15.850  1.00  0.00    -0.183 N
HETATM   11  C12 UNL     1      13.937  46.701  14.800  1.00  0.00     0.127 A
HETATM   12  C13 UNL     1      13.283  47.862  14.513  1.00  0.00     0.124 A
HETATM   13  N4  UNL     1      13.738  48.766  15.374  1.00  0.00    -0.199 N
HETATM   14  C14 UNL     1      14.641  48.179  16.163  1.00  0.00     0.698 A
ATOM     15  H4  UNL     1      13.447  49.743  15.423  1.00  0.00     0.183 HD
HETATM   16  N5  UNL     1      15.262  48.798  17.091  1.00  0.00    -0.138 N
ATOM     17  H5  UNL     1      15.939  48.266  17.640  1.00  0.00     0.205 HD
BRANCH  16  18
HETATM   18  N6  UNL     1      15.090  50.131  17.411  1.00  0.00    -0.331 N
ATOM     19  H62 UNL     1      14.163  50.522  17.240  1.00  0.00     0.177 HD
ATOM     20  H61 UNL     1      15.811  50.739  17.798  1.00  0.00     0.177 HD
ENDBRANCH  16  18
ENDBRANCH   9  10
BRANCH   8  21
HETATM   21  C6  UNL     1      13.719  44.753  17.587  1.00  0.00     0.016 A
HETATM   22  C7  UNL     1      12.549  44.170  17.169  1.00  0.00     0.025 A
HETATM   23  C8  UNL     1      11.348  44.353  17.851  1.00  0.00     0.003 A
HETATM   24  C9  UNL     1      11.339  45.141  18.979  1.00  0.00     0.017 A
HETATM   25  C10 UNL     1      12.508  45.718  19.389  1.00  0.00     0.088 A
HETATM   26  N2  UNL     1      13.627  45.510  18.698  1.00  0.00    -0.369 N
ATOM     27  H2  UNL     1      14.480  45.958  19.036  1.00  0.00     0.165 HD
ENDBRANCH   8  21
TORSDOF 3
ENDMDL