MODEL 2
REMARK VINA RESULT: -6.873119665      2.228      3.765
REMARK  3 active torsions:
REMARK  status: ('A' for Active; 'I' for Inactive)
REMARK    1  A    between atoms: C3_3  and  N1_4
REMARK    2  A    between atoms: N1_4  and  C4_6
REMARK    3  A    between atoms: C8_16  and  C9_17
ROOT
HETATM    1  C1  UNL     1      15.285  46.647  16.256  1.00  0.00     0.014 C
HETATM    2  C2  UNL     1      15.278  45.922  17.219  1.00  0.00    -0.097 C
HETATM    3  C3  UNL     1      15.246  45.036  18.405  1.00  0.00     0.231 C
ENDROOT
BRANCH   3   4
HETATM    4  N1  UNL     1      14.217  45.524  19.275  1.00  0.00    -0.216 N
ATOM      5  H1  UNL     1      14.510  45.931  20.163  1.00  0.00     0.178 HD
BRANCH   4   6
HETATM    6  C4  UNL     1      12.960  45.492  19.031  1.00  0.00     0.680 A
HETATM    7  N2  UNL     1      12.500  44.831  17.964  1.00  0.00    -0.174 N
HETATM    8  C5  UNL     1      11.175  44.817  17.734  1.00  0.00     0.149 A
ATOM      9  H2  UNL     1      13.143  44.347  17.336  1.00  0.00     0.186 HD
HETATM   10  N3  UNL     1      10.440  44.269  16.740  1.00  0.00    -0.285 N
HETATM   11  C7  UNL     1      10.304  45.488  18.609  1.00  0.00     0.055 A
HETATM   12  N4  UNL     1       9.182  44.565  16.951  1.00  0.00    -0.309 N
ATOM     13  H3  UNL     1      10.803  43.721  15.961  1.00  0.00     0.188 HD
HETATM   14  C6  UNL     1       9.053  45.310  18.081  1.00  0.00     0.124 A
ATOM     15  H4  UNL     1       8.408  44.277  16.351  1.00  0.00     0.186 HD
HETATM   16  C8  UNL     1      10.787  46.165  19.708  1.00  0.00     0.076 A
HETATM   17  N7  UNL     1      12.147  46.140  19.882  1.00  0.00    -0.190 N
ATOM     18  H7  UNL     1      12.554  46.628  20.681  1.00  0.00     0.184 HD
BRANCH  16  19
HETATM   19  C9  UNL     1       9.958  46.928  20.626  1.00  0.00     0.009 A
HETATM   20  C10 UNL     1       8.900  46.278  21.284  1.00  0.00     0.101 A
HETATM   21  N5  UNL     1       8.032  46.904  22.083  1.00  0.00    -0.373 N
HETATM   22  C11 UNL     1       8.155  48.221  22.286  1.00  0.00     0.114 A
ATOM     23  H5  UNL     1       7.281  46.383  22.535  1.00  0.00     0.164 HD
HETATM   24  C12 UNL     1       9.152  48.955  21.692  1.00  0.00     0.062 A
HETATM   25  N6  UNL     1       9.307  50.343  21.887  1.00  0.00    -0.101 NA
HETATM   26  C13 UNL     1      10.046  48.268  20.858  1.00  0.00     0.043 A
ENDBRANCH  16  19
ENDBRANCH   4   6
ENDBRANCH   3   4
TORSDOF 3
ENDMDL