MODEL 5
REMARK VINA RESULT: -5.933438289      2.369      3.228
REMARK  3 active torsions:
REMARK  status: ('A' for Active; 'I' for Inactive)
REMARK    1  A    between atoms: O1_2  and  C2_3
REMARK    2  A    between atoms: C5_6  and  N1_7
REMARK    3  A    between atoms: C9_17  and  N4_18
ROOT
HETATM    1  C2  UNL     1      13.485  44.836  18.405  1.00  0.00     0.096 A
HETATM    2  C3  UNL     1      12.692  45.583  19.274  1.00  0.00     0.056 A
HETATM    3  C4  UNL     1      11.321  45.584  19.201  1.00  0.00     0.037 A
HETATM    4  C5  UNL     1      10.514  46.318  20.053  1.00  0.00     0.112 A
HETATM    5  N2  UNL     1       9.160  46.296  19.952  1.00  0.00    -0.338 N
ATOM      6  H2  UNL     1       8.577  46.841  20.586  1.00  0.00     0.168 HD
HETATM    7  C6  UNL     1       8.610  45.531  18.986  1.00  0.00     0.182 A
HETATM    8  N3  UNL     1       9.392  44.815  18.153  1.00  0.00    -0.351 N
ATOM      9  H3  UNL     1       8.941  44.250  17.433  1.00  0.00     0.166 HD
HETATM   10  C7  UNL     1      10.732  44.807  18.218  1.00  0.00     0.049 A
HETATM   11  C8  UNL     1      11.521  44.070  17.358  1.00  0.00     0.063 A
HETATM   12  C9  UNL     1      12.898  44.065  17.427  1.00  0.00     0.069 A
ENDROOT
BRANCH  12  13
HETATM   13  N4  UNL     1      13.718  43.310  16.549  1.00  0.00    -0.340 N
HETATM   14  C10 UNL     1      14.062  43.720  15.380  1.00  0.00     0.107 A
HETATM   15  C11 UNL     1      14.855  42.992  14.526  1.00  0.00     0.065 A
HETATM   16  N6  UNL     1      13.624  44.919  14.974  1.00  0.00    -0.339 N
HETATM   17  C12 UNL     1      15.194  43.488  13.277  1.00  0.00     0.092 A
HETATM   18  N5  UNL     1      14.717  44.704  12.933  1.00  0.00    -0.362 N
HETATM   19  C13 UNL     1      13.939  45.434  13.750  1.00  0.00     0.181 A
ATOM     20  H5  UNL     1      14.957  45.082  12.017  1.00  0.00     0.165 HD
ATOM     21  H6  UNL     1      13.035  45.467  15.601  1.00  0.00     0.168 HD
ATOM     22  H4  UNL     1      14.051  42.397  16.860  1.00  0.00     0.167 HD
ENDBRANCH  12  13
BRANCH   1  23
HETATM   23  O1  UNL     1      14.863  44.865  18.514  1.00  0.00    -0.354 OA
HETATM   24  C1  UNL     1      15.591  45.904  17.933  1.00  0.00     0.210 C
ENDBRANCH   1  23
BRANCH   4  25
HETATM   25  N1  UNL     1      11.118  47.031  20.959  1.00  0.00    -0.385 N
ATOM     26  H12 UNL     1      10.740  47.924  21.277  1.00  0.00     0.157 HD
ATOM     27  H11 UNL     1      11.988  46.651  21.335  1.00  0.00     0.157 HD
ENDBRANCH   4  25
TORSDOF 3
ENDMDL