MODEL 5
REMARK VINA RESULT: -6.331756536      0.932      1.113
REMARK  5 active torsions:
REMARK  status: ('A' for Active; 'I' for Inactive)
REMARK    1  A    between atoms: N1_1  and  N2_4
REMARK    2  A    between atoms: N2_4  and  C1_6
REMARK    3  A    between atoms: C2_9  and  C3_10
REMARK    4  A    between atoms: C8_19  and  N6_20
REMARK    5  A    between atoms: N6_20  and  C9_22
ROOT
HETATM    1  C1  UNL     1      15.024  45.532  17.893  1.00  0.00     0.712 A
HETATM    2  N3  UNL     1      13.847  45.846  18.462  1.00  0.00    -0.172 N
ATOM      3  H3  UNL     1      13.758  46.733  18.956  1.00  0.00     0.186 HD
HETATM    4  C2  UNL     1      12.768  45.013  18.400  1.00  0.00     0.163 A
HETATM    5  N5  UNL     1      12.914  43.861  17.749  1.00  0.00    -0.173 N
ATOM      6  H5  UNL     1      12.119  43.226  17.691  1.00  0.00     0.186 HD
HETATM    7  C8  UNL     1      14.075  43.502  17.162  1.00  0.00     0.699 A
HETATM    8  N7  UNL     1      15.108  44.355  17.250  1.00  0.00    -0.021 N
ATOM      9  H7  UNL     1      15.993  44.098  16.812  1.00  0.00     0.203 HD
ENDROOT
BRANCH   7  10
HETATM   10  N6  UNL     1      14.251  42.401  16.527  1.00  0.00    -0.191 N
ATOM     11  H6  UNL     1      15.035  41.807  16.797  1.00  0.00     0.184 HD
BRANCH  10  12
HETATM   12  C9  UNL     1      13.414  41.968  15.473  1.00  0.00     0.049 A
HETATM   13  C10 UNL     1      12.439  42.773  14.919  1.00  0.00     0.030 A
HETATM   14  C11 UNL     1      11.656  42.288  13.891  1.00  0.00     0.002 A
HETATM   15  C12 UNL     1      11.819  40.993  13.387  1.00  0.00     0.000 A
HETATM   16  C13 UNL     1      12.791  40.198  13.942  1.00  0.00     0.002 A
HETATM   17  C14 UNL     1      13.569  40.684  14.966  1.00  0.00     0.030 A
ENDBRANCH  10  12
ENDBRANCH   7  10
BRANCH   4  18
HETATM   18  C3  UNL     1      11.547  45.471  19.059  1.00  0.00     0.077 A
HETATM   19  C4  UNL     1      11.618  46.346  20.115  1.00  0.00     0.033 A
HETATM   20  C5  UNL     1      10.492  46.808  20.772  1.00  0.00     0.004 A
HETATM   21  C6  UNL     1       9.265  46.363  20.335  1.00  0.00     0.017 A
HETATM   22  C7  UNL     1       9.242  45.488  19.274  1.00  0.00     0.088 A
HETATM   23  N4  UNL     1      10.336  45.046  18.646  1.00  0.00    -0.363 N
ATOM     24  H4  UNL     1      10.256  44.397  17.863  1.00  0.00     0.165 HD
ENDBRANCH   4  18
BRANCH   1  25
HETATM   25  N2  UNL     1      16.042  46.323  17.954  1.00  0.00    -0.138 N
ATOM     26  H2  UNL     1      16.223  46.930  17.155  1.00  0.00     0.205 HD
BRANCH  25  27
HETATM   27  N1  UNL     1      16.900  46.401  19.027  1.00  0.00    -0.331 N
ATOM     28  H12 UNL     1      17.292  47.319  19.237  1.00  0.00     0.177 HD
ATOM     29  H11 UNL     1      17.159  45.607  19.614  1.00  0.00     0.177 HD
ENDBRANCH  25  27
ENDBRANCH   1  25
TORSDOF 5
ENDMDL