MODEL 5
REMARK VINA RESULT: -4.065948686      2.221      4.812
REMARK  4 active torsions:
REMARK  status: ('A' for Active; 'I' for Inactive)
REMARK    1  A    between atoms: C2_2  and  C3_3
REMARK    2  A    between atoms: C4_4  and  O1_5
REMARK    3  A    between atoms: C6_9  and  O2_11
REMARK    4  A    between atoms: C8_13  and  C9_14
ROOT
HETATM    1  C3  UNL     1      13.497  45.470  18.020  1.00  0.00     0.282 C
HETATM    2  C4  UNL     1      14.950  45.146  18.047  1.00  0.00     0.393 C
HETATM    3  N1  UNL     1      15.582  45.564  16.828  1.00  0.00     0.152 N
HETATM    4  C5  UNL     1      15.907  46.969  16.806  1.00  0.00     0.317 C
HETATM    5  C6  UNL     1      14.905  45.122  15.640  1.00  0.00     0.296 C
HETATM    6  C7  UNL     1      15.326  43.727  15.319  1.00  0.00     0.084 C
HETATM    7  C8  UNL     1      13.418  45.339  15.695  1.00  0.00     0.355 C
HETATM    8  N4  UNL     1      12.789  44.897  16.897  1.00  0.00     0.110 N
HETATM    9  C13 UNL     1      12.551  43.502  17.021  1.00  0.00     0.311 C
ENDROOT
BRANCH   7  10
HETATM   10  C9  UNL     1      12.808  44.856  14.463  1.00  0.00     0.122 A
HETATM   11  N2  UNL     1      13.251  43.817  13.741  1.00  0.00    -0.352 N
HETATM   12  C10 UNL     1      12.476  43.634  12.676  1.00  0.00     0.106 A
ATOM     13  H2  UNL     1      14.065  43.249  13.975  1.00  0.00     0.166 HD
HETATM   14  C11 UNL     1      11.515  44.621  12.765  1.00  0.00     0.108 A
HETATM   15  N3  UNL     1      11.719  45.369  13.860  1.00  0.00    -0.348 N
HETATM   16  C12 UNL     1      10.893  46.490  14.256  1.00  0.00     0.157 C
ENDBRANCH   7  10
BRANCH   5  17
HETATM   17  O2  UNL     1      15.359  45.966  14.595  1.00  0.00    -0.361 OA
ATOM     18  H2  UNL     1      14.907  46.793  14.713  1.00  0.00     0.212 HD
ENDBRANCH   5  17
BRANCH   1  19
HETATM   19  C2  UNL     1      12.771  45.104  19.283  1.00  0.00     0.036 C
HETATM   20  C1  UNL     1      11.982  46.214  19.880  1.00  0.00     0.007 C
ENDBRANCH   1  19
BRANCH   2  21
HETATM   21  O1  UNL     1      15.532  45.864  19.091  1.00  0.00    -0.366 OA
ATOM     22  H1  UNL     1      16.424  46.075  18.841  1.00  0.00     0.212 HD
ENDBRANCH   2  21
TORSDOF 4
ENDMDL