MODEL 1
REMARK VINA RESULT: -7.463940849      0.000      0.000
REMARK  4 active torsions:
REMARK  status: ('A' for Active; 'I' for Inactive)
REMARK    1  A    between atoms: N1_1  and  C1_4
REMARK    2  A    between atoms: C2_7  and  N3_8
REMARK    3  A    between atoms: N3_8  and  C3_10
REMARK    4  A    between atoms: C10_19  and  C11_20
ROOT
HETATM    1  C1  UNL     1      10.243  45.298  18.782  1.00  0.00     0.128 A
HETATM    2  N2  UNL     1      11.210  44.685  18.055  1.00  0.00    -0.176 N
ATOM      3  H2  UNL     1      10.927  44.090  17.276  1.00  0.00     0.186 HD
HETATM    4  C2  UNL     1      12.521  44.820  18.310  1.00  0.00     0.684 A
HETATM    5  N4  UNL     1      12.850  45.608  19.341  1.00  0.00    -0.201 N
ATOM      6  H4  UNL     1      13.837  45.734  19.566  1.00  0.00     0.183 HD
HETATM    7  C9  UNL     1      11.940  46.232  20.086  1.00  0.00     0.123 A
HETATM    8  C10 UNL     1      10.565  46.102  19.834  1.00  0.00     0.052 A
ENDROOT
BRANCH   8   9
HETATM    9  C11 UNL     1       9.651  46.839  20.673  1.00  0.00     0.065 A
HETATM   10  C12 UNL     1       8.549  46.289  21.255  1.00  0.00     0.137 A
HETATM   11  N5  UNL     1       7.779  47.104  22.051  1.00  0.00    -0.309 N
HETATM   12  N6  UNL     1       8.096  48.363  22.242  1.00  0.00    -0.296 N
ATOM     13  H5  UNL     1       6.946  46.724  22.501  1.00  0.00     0.186 HD
HETATM   14  C13 UNL     1       9.176  48.911  21.677  1.00  0.00     0.197 A
ATOM     15  H6  UNL     1       7.502  48.939  22.838  1.00  0.00     0.187 HD
HETATM   16  N7  UNL     1       9.940  48.170  20.907  1.00  0.00    -0.349 N
ATOM     17  H7  UNL     1      10.765  48.587  20.474  1.00  0.00     0.166 HD
ENDBRANCH   8   9
BRANCH   1  18
HETATM   18  N1  UNL     1       9.040  45.099  18.409  1.00  0.00    -0.384 N
ATOM     19  H12 UNL     1       8.603  44.178  18.425  1.00  0.00     0.157 HD
ATOM     20  H11 UNL     1       8.516  45.920  18.106  1.00  0.00     0.157 HD
ENDBRANCH   1  18
BRANCH   4  21
HETATM   21  N3  UNL     1      13.448  44.249  17.636  1.00  0.00    -0.192 N
ATOM     22  H3  UNL     1      14.415  44.428  17.904  1.00  0.00     0.184 HD
BRANCH  21  23
HETATM   23  C3  UNL     1      13.210  43.383  16.540  1.00  0.00     0.049 A
HETATM   24  C4  UNL     1      12.195  43.637  15.654  1.00  0.00     0.030 A
HETATM   25  C5  UNL     1      11.977  42.785  14.593  1.00  0.00     0.002 A
HETATM   26  C6  UNL     1      12.781  41.677  14.424  1.00  0.00     0.000 A
HETATM   27  C7  UNL     1      13.802  41.432  15.326  1.00  0.00     0.002 A
HETATM   28  C8  UNL     1      14.014  42.287  16.383  1.00  0.00     0.030 A
ENDBRANCH  21  23
ENDBRANCH   4  21
TORSDOF 4
ENDMDL