MODEL 1
REMARK VINA RESULT: -5.658397171      0.000      0.000
REMARK  4 active torsions:
REMARK  status: ('A' for Active; 'I' for Inactive)
REMARK    1  A    between atoms: C3_3  and  N1_4
REMARK    2  A    between atoms: N1_4  and  C4_5
REMARK    3  A    between atoms: C9_15  and  N4_16
REMARK    4  A    between atoms: N4_16  and  C10_18
ROOT
HETATM    1  C1  UNL     1      44.479  11.076  -0.214  1.00  0.00     0.111 A
HETATM    2  C2  UNL     1      44.319  12.073   0.714  1.00  0.00     0.081 A
HETATM    3  C3  UNL     1      45.342  12.413   1.611  1.00  0.00     0.189 A
HETATM    4  N3  UNL     1      46.474  11.682   1.476  1.00  0.00    -0.165 N
ATOM      5  H3  UNL     1      47.258  11.879   2.098  1.00  0.00     0.187 HD
HETATM    6  C9  UNL     1      46.612  10.711   0.561  1.00  0.00     0.680 A
HETATM    7  N6  UNL     1      45.629  10.392  -0.292  1.00  0.00    -0.202 N
ATOM      8  H6  UNL     1      45.753   9.649  -0.981  1.00  0.00     0.183 HD
ENDROOT
BRANCH   3   9
HETATM    9  N1  UNL     1      45.226  13.273   2.425  1.00  0.00    -0.423 NA
BRANCH   9  10
HETATM   10  C4  UNL     1      45.055  14.202   3.352  1.00  0.00     0.191 C
HETATM   11  C5  UNL     1      46.246  14.569   4.236  1.00  0.00     0.043 C
HETATM   12  C6  UNL     1      45.671  15.425   5.347  1.00  0.00     0.030 C
HETATM   13  C7  UNL     1      45.177  16.714   4.691  1.00  0.00     0.232 C
HETATM   14  N2  UNL     1      44.004  16.341   3.915  1.00  0.00    -0.072 N
HETATM   15  C8  UNL     1      44.435  15.495   2.810  1.00  0.00     0.271 C
ATOM     16  H22 UNL     1      43.280  15.904   4.484  1.00  0.00     0.277 HD
ATOM     17  H21 UNL     1      43.466  17.150   3.603  1.00  0.00     0.277 HD
ENDBRANCH   9  10
ENDBRANCH   3   9
BRANCH   6  18
HETATM   18  N4  UNL     1      47.699  10.052   0.474  1.00  0.00    -0.220 N
ATOM     19  H4  UNL     1      48.466  10.523  -0.006  1.00  0.00     0.178 HD
BRANCH  18  20
HETATM   20  C10 UNL     1      47.980   8.759   0.954  1.00  0.00     0.126 C
HETATM   21  C11 UNL     1      49.403   8.339   0.951  1.00  0.00     0.055 C
HETATM   22  C12 UNL     1      49.660   7.755   2.346  1.00  0.00     0.234 C
HETATM   23  N5  UNL     1      48.312   7.319   2.713  1.00  0.00    -0.073 N
HETATM   24  C13 UNL     1      47.544   8.510   2.379  1.00  0.00     0.257 C
ATOM     25  H52 UNL     1      47.995   6.454   2.276  1.00  0.00     0.277 HD
ATOM     26  H51 UNL     1      48.205   6.979   3.668  1.00  0.00     0.277 HD
ENDBRANCH  18  20
ENDBRANCH   6  18
TORSDOF 4
ENDMDL