MODEL 3
REMARK VINA RESULT: -6.163374712      1.457      1.616
REMARK  3 active torsions:
REMARK  status: ('A' for Active; 'I' for Inactive)
REMARK    1  A    between atoms: C2_2  and  N1_3
REMARK       I    between atoms: C3_5  and  N2_6
REMARK       I    between atoms: C3_5  and  N4_15
REMARK    2  A    between atoms: N2_6  and  C4_8
REMARK    3  A    between atoms: N4_15  and  N5_17
REMARK       I    between atoms: N5_17  and  C9_19
REMARK       I    between atoms: C9_19  and  N8_24
ROOT
HETATM    1  N5  UNL     1      48.454   7.635   0.357  1.00  0.00    -0.116 N
ATOM      2  H5  UNL     1      48.422   7.444  -0.645  1.00  0.00     0.206 HD
HETATM    3  C9  UNL     1      48.189   6.584   1.270  1.00  0.00     0.715 C
HETATM    4  N6  UNL     1      48.907   5.519   1.219  1.00  0.00    -0.124 N
ATOM      5  H6  UNL     1      48.709   4.769   1.881  1.00  0.00     0.197 HD
HETATM    6  C10 UNL     1      49.947   5.339   0.300  1.00  0.00     0.196 C
HETATM    7  N7  UNL     1      50.803   5.175  -0.477  1.00  0.00    -0.171 NA
HETATM    8  N8  UNL     1      47.162   6.659   2.242  1.00  0.00    -0.124 N
ATOM      9  H8  UNL     1      46.185   6.627   1.949  1.00  0.00     0.197 HD
HETATM   10  C11 UNL     1      47.472   6.777   3.592  1.00  0.00     0.196 C
HETATM   11  N9  UNL     1      47.738   6.884   4.731  1.00  0.00    -0.171 NA
ENDROOT
BRANCH   1  12
HETATM   12  N4  UNL     1      48.760   8.935   0.798  1.00  0.00    -0.118 N
HETATM   13  C3  UNL     1      48.355  10.049   0.031  1.00  0.00     0.694 C
HETATM   14  N1  UNL     1      49.203  10.911  -0.317  1.00  0.00    -0.225 N
HETATM   15  N2  UNL     1      47.001  10.182  -0.338  1.00  0.00    -0.176 N
ATOM     16  H1  UNL     1      50.162  10.745  -0.012  1.00  0.00     0.177 HD
ATOM     17  H2  UNL     1      46.662   9.657  -1.144  1.00  0.00     0.186 HD
ATOM     18  H4  UNL     1      49.274   9.073   1.668  1.00  0.00     0.206 HD
BRANCH  14  19
HETATM   19  C2  UNL     1      48.988  12.093  -1.086  1.00  0.00     0.134 C
HETATM   20  C1  UNL     1      50.247  12.932  -1.033  1.00  0.00     0.027 C
ENDBRANCH  14  19
BRANCH  15  21
HETATM   21  C4  UNL     1      46.177  10.932   0.293  1.00  0.00     0.120 A
HETATM   22  C5  UNL     1      45.078  11.425  -0.353  1.00  0.00     0.049 A
HETATM   23  C6  UNL     1      44.177  12.237   0.315  1.00  0.00     0.005 A
HETATM   24  C7  UNL     1      44.420  12.534   1.647  1.00  0.00     0.017 A
HETATM   25  C8  UNL     1      45.541  12.010   2.244  1.00  0.00     0.089 A
HETATM   26  N3  UNL     1      46.406  11.219   1.569  1.00  0.00    -0.352 N
ATOM     27  H3  UNL     1      47.231  10.845   2.039  1.00  0.00     0.166 HD
ENDBRANCH  15  21
ENDBRANCH   1  12
TORSDOF 3
ENDMDL