MODEL 4
REMARK VINA RESULT: -6.788491145      1.455      2.389
REMARK  6 active torsions:
REMARK  status: ('A' for Active; 'I' for Inactive)
REMARK    1  A    between atoms: C6_6  and  C7_7
REMARK    2  A    between atoms: C7_7  and  N1_8
REMARK    3  A    between atoms: N1_8  and  C8_10
REMARK    4  A    between atoms: C9_13  and  N3_14
REMARK    5  A    between atoms: C11_19  and  N5_20
REMARK    6  A    between atoms: N5_20  and  N6_22
ROOT
HETATM    1  C1  UNL     1      46.160  16.564   5.095  1.00  0.00     0.018 C
HETATM    2  C2  UNL     1      45.831  15.676   4.348  1.00  0.00    -0.078 C
HETATM    3  C3  UNL     1      45.461  14.622   3.449  1.00  0.00     0.017 A
HETATM    4  C4  UNL     1      46.068  13.386   3.515  1.00  0.00     0.021 A
HETATM    5  C5  UNL     1      45.734  12.347   2.662  1.00  0.00     0.010 A
HETATM    6  C6  UNL     1      44.757  12.517   1.692  1.00  0.00    -0.040 A
HETATM    7  C12 UNL     1      44.148  13.745   1.619  1.00  0.00     0.010 A
HETATM    8  C13 UNL     1      44.481  14.779   2.468  1.00  0.00     0.021 A
ENDROOT
BRANCH   6   9
HETATM    9  C7  UNL     1      44.393  11.408   0.771  1.00  0.00     0.176 C
BRANCH   9  10
HETATM   10  N1  UNL     1      45.273  11.528  -0.389  1.00  0.00    -0.221 N
ATOM     11  H1  UNL     1      44.900  11.904  -1.260  1.00  0.00     0.178 HD
BRANCH  10  12
HETATM   12  C8  UNL     1      46.501  11.172  -0.340  1.00  0.00     0.707 A
HETATM   13  N2  UNL     1      47.469  11.951  -0.870  1.00  0.00    -0.022 N
HETATM   14  C9  UNL     1      48.739  11.522  -0.788  1.00  0.00     0.706 A
ATOM     15  H2  UNL     1      47.242  12.838  -1.320  1.00  0.00     0.203 HD
HETATM   16  N4  UNL     1      49.021  10.335  -0.183  1.00  0.00    -0.020 N
HETATM   17  C11 UNL     1      48.060   9.573   0.337  1.00  0.00     0.725 A
ATOM     18  H4  UNL     1      49.990  10.022  -0.126  1.00  0.00     0.203 HD
HETATM   19  N7  UNL     1      46.788  10.000   0.255  1.00  0.00    -0.020 N
ATOM     20  H7  UNL     1      46.036   9.433   0.646  1.00  0.00     0.203 HD
BRANCH  14  21
HETATM   21  N3  UNL     1      49.686  12.246  -1.286  1.00  0.00    -0.229 N
HETATM   22  C10 UNL     1      50.742  12.817  -0.507  1.00  0.00     0.165 C
ATOM     23  H3  UNL     1      49.681  12.421  -2.291  1.00  0.00     0.177 HD
ENDBRANCH  14  21
BRANCH  17  24
HETATM   24  N5  UNL     1      48.327   8.445   0.911  1.00  0.00    -0.138 N
ATOM     25  H5  UNL     1      49.192   7.965   0.662  1.00  0.00     0.205 HD
BRANCH  24  26
HETATM   26  N6  UNL     1      47.489   7.862   1.848  1.00  0.00    -0.331 N
ATOM     27  H62 UNL     1      46.930   8.483   2.433  1.00  0.00     0.177 HD
ATOM     28  H61 UNL     1      47.415   6.852   1.971  1.00  0.00     0.177 HD
ENDBRANCH  24  26
ENDBRANCH  17  24
ENDBRANCH  10  12
ENDBRANCH   9  10
ENDBRANCH   6   9
TORSDOF 6
ENDMDL