MODEL 5
REMARK VINA RESULT: -6.560995349      1.392      1.783
REMARK  4 active torsions:
REMARK  status: ('A' for Active; 'I' for Inactive)
REMARK    1  A    between atoms: C4_5  and  C5_6
REMARK    2  A    between atoms: C5_6  and  C6_7
REMARK    3  A    between atoms: C9_10  and  N1_11
REMARK    4  A    between atoms: N4_19  and  C11_20
ROOT
HETATM    1  C1  UNL     1      47.738  10.785  -2.238  1.00  0.00     0.049 C
HETATM    2  C2  UNL     1      47.171  10.749  -1.035  1.00  0.00     0.101 A
HETATM    3  C3  UNL     1      46.067  11.469  -0.600  1.00  0.00     0.227 A
HETATM    4  O1  UNL     1      45.428  12.289  -1.320  1.00  0.00    -0.283 OA
HETATM    5  C4  UNL     1      45.793  11.150   0.711  1.00  0.00     0.102 A
HETATM    6  N3  UNL     1      46.723  10.248   1.059  1.00  0.00    -0.288 N
ATOM      7  H3  UNL     1      46.796   9.809   1.977  1.00  0.00     0.188 HD
HETATM    8  N4  UNL     1      47.535  10.008   0.036  1.00  0.00    -0.236 N
ENDROOT
BRANCH   5   9
HETATM    9  C5  UNL     1      44.803  11.662   1.425  1.00  0.00     0.048 C
BRANCH   9  10
HETATM   10  C6  UNL     1      44.950  12.904   2.173  1.00  0.00    -0.018 A
HETATM   11  C7  UNL     1      44.148  14.000   1.925  1.00  0.00     0.016 A
HETATM   12  C8  UNL     1      44.308  15.172   2.651  1.00  0.00     0.049 A
HETATM   13  C9  UNL     1      45.278  15.228   3.626  1.00  0.00     0.098 A
HETATM   14  N2  UNL     1      46.057  14.170   3.872  1.00  0.00    -0.352 N
HETATM   15  C10 UNL     1      45.898  13.034   3.164  1.00  0.00     0.101 A
ATOM     16  H2  UNL     1      46.772  14.222   4.596  1.00  0.00     0.166 HD
BRANCH  13  17
HETATM   17  N1  UNL     1      45.412  16.336   4.298  1.00  0.00    -0.385 N
ATOM     18  H12 UNL     1      46.264  16.540   4.820  1.00  0.00     0.157 HD
ATOM     19  H11 UNL     1      44.638  17.000   4.291  1.00  0.00     0.157 HD
ENDBRANCH  13  17
ENDBRANCH   9  10
ENDBRANCH   5   9
BRANCH   8  20
HETATM   20  C11 UNL     1      48.651   9.115  -0.003  1.00  0.00     0.127 A
HETATM   21  C12 UNL     1      49.974   9.505   0.131  1.00  0.00     0.052 A
HETATM   22  C13 UNL     1      50.709   8.343   0.034  1.00  0.00     0.021 A
HETATM   23  C14 UNL     1      49.865   7.266  -0.155  1.00  0.00     0.090 A
HETATM   24  N5  UNL     1      48.624   7.787  -0.170  1.00  0.00    -0.351 N
ATOM     25  H5  UNL     1      47.773   7.240  -0.293  1.00  0.00     0.166 HD
ENDBRANCH   8  20
TORSDOF 4
ENDMDL