MODEL 4
REMARK VINA RESULT: -4.972175092      4.569      6.971
REMARK  3 active torsions:
REMARK  status: ('A' for Active; 'I' for Inactive)
REMARK    1  A    between atoms: S1_2  and  C2_3
REMARK    2  A    between atoms: S1_2  and  C7_11
REMARK    3  A    between atoms: C2_3  and  N1_4
ROOT
HETATM    1  C7  UNL     1      45.391  12.430   1.979  1.00  0.00     0.131 C
HETATM    2  N3  UNL     1      46.112  12.688   3.019  1.00  0.00    -0.365 N
ATOM      3  H3  UNL     1      46.946  12.172   3.300  1.00  0.00     0.162 HD
HETATM    4  C8  UNL     1      45.570  13.790   3.705  1.00  0.00     0.109 C
HETATM    5  C9  UNL     1      46.518  14.801   4.273  1.00  0.00     0.054 C
HETATM    6  C10 UNL     1      45.629  15.909   4.857  1.00  0.00     0.234 C
HETATM    7  N4  UNL     1      44.689  16.444   3.936  1.00  0.00    -0.073 N
ATOM      8  H41 UNL     1      45.157  17.055   3.267  1.00  0.00     0.277 HD
ATOM      9  H42 UNL     1      44.084  17.122   4.401  1.00  0.00     0.277 HD
HETATM   10  C11 UNL     1      43.886  15.446   3.235  1.00  0.00     0.259 C
HETATM   11  C12 UNL     1      44.835  14.522   2.578  1.00  0.00     0.132 C
HETATM   12  N5  UNL     1      44.312  13.382   1.908  1.00  0.00    -0.363 N
ATOM     13  H5  UNL     1      43.394  13.267   1.479  1.00  0.00     0.162 HD
ENDROOT
BRANCH   1  14
HETATM   14  S1  UNL     1      45.631  11.156   0.788  1.00  0.00    -0.118 SA
HETATM   15  C1  UNL     1      46.995  11.617  -0.249  1.00  0.00     0.093 C
BRANCH  14  16
HETATM   16  C2  UNL     1      44.205  10.904  -0.183  1.00  0.00     0.132 C
BRANCH  16  17
HETATM   17  N1  UNL     1      44.156  11.461  -1.451  1.00  0.00    -0.362 N
HETATM   18  C3  UNL     1      43.845  12.809  -1.658  1.00  0.00     0.083 C
HETATM   19  C4  UNL     1      43.518  13.121  -3.111  1.00  0.00     0.158 C
HETATM   20  N2  UNL     1      42.670  12.156  -3.728  1.00  0.00    -0.415 N
HETATM   21  C5  UNL     1      42.881  10.803  -3.338  1.00  0.00     0.134 C
ATOM     22  H2  UNL     1      41.956  12.418  -4.407  1.00  0.00     0.153 HD
HETATM   23  C6  UNL     1      44.205  10.617  -2.581  1.00  0.00     0.147 C
ENDBRANCH  16  17
ENDBRANCH  14  16
ENDBRANCH   1  14
TORSDOF 3
ENDMDL