MODEL 3
REMARK VINA RESULT: -5.205060434      1.507      2.228
REMARK  4 active torsions:
REMARK  status: ('A' for Active; 'I' for Inactive)
REMARK       I    between atoms: C1_4  and  N3_6
REMARK    1  A    between atoms: C4_9  and  N4_10
REMARK    2  A    between atoms: N4_10  and  C5_12
REMARK    3  A    between atoms: C13_22  and  C14_23
REMARK    4  A    between atoms: C14_23  and  O1_24
ROOT
HETATM    1  N1  UNL     1      42.812   9.899  -2.007  1.00  0.00    -0.374 N
ATOM      2  H11 UNL     1      42.290   9.876  -1.132  1.00  0.00     0.158 HD
ATOM      3  H12 UNL     1      42.362   9.522  -2.841  1.00  0.00     0.158 HD
HETATM    4  C1  UNL     1      44.007  10.402  -2.007  1.00  0.00     0.184 C
HETATM    5  N2  UNL     1      44.735  10.435  -3.225  1.00  0.00    -0.064 NA
HETATM    6  N3  UNL     1      44.627  10.922  -0.859  1.00  0.00    -0.345 N
HETATM    7  C2  UNL     1      44.529  10.705   0.559  1.00  0.00     0.096 C
HETATM    8  C3  UNL     1      43.751  11.749   1.304  1.00  0.00     0.057 C
HETATM    9  C4  UNL     1      44.740  12.928   1.328  1.00  0.00     0.041 C
HETATM   10  C10 UNL     1      45.984  12.123   1.753  1.00  0.00     0.040 C
HETATM   11  C11 UNL     1      45.975  11.117   0.649  1.00  0.00     0.034 C
HETATM   12  C12 UNL     1      45.642  11.903  -0.580  1.00  0.00     0.102 C
HETATM   13  C13 UNL     1      45.072  13.244  -0.085  1.00  0.00     0.061 C
ENDROOT
BRANCH   9  14
HETATM   14  N4  UNL     1      44.341  13.933   2.158  1.00  0.00    -0.366 N
ATOM     15  H4  UNL     1      43.358  14.161   2.008  1.00  0.00     0.162 HD
BRANCH  14  16
HETATM   16  C5  UNL     1      44.833  14.650   3.043  1.00  0.00     0.101 A
HETATM   17  C6  UNL     1      46.041  14.455   3.646  1.00  0.00     0.048 A
HETATM   18  C7  UNL     1      46.534  15.297   4.633  1.00  0.00     0.005 A
HETATM   19  C8  UNL     1      45.801  16.385   5.048  1.00  0.00     0.017 A
HETATM   20  C9  UNL     1      44.582  16.553   4.416  1.00  0.00     0.089 A
HETATM   21  N5  UNL     1      44.116  15.759   3.485  1.00  0.00    -0.353 N
ATOM     22  H5  UNL     1      43.205  15.959   3.073  1.00  0.00     0.166 HD
ENDBRANCH  14  16
ENDBRANCH   9  14
BRANCH  13  23
HETATM   23  C14 UNL     1      43.874  13.619  -0.940  1.00  0.00     0.173 C
BRANCH  23  24
HETATM   24  O1  UNL     1      43.422  14.884  -0.528  1.00  0.00    -0.400 OA
ATOM     25  H1  UNL     1      44.113  15.513  -0.694  1.00  0.00     0.209 HD
ENDBRANCH  23  24
ENDBRANCH  13  23
TORSDOF 4
ENDMDL