MODEL 3
REMARK VINA RESULT: -4.690224557      1.273      1.368
REMARK  4 active torsions:
REMARK  status: ('A' for Active; 'I' for Inactive)
REMARK    1  A    between atoms: C5_5  and  N1_6
REMARK    2  A    between atoms: C11_17  and  C12_18
REMARK    3  A    between atoms: C12_18  and  C13_19
REMARK    4  A    between atoms: C13_19  and  N5_20
ROOT
HETATM    1  C1  UNL     1      47.348  12.185  -2.100  1.00  0.00     0.020 C
HETATM    2  C2  UNL     1      45.918  11.695  -2.356  1.00  0.00     0.011 A
HETATM    3  C3  UNL     1      45.288  12.591  -3.387  1.00  0.00     0.006 A
HETATM    4  C4  UNL     1      45.249  11.423  -4.315  1.00  0.00     0.058 A
HETATM    5  C5  UNL     1      45.818  10.515  -3.228  1.00  0.00     0.139 A
HETATM    6  N4  UNL     1      44.926   9.486  -2.781  1.00  0.00    -0.068 NA
HETATM    7  O1  UNL     1      43.698   9.796  -3.253  1.00  0.00    -0.279 OA
HETATM    8  C7  UNL     1      43.148  10.707  -2.368  1.00  0.00     0.148 C
HETATM    9  C8  UNL     1      42.884  12.060  -2.931  1.00  0.00     0.039 C
HETATM   10  C9  UNL     1      44.019  13.027  -2.744  1.00  0.00    -0.006 C
HETATM   11  C10 UNL     1      44.437  13.123  -1.276  1.00  0.00     0.015 C
HETATM   12  C11 UNL     1      45.074  11.728  -1.124  1.00  0.00    -0.025 C
HETATM   13  C14 UNL     1      43.921  10.800  -1.071  1.00  0.00     0.044 C
ENDROOT
BRANCH  12  14
HETATM   14  C12 UNL     1      45.965  11.645   0.052  1.00  0.00     0.037 C
BRANCH  14  15
HETATM   15  C13 UNL     1      45.570  10.782   1.181  1.00  0.00     0.230 C
BRANCH  15  16
HETATM   16  N5  UNL     1      46.548   9.892   1.702  1.00  0.00    -0.079 N
ATOM     17  H53 UNL     1      47.428  10.029   1.204  1.00  0.00     0.274 HD
ATOM     18  H52 UNL     1      46.809  10.193   2.641  1.00  0.00     0.274 HD
ATOM     19  H51 UNL     1      46.321   8.898   1.718  1.00  0.00     0.274 HD
ENDBRANCH  15  16
ENDBRANCH  14  15
ENDBRANCH  12  14
BRANCH   5  20
HETATM   20  N1  UNL     1      47.114   9.960  -3.526  1.00  0.00    -0.341 N
HETATM   21  C6  UNL     1      47.342   8.939  -4.241  1.00  0.00     0.198 C
HETATM   22  N2  UNL     1      46.251   8.244  -4.822  1.00  0.00    -0.067 NA
HETATM   23  N3  UNL     1      48.652   8.470  -4.477  1.00  0.00    -0.067 NA
ATOM     24  H1  UNL     1      47.924  10.434  -3.124  1.00  0.00     0.164 HD
ENDBRANCH   5  20
TORSDOF 4
ENDMDL