MODEL 4
REMARK VINA RESULT: -6.255832612      4.255      6.775
REMARK  4 active torsions:
REMARK  status: ('A' for Active; 'I' for Inactive)
REMARK    1  A    between atoms: C4_8  and  C5_9
REMARK    2  A    between atoms: C6_12  and  N4_13
REMARK    3  A    between atoms: N4_13  and  C7_15
REMARK    4  A    between atoms: C13_23  and  O1_24
ROOT
HETATM    1  C5  UNL     1      44.515  10.617  -1.462  1.00  0.00     0.104 A
HETATM    2  N3  UNL     1      44.227  10.676  -0.150  1.00  0.00    -0.187 N
ATOM      3  H3  UNL     1      43.354  10.390   0.295  1.00  0.00     0.184 HD
HETATM    4  C6  UNL     1      45.298  11.179   0.454  1.00  0.00     0.685 A
HETATM    5  N5  UNL     1      46.268  11.442  -0.458  1.00  0.00    -0.168 N
ATOM      6  H5  UNL     1      47.190  11.832  -0.265  1.00  0.00     0.186 HD
HETATM    7  C13 UNL     1      45.787  11.093  -1.660  1.00  0.00     0.183 A
ENDROOT
BRANCH   1   8
HETATM    8  C4  UNL     1      43.601  10.124  -2.462  1.00  0.00     0.084 C
HETATM    9  C3  UNL     1      42.759  10.935  -3.105  1.00  0.00     0.123 A
HETATM   10  N2  UNL     1      42.650  12.261  -2.918  1.00  0.00    -0.284 N
HETATM   11  N6  UNL     1      41.861  10.617  -4.051  1.00  0.00    -0.327 N
HETATM   12  N1  UNL     1      41.711  12.749  -3.727  1.00  0.00    -0.285 N
ATOM     13  H2  UNL     1      43.201  12.810  -2.258  1.00  0.00     0.188 HD
HETATM   14  C2  UNL     1      41.206  11.730  -4.445  1.00  0.00     0.111 A
ATOM     15  H1  UNL     1      41.424  13.726  -3.791  1.00  0.00     0.188 HD
HETATM   16  C1  UNL     1      40.253  11.811  -5.356  1.00  0.00     0.065 C
ATOM     17  H6  UNL     1      41.699   9.678  -4.417  1.00  0.00     0.169 HD
ENDBRANCH   1   8
BRANCH   7  18
HETATM   18  O1  UNL     1      46.473  11.204  -2.872  1.00  0.00    -0.344 OA
ATOM     19  H1  UNL     1      46.677  10.509  -3.486  1.00  0.00     0.219 HD
ENDBRANCH   7  18
BRANCH   4  20
HETATM   20  N4  UNL     1      45.431  11.399   1.721  1.00  0.00    -0.192 N
ATOM     21  H4  UNL     1      45.678  10.636   2.352  1.00  0.00     0.184 HD
BRANCH  20  22
HETATM   22  C7  UNL     1      45.232  12.710   2.226  1.00  0.00     0.049 A
HETATM   23  C8  UNL     1      46.015  13.205   3.267  1.00  0.00     0.030 A
HETATM   24  C9  UNL     1      45.854  14.466   3.785  1.00  0.00     0.002 A
HETATM   25  C10 UNL     1      44.877  15.297   3.261  1.00  0.00     0.000 A
HETATM   26  C11 UNL     1      44.082  14.828   2.222  1.00  0.00     0.002 A
HETATM   27  C12 UNL     1      44.265  13.555   1.722  1.00  0.00     0.030 A
ENDBRANCH  20  22
ENDBRANCH   4  20
TORSDOF 4
ENDMDL