MODEL 2
REMARK VINA RESULT: -5.076371812      1.600      1.918
REMARK  4 active torsions:
REMARK  status: ('A' for Active; 'I' for Inactive)
REMARK    1  A    between atoms: C2_2  and  C3_3
REMARK    2  A    between atoms: C10_14  and  N3_15
REMARK    3  A    between atoms: N3_15  and  C11_17
REMARK    4  A    between atoms: C14_22  and  N5_23
ROOT
HETATM    1  C3  UNL     1      44.909  11.059   0.381  1.00  0.00     0.231 C
HETATM    2  N1  UNL     1      43.849  11.578  -0.460  1.00  0.00    -0.065 N
ATOM      3  H11 UNL     1      43.849  12.594  -0.533  1.00  0.00     0.278 HD
ATOM      4  H12 UNL     1      42.920  11.483  -0.049  1.00  0.00     0.278 HD
HETATM    5  C4  UNL     1      43.990  10.896  -1.755  1.00  0.00     0.240 C
HETATM    6  C5  UNL     1      45.156  11.565  -2.442  1.00  0.00     0.047 C
HETATM    7  C6  UNL     1      46.008  10.636  -3.236  1.00  0.00     0.278 C
HETATM    8  N2  UNL     1      47.349  11.196  -3.239  1.00  0.00     0.085 N
HETATM    9  C7  UNL     1      47.658  11.711  -4.575  1.00  0.00     0.309 C
HETATM   10  C8  UNL     1      47.394  12.227  -2.245  1.00  0.00     0.279 C
HETATM   11  C9  UNL     1      46.129  12.130  -1.437  1.00  0.00     0.046 C
HETATM   12  C10 UNL     1      46.284  11.265  -0.212  1.00  0.00     0.123 C
ENDROOT
BRANCH  12  13
HETATM   13  N3  UNL     1      46.979  10.044  -0.459  1.00  0.00    -0.368 N
ATOM     14  H3  UNL     1      46.774   9.580  -1.343  1.00  0.00     0.161 HD
BRANCH  13  15
HETATM   15  C11 UNL     1      47.832   9.464   0.304  1.00  0.00     0.118 A
HETATM   16  C12 UNL     1      49.157   9.472  -0.083  1.00  0.00     0.066 A
HETATM   17  C13 UNL     1      50.141   8.858   0.700  1.00  0.00     0.110 A
HETATM   18  N4  UNL     1      49.799   8.254   1.843  1.00  0.00    -0.202 N
HETATM   19  C14 UNL     1      48.501   8.251   2.216  1.00  0.00     0.677 A
ATOM     20  H4  UNL     1      50.506   7.804   2.423  1.00  0.00     0.183 HD
HETATM   21  N6  UNL     1      47.540   8.845   1.460  1.00  0.00    -0.177 N
ATOM     22  H6  UNL     1      46.572   8.819   1.779  1.00  0.00     0.185 HD
BRANCH  19  23
HETATM   23  N5  UNL     1      48.221   7.656   3.326  1.00  0.00    -0.234 N
ATOM     24  H52 UNL     1      47.288   7.289   3.518  1.00  0.00     0.174 HD
ATOM     25  H51 UNL     1      48.978   7.573   4.004  1.00  0.00     0.174 HD
ENDBRANCH  19  23
ENDBRANCH  13  15
ENDBRANCH  12  13
BRANCH   1  26
HETATM   26  C2  UNL     1      44.746  11.667   1.721  1.00  0.00    -0.002 C
HETATM   27  C1  UNL     1      45.808  12.155   2.335  1.00  0.00     0.009 C
ENDBRANCH   1  26
TORSDOF 4
ENDMDL