MODEL 2
REMARK VINA RESULT: -6.540516465      2.635      7.066
REMARK  3 active torsions:
REMARK  status: ('A' for Active; 'I' for Inactive)
REMARK    1  A    between atoms: N2_7  and  C6_8
REMARK    2  A    between atoms: C6_8  and  C7_9
REMARK    3  A    between atoms: C9_15  and  N5_16
ROOT
HETATM    1  N1  UNL     1      46.461  16.333   5.424  1.00  0.00    -0.191 NA
HETATM    2  C1  UNL     1      45.995  15.672   4.597  1.00  0.00     0.101 C
HETATM    3  C2  UNL     1      45.407  14.849   3.555  1.00  0.00     0.060 A
HETATM    4  C3  UNL     1      44.407  15.410   2.804  1.00  0.00     0.025 A
HETATM    5  C4  UNL     1      43.848  14.628   1.813  1.00  0.00     0.019 A
HETATM    6  C5  UNL     1      44.291  13.350   1.609  1.00  0.00     0.091 A
HETATM    7  N2  UNL     1      45.271  12.803   2.346  1.00  0.00    -0.358 N
HETATM    8  C12 UNL     1      45.820  13.573   3.319  1.00  0.00     0.113 A
ENDROOT
BRANCH   7   9
HETATM    9  C6  UNL     1      45.777  11.477   2.181  1.00  0.00     0.204 C
BRANCH   9  10
HETATM   10  C7  UNL     1      46.227  11.176   0.816  1.00  0.00     0.102 A
HETATM   11  N3  UNL     1      47.456  11.368   0.329  1.00  0.00    -0.328 N
HETATM   12  C8  UNL     1      47.494  10.978  -0.953  1.00  0.00     0.155 A
ATOM     13  H3  UNL     1      48.243  11.752   0.851  1.00  0.00     0.169 HD
HETATM   14  N4  UNL     1      48.500  10.970  -1.879  1.00  0.00    -0.174 N
HETATM   15  C11 UNL     1      46.229  10.532  -1.244  1.00  0.00     0.148 A
HETATM   16  C9  UNL     1      48.266  10.515  -3.122  1.00  0.00     0.680 A
ATOM     17  H4  UNL     1      49.428  11.311  -1.626  1.00  0.00     0.186 HD
HETATM   18  N6  UNL     1      47.024  10.082  -3.394  1.00  0.00    -0.154 N
HETATM   19  C10 UNL     1      46.015  10.068  -2.531  1.00  0.00     0.290 A
ATOM     20  H6  UNL     1      46.842   9.736  -4.336  1.00  0.00     0.187 HD
HETATM   21  O1  UNL     1      44.858   9.658  -2.804  1.00  0.00    -0.265 OA
HETATM   22  N7  UNL     1      45.470  10.661  -0.150  1.00  0.00    -0.337 N
ATOM     23  H7  UNL     1      44.485  10.409  -0.071  1.00  0.00     0.167 HD
BRANCH  16  24
HETATM   24  N5  UNL     1      49.212  10.502  -4.012  1.00  0.00    -0.234 N
ATOM     25  H52 UNL     1      49.694   9.645  -4.280  1.00  0.00     0.174 HD
ATOM     26  H51 UNL     1      49.503  11.364  -4.474  1.00  0.00     0.174 HD
ENDBRANCH  16  24
ENDBRANCH   9  10
ENDBRANCH   7   9
TORSDOF 3
ENDMDL