MODEL 5
REMARK VINA RESULT: -5.851935769      1.849      7.237
REMARK  7 active torsions:
REMARK  status: ('A' for Active; 'I' for Inactive)
REMARK    1  A    between atoms: C2_2  and  C3_3
REMARK    2  A    between atoms: C3_3  and  N1_4
REMARK    3  A    between atoms: N1_4  and  C4_6
REMARK    4  A    between atoms: C4_6  and  N2_8
REMARK    5  A    between atoms: N2_8  and  N3_10
REMARK    6  A    between atoms: C5_12  and  C6_13
REMARK    7  A    between atoms: C7_14  and  C8_15
ROOT
HETATM    1  N2  UNL     1      -2.942  30.976  -7.337  1.00  0.00    -0.277 N
ATOM      2  H2  UNL     1      -2.916  31.890  -6.886  1.00  0.00     0.189 HD
ENDROOT
BRANCH   1   3
HETATM    3  C4  UNL     1      -2.632  30.841  -8.708  1.00  0.00     0.186 C
HETATM    4  S1  UNL     1      -1.209  30.243  -9.226  1.00  0.00    -0.040 SA
BRANCH   3   5
HETATM    5  N1  UNL     1      -3.586  31.236  -9.681  1.00  0.00    -0.363 N
ATOM      6  H1  UNL     1      -4.550  31.442  -9.419  1.00  0.00     0.162 HD
BRANCH   5   7
HETATM    7  C3  UNL     1      -3.151  31.338 -11.050  1.00  0.00     0.148 C
BRANCH   7   8
HETATM    8  C2  UNL     1      -3.885  30.524 -12.021  1.00  0.00    -0.018 C
HETATM    9  C1  UNL     1      -3.387  29.526 -12.687  1.00  0.00     0.008 C
ENDBRANCH   7   8
ENDBRANCH   5   7
ENDBRANCH   3   5
ENDBRANCH   1   3
BRANCH   1  10
HETATM   10  N3  UNL     1      -3.282  29.850  -6.619  1.00  0.00    -0.310 N
HETATM   11  C5  UNL     1      -2.869  29.603  -5.408  1.00  0.00     0.107 C
ATOM     12  H3  UNL     1      -3.895  29.166  -7.063  1.00  0.00     0.186 HD
BRANCH  11  13
HETATM   13  C6  UNL     1      -2.002  30.504  -4.698  1.00  0.00     0.015 C
HETATM   14  C7  UNL     1      -2.388  31.404  -3.844  1.00  0.00    -0.021 C
BRANCH  14  15
HETATM   15  C8  UNL     1      -3.814  31.614  -3.494  1.00  0.00     0.008 A
HETATM   16  C9  UNL     1      -4.172  32.796  -2.667  1.00  0.00     0.009 A
HETATM   17  C10 UNL     1      -4.182  31.467  -2.031  1.00  0.00     0.009 A
ENDBRANCH  14  15
ENDBRANCH  11  13
ENDBRANCH   1  10
TORSDOF 7
ENDMDL