MODEL 4
REMARK VINA RESULT: -5.485790436      3.004      5.392
REMARK  5 active torsions:
REMARK  status: ('A' for Active; 'I' for Inactive)
REMARK    1  A    between atoms: N1_2  and  C2_5
REMARK    2  A    between atoms: N2_7  and  C4_8
REMARK    3  A    between atoms: C4_8  and  C5_9
REMARK    4  A    between atoms: C5_9  and  C6_10
REMARK    5  A    between atoms: C6_10  and  C7_11
ROOT
HETATM    1  C2  UNL     1      -3.187  31.749  -4.523  1.00  0.00     0.219 C
HETATM    2  C3  UNL     1      -3.109  31.291  -5.933  1.00  0.00     0.305 C
HETATM    3  N2  UNL     1      -3.044  29.847  -5.972  1.00  0.00     0.090 N
HETATM    4  C11 UNL     1      -3.131  29.380  -4.608  1.00  0.00     0.279 C
HETATM    5  C12 UNL     1      -3.093  30.541  -3.670  1.00  0.00     0.042 C
HETATM    6  C13 UNL     1      -1.834  30.473  -2.845  1.00  0.00     0.014 C
ENDROOT
BRANCH   3   7
HETATM    7  C4  UNL     1      -1.773  29.392  -6.516  1.00  0.00     0.272 C
BRANCH   7   8
HETATM    8  C5  UNL     1      -2.057  28.996  -7.970  1.00  0.00     0.031 C
BRANCH   8   9
HETATM    9  C6  UNL     1      -1.206  29.917  -8.826  1.00  0.00     0.011 C
BRANCH   9  10
HETATM   10  C7  UNL     1      -1.905  30.335 -10.093  1.00  0.00    -0.044 A
HETATM   11  C8  UNL     1      -3.215  29.584 -10.365  1.00  0.00     0.015 C
HETATM   12  C9  UNL     1      -0.983  30.536 -11.273  1.00  0.00     0.010 A
HETATM   13  C10 UNL     1      -1.799  31.703 -10.634  1.00  0.00     0.010 A
ENDBRANCH   9  10
ENDBRANCH   8   9
ENDBRANCH   7   8
ENDBRANCH   3   7
BRANCH   1  14
HETATM   14  N1  UNL     1      -2.139  32.731  -4.325  1.00  0.00    -0.073 N
HETATM   15  C1  UNL     1      -2.809  33.938  -3.835  1.00  0.00     0.267 C
ATOM     16  H12 UNL     1      -1.567  32.891  -5.155  1.00  0.00     0.277 HD
ATOM     17  H11 UNL     1      -1.386  32.406  -3.718  1.00  0.00     0.277 HD
ENDBRANCH   1  14
TORSDOF 5
ENDMDL