MODEL 4
REMARK VINA RESULT: -5.973345999      1.262      1.912
REMARK  5 active torsions:
REMARK  status: ('A' for Active; 'I' for Inactive)
REMARK    1  A    between atoms: N1_2  and  C2_5
REMARK    2  A    between atoms: C2_5  and  C3_6
REMARK    3  A    between atoms: C3_6  and  C4_7
REMARK    4  A    between atoms: C4_7  and  N2_8
REMARK    5  A    between atoms: N2_8  and  C5_10
ROOT
HETATM    1  C5  UNL     1      -2.100  29.950  -9.484  1.00  0.00     0.081 C
HETATM    2  C6  UNL     1      -3.134  29.203 -10.292  1.00  0.00     0.030 C
HETATM    3  C7  UNL     1      -3.068  29.960 -11.636  1.00  0.00    -0.004 C
HETATM    4  C8  UNL     1      -3.415  31.386 -11.298  1.00  0.00     0.006 C
HETATM    5  C9  UNL     1      -2.134  32.019 -10.743  1.00  0.00     0.008 C
HETATM    6  C10 UNL     1      -1.299  30.746 -10.467  1.00  0.00     0.017 C
HETATM    7  C11 UNL     1      -1.570  30.069 -11.774  1.00  0.00    -0.031 A
HETATM    8  C12 UNL     1      -0.966  30.729 -12.956  1.00  0.00     0.011 A
HETATM    9  C13 UNL     1      -0.708  29.269 -12.576  1.00  0.00     0.011 A
ENDROOT
BRANCH   1  10
HETATM   10  N2  UNL     1      -1.355  29.117  -8.624  1.00  0.00    -0.417 N
ATOM     11  H2  UNL     1      -0.735  28.407  -9.014  1.00  0.00     0.153 HD
BRANCH  10  12
HETATM   12  C4  UNL     1      -1.465  29.262  -7.224  1.00  0.00     0.115 C
BRANCH  12  13
HETATM   13  C3  UNL     1      -2.802  29.365  -6.600  1.00  0.00     0.046 C
BRANCH  13  14
HETATM   14  C2  UNL     1      -2.649  29.687  -5.103  1.00  0.00     0.233 C
BRANCH  14  15
HETATM   15  N1  UNL     1      -3.891  29.949  -4.454  1.00  0.00    -0.079 N
HETATM   16  C1  UNL     1      -3.830  30.974  -3.436  1.00  0.00     0.266 C
ATOM     17  H12 UNL     1      -4.279  29.088  -4.068  1.00  0.00     0.276 HD
ATOM     18  H11 UNL     1      -4.611  30.173  -5.141  1.00  0.00     0.276 HD
ENDBRANCH  14  15
ENDBRANCH  13  14
ENDBRANCH  12  13
ENDBRANCH  10  12
ENDBRANCH   1  10
TORSDOF 5
ENDMDL