MODEL 5
REMARK VINA RESULT: -5.168336157      5.680      9.799
REMARK  6 active torsions:
REMARK  status: ('A' for Active; 'I' for Inactive)
REMARK    1  A    between atoms: C2_2  and  C3_3
REMARK    2  A    between atoms: C4_4  and  C5_5
REMARK    3  A    between atoms: C5_5  and  N1_6
REMARK    4  A    between atoms: C6_12  and  C7_13
REMARK    5  A    between atoms: C7_13  and  C8_14
REMARK    6  A    between atoms: C8_14  and  C9_15
ROOT
HETATM    1  C3  UNL     1      -2.854  32.809  -2.285  1.00  0.00     0.036 C
HETATM    2  C4  UNL     1      -4.079  32.341  -3.062  1.00  0.00     0.110 C
HETATM    3  N2  UNL     1      -4.255  30.942  -3.112  1.00  0.00    -0.410 N
ATOM      4  H2  UNL     1      -5.177  30.532  -2.967  1.00  0.00     0.154 HD
HETATM    5  C6  UNL     1      -3.121  30.105  -3.368  1.00  0.00     0.081 C
HETATM    6  C11 UNL     1      -1.890  30.855  -3.162  1.00  0.00     0.013 A
HETATM    7  C12 UNL     1      -0.958  30.958  -2.101  1.00  0.00     0.012 A
HETATM    8  C13 UNL     1      -2.183  31.592  -1.807  1.00  0.00     0.002 A
ENDROOT
BRANCH   2   9
HETATM    9  C5  UNL     1      -4.198  33.041  -4.400  1.00  0.00     0.254 C
BRANCH   9  10
HETATM   10  N1  UNL     1      -5.318  32.481  -5.146  1.00  0.00    -0.077 N
ATOM     11  H13 UNL     1      -5.312  32.771  -6.124  1.00  0.00     0.274 HD
ATOM     12  H12 UNL     1      -5.221  31.477  -5.290  1.00  0.00     0.274 HD
ATOM     13  H11 UNL     1      -6.193  32.719  -4.679  1.00  0.00     0.274 HD
ENDBRANCH   9  10
ENDBRANCH   2   9
BRANCH   1  14
HETATM   14  C2  UNL     1      -3.187  33.717  -1.167  1.00  0.00    -0.030 C
HETATM   15  C1  UNL     1      -3.826  34.858  -1.335  1.00  0.00     0.007 C
ENDBRANCH   1  14
BRANCH   5  16
HETATM   16  C7  UNL     1      -3.177  29.529  -4.776  1.00  0.00     0.025 C
BRANCH  16  17
HETATM   17  C8  UNL     1      -2.168  30.165  -5.679  1.00  0.00     0.002 C
BRANCH  17  18
HETATM   18  C9  UNL     1      -2.683  30.389  -7.079  1.00  0.00    -0.004 C
HETATM   19  C10 UNL     1      -2.353  29.161  -7.903  1.00  0.00     0.005 C
ENDBRANCH  17  18
ENDBRANCH  16  17
ENDBRANCH   5  16
TORSDOF 6
ENDMDL