MODEL 3
REMARK VINA RESULT: -6.061890791      1.917      6.674
REMARK  6 active torsions:
REMARK  status: ('A' for Active; 'I' for Inactive)
REMARK    1  A    between atoms: C2_2  and  C3_3
REMARK    2  A    between atoms: C3_3  and  C4_4
REMARK    3  A    between atoms: C4_4  and  C5_5
REMARK    4  A    between atoms: C5_5  and  N1_6
REMARK    5  A    between atoms: N1_6  and  C6_8
REMARK    6  A    between atoms: C6_8  and  C7_12
ROOT
HETATM    1  C6  UNL     1      -2.502  30.226  -8.480  1.00  0.00     0.102 C
HETATM    2  N2  UNL     1      -2.361  31.478  -8.270  1.00  0.00    -0.387 N
ATOM      3  H21 UNL     1      -2.101  32.100  -9.036  1.00  0.00     0.157 HD
ATOM      4  H22 UNL     1      -2.508  31.866  -7.339  1.00  0.00     0.157 HD
ENDROOT
BRANCH   1   5
HETATM    5  N1  UNL     1      -2.862  29.363  -7.419  1.00  0.00    -0.378 N
ATOM      6  H1  UNL     1      -3.571  28.638  -7.527  1.00  0.00     0.160 HD
BRANCH   5   7
HETATM    7  C5  UNL     1      -2.151  29.578  -6.150  1.00  0.00     0.121 C
BRANCH   7   8
HETATM    8  C4  UNL     1      -3.212  29.478  -5.073  1.00  0.00     0.020 C
BRANCH   8   9
HETATM    9  C3  UNL     1      -3.421  30.771  -4.346  1.00  0.00     0.001 C
BRANCH   9  10
HETATM   10  C2  UNL     1      -3.401  30.602  -2.848  1.00  0.00    -0.004 C
HETATM   11  C1  UNL     1      -4.176  31.674  -2.138  1.00  0.00     0.005 C
ENDBRANCH   9  10
ENDBRANCH   8   9
ENDBRANCH   7   8
ENDBRANCH   5   7
ENDBRANCH   1   5
BRANCH   1  12
HETATM   12  C7  UNL     1      -2.291  29.667  -9.818  1.00  0.00     0.252 C
HETATM   13  C8  UNL     1      -1.672  30.689 -10.747  1.00  0.00     0.041 C
HETATM   14  C9  UNL     1      -1.873  30.167 -12.162  1.00  0.00     0.004 C
HETATM   15  C10 UNL     1      -3.347  30.140 -12.522  1.00  0.00     0.027 C
HETATM   16  C11 UNL     1      -4.128  30.167 -11.224  1.00  0.00     0.233 C
HETATM   17  N3  UNL     1      -3.535  29.164 -10.349  1.00  0.00    -0.064 N
ATOM     18  H32 UNL     1      -3.420  28.264 -10.816  1.00  0.00     0.278 HD
ATOM     19  H31 UNL     1      -4.176  28.865  -9.614  1.00  0.00     0.278 HD
ENDBRANCH   1  12
TORSDOF 6
ENDMDL