MODEL 1
REMARK VINA RESULT: -6.173357720      0.000      0.000
REMARK  5 active torsions:
REMARK  status: ('A' for Active; 'I' for Inactive)
REMARK    1  A    between atoms: N1_2  and  C2_5
REMARK    2  A    between atoms: C2_5  and  C3_6
REMARK    3  A    between atoms: C3_6  and  C4_7
REMARK    4  A    between atoms: C4_7  and  C5_8
REMARK    5  A    between atoms: C10_13  and  N2_14
ROOT
HETATM    1  C5  UNL     1      -2.684  30.212 -10.056  1.00  0.00     0.223 C
HETATM    2  C6  UNL     1      -3.332  31.507 -10.427  1.00  0.00     0.036 C
HETATM    3  C7  UNL     1      -3.974  31.531 -11.758  1.00  0.00     0.004 C
HETATM    4  C8  UNL     1      -4.098  30.253 -12.475  1.00  0.00     0.038 C
HETATM    5  C9  UNL     1      -3.215  29.145 -12.063  1.00  0.00     0.253 C
HETATM    6  C10 UNL     1      -2.417  28.586 -13.240  1.00  0.00     0.218 C
HETATM    7  C11 UNL     1      -1.379  29.686 -13.400  1.00  0.00     0.065 C
HETATM    8  C12 UNL     1      -1.219  30.187 -11.972  1.00  0.00     0.275 C
HETATM    9  N3  UNL     1      -2.156  29.488 -11.169  1.00  0.00     0.100 N
ENDROOT
BRANCH   1  10
HETATM   10  C4  UNL     1      -1.674  30.423  -8.944  1.00  0.00     0.037 C
BRANCH  10  11
HETATM   11  C3  UNL     1      -2.348  30.634  -7.622  1.00  0.00     0.029 C
BRANCH  11  12
HETATM   12  C2  UNL     1      -2.390  29.279  -6.918  1.00  0.00     0.231 C
BRANCH  12  13
HETATM   13  N1  UNL     1      -3.515  29.330  -6.005  1.00  0.00    -0.079 N
HETATM   14  C1  UNL     1      -3.088  29.667  -4.660  1.00  0.00     0.266 C
ATOM     15  H12 UNL     1      -4.049  28.461  -6.022  1.00  0.00     0.276 HD
ATOM     16  H11 UNL     1      -4.239  29.966  -6.339  1.00  0.00     0.276 HD
ENDBRANCH  12  13
ENDBRANCH  11  12
ENDBRANCH  10  11
ENDBRANCH   1  10
BRANCH   6  17
HETATM   17  N2  UNL     1      -3.222  28.402 -14.403  1.00  0.00    -0.073 N
ATOM     18  H23 UNL     1      -4.179  28.716 -14.241  1.00  0.00     0.274 HD
ATOM     19  H22 UNL     1      -2.959  29.056 -15.141  1.00  0.00     0.274 HD
ATOM     20  H21 UNL     1      -3.202  27.439 -14.740  1.00  0.00     0.274 HD
ENDBRANCH   6  17
TORSDOF 5
ENDMDL