MODEL 1
REMARK VINA RESULT: -6.464969190      0.000      0.000
REMARK  5 active torsions:
REMARK  status: ('A' for Active; 'I' for Inactive)
REMARK    1  A    between atoms: C2_2  and  N1_3
REMARK    2  A    between atoms: N1_3  and  C3_5
REMARK    3  A    between atoms: C3_5  and  C4_6
REMARK    4  A    between atoms: C4_6  and  N2_7
REMARK    5  A    between atoms: N2_7  and  C5_9
ROOT
HETATM    1  C5  UNL     1      -2.723  29.816  -9.881  1.00  0.00     0.030 C
HETATM    2  C6  UNL     1      -3.287  28.971 -10.997  1.00  0.00     0.035 C
HETATM    3  C7  UNL     1      -3.161  29.925 -12.176  1.00  0.00    -0.011 C
HETATM    4  C8  UNL     1      -1.710  30.268 -12.415  1.00  0.00     0.009 C
HETATM    5  C9  UNL     1      -1.034  30.773 -11.184  1.00  0.00    -0.011 C
HETATM    6  C10 UNL     1      -1.812  31.939 -10.559  1.00  0.00     0.012 C
HETATM    7  C11 UNL     1      -3.120  31.226 -10.234  1.00  0.00     0.014 C
HETATM    8  C12 UNL     1      -3.868  31.146 -11.566  1.00  0.00     0.012 C
HETATM    9  C13 UNL     1      -1.206  29.758 -10.044  1.00  0.00     0.035 C
ENDROOT
BRANCH   1  10
HETATM   10  N2  UNL     1      -3.057  29.394  -8.588  1.00  0.00    -0.411 N
ATOM     11  H2  UNL     1      -4.032  29.243  -8.329  1.00  0.00     0.154 HD
BRANCH  10  12
HETATM   12  C4  UNL     1      -2.013  29.177  -7.637  1.00  0.00     0.133 C
BRANCH  12  13
HETATM   13  C3  UNL     1      -2.626  29.463  -6.249  1.00  0.00     0.133 C
BRANCH  13  14
HETATM   14  N1  UNL     1      -3.373  30.688  -6.374  1.00  0.00    -0.420 N
ATOM     15  H1  UNL     1      -3.888  30.922  -7.223  1.00  0.00     0.153 HD
BRANCH  14  16
HETATM   16  C2  UNL     1      -3.352  31.551  -5.251  1.00  0.00     0.109 C
HETATM   17  C1  UNL     1      -3.765  30.888  -3.965  1.00  0.00     0.026 C
ENDBRANCH  14  16
ENDBRANCH  13  14
ENDBRANCH  12  13
ENDBRANCH  10  12
ENDBRANCH   1  10
TORSDOF 5
ENDMDL