MODEL 3
REMARK VINA RESULT: -6.165257402      1.047      2.222
REMARK  5 active torsions:
REMARK  status: ('A' for Active; 'I' for Inactive)
REMARK    1  A    between atoms: C2_2  and  N1_3
REMARK    2  A    between atoms: N1_3  and  C3_6
REMARK    3  A    between atoms: C3_6  and  C4_7
REMARK    4  A    between atoms: C4_7  and  C5_8
REMARK    5  A    between atoms: C5_8  and  C6_9
ROOT
HETATM    1  C6  UNL     1      -2.505  31.001  -9.154  1.00  0.00     0.014 C
HETATM    2  C7  UNL     1      -1.078  31.162  -9.518  1.00  0.00     0.008 C
HETATM    3  C8  UNL     1      -0.656  30.450 -10.800  1.00  0.00     0.036 C
HETATM    4  C9  UNL     1      -1.852  30.439 -11.726  1.00  0.00     0.223 C
HETATM    5  C10 UNL     1      -1.606  29.743 -13.040  1.00  0.00     0.037 C
HETATM    6  C11 UNL     1      -3.059  29.385 -13.417  1.00  0.00     0.032 C
HETATM    7  C12 UNL     1      -3.827  29.426 -12.081  1.00  0.00     0.273 C
HETATM    8  N2  UNL     1      -2.792  29.511 -11.125  1.00  0.00     0.093 N
HETATM    9  C13 UNL     1      -3.061  29.716  -9.782  1.00  0.00     0.277 C
ENDROOT
BRANCH   1  10
HETATM   10  C5  UNL     1      -2.696  30.849  -7.695  1.00  0.00     0.008 C
BRANCH  10  11
HETATM   11  C4  UNL     1      -2.703  29.548  -7.043  1.00  0.00     0.028 C
BRANCH  11  12
HETATM   12  C3  UNL     1      -2.331  29.393  -5.628  1.00  0.00     0.232 C
BRANCH  12  13
HETATM   13  N1  UNL     1      -3.570  29.386  -4.830  1.00  0.00    -0.075 N
ATOM     14  H12 UNL     1      -3.645  28.523  -4.290  1.00  0.00     0.277 HD
ATOM     15  H11 UNL     1      -4.386  29.282  -5.434  1.00  0.00     0.277 HD
BRANCH  13  16
HETATM   16  C2  UNL     1      -3.717  30.522  -3.981  1.00  0.00     0.228 C
HETATM   17  C1  UNL     1      -2.563  30.445  -2.969  1.00  0.00     0.034 C
ENDBRANCH  13  16
ENDBRANCH  12  13
ENDBRANCH  11  12
ENDBRANCH  10  11
ENDBRANCH   1  10
TORSDOF 5
ENDMDL