MODEL 1
REMARK VINA RESULT: -5.660896295      0.000      0.000
REMARK  4 active torsions:
REMARK  status: ('A' for Active; 'I' for Inactive)
REMARK    1  A    between atoms: C2_2  and  C3_3
REMARK    2  A    between atoms: C3_3  and  C4_4
REMARK    3  A    between atoms: C4_4  and  C5_5
REMARK    4  A    between atoms: C5_5  and  C6_6
ROOT
HETATM    1  C6  UNL     1      -2.384  30.782 -11.600  1.00  0.00     0.030 C
HETATM    2  C7  UNL     1      -1.094  30.182 -11.081  1.00  0.00     0.060 C
HETATM    3  N1  UNL     1      -0.177  29.945 -12.124  1.00  0.00    -0.401 N
ATOM      4  H1  UNL     1       0.802  30.216 -12.036  1.00  0.00     0.158 HD
HETATM    5  C8  UNL     1      -0.659  29.319 -13.300  1.00  0.00     0.125 C
HETATM    6  C9  UNL     1      -2.059  29.577 -13.681  1.00  0.00     0.035 C
HETATM    7  C10 UNL     1      -2.640  28.284 -14.256  1.00  0.00     0.239 C
HETATM    8  N2  UNL     1      -3.437  27.685 -13.220  1.00  0.00    -0.074 N
ATOM      9  H21 UNL     1      -3.317  26.675 -13.151  1.00  0.00     0.277 HD
ATOM     10  H22 UNL     1      -4.435  27.680 -13.429  1.00  0.00     0.277 HD
HETATM   11  C11 UNL     1      -3.104  28.400 -11.974  1.00  0.00     0.238 C
HETATM   12  C12 UNL     1      -3.009  29.809 -12.516  1.00  0.00     0.027 C
ENDROOT
BRANCH   1  13
HETATM   13  C5  UNL     1      -3.242  31.329 -10.508  1.00  0.00     0.010 C
BRANCH  13  14
HETATM   14  C4  UNL     1      -2.415  31.741  -9.312  1.00  0.00     0.001 C
BRANCH  14  15
HETATM   15  C3  UNL     1      -3.005  31.176  -8.039  1.00  0.00    -0.000 C
BRANCH  15  16
HETATM   16  C2  UNL     1      -2.378  29.892  -7.617  1.00  0.00    -0.005 C
HETATM   17  C1  UNL     1      -2.789  29.465  -6.225  1.00  0.00     0.005 C
ENDBRANCH  15  16
ENDBRANCH  14  15
ENDBRANCH  13  14
ENDBRANCH   1  13
TORSDOF 4
ENDMDL