MODEL 4
REMARK VINA RESULT: -4.927863370      7.386      8.412
REMARK  5 active torsions:
REMARK  status: ('A' for Active; 'I' for Inactive)
REMARK    1  A    between atoms: N1_1  and  C1_5
REMARK    2  A    between atoms: C1_5  and  C2_6
REMARK    3  A    between atoms: C2_6  and  C3_7
REMARK    4  A    between atoms: C3_7  and  N2_8
REMARK    5  A    between atoms: N2_8  and  C4_10
ROOT
HETATM    1  C4  UNL     1       2.299  -6.368  86.795  1.00  0.00     0.709 A
HETATM    2  N3  UNL     1       3.469  -7.058  86.691  1.00  0.00    -0.115 N
ATOM      3  H3  UNL     1       3.596  -7.968  86.249  1.00  0.00     0.207 HD
HETATM    4  N4  UNL     1       4.409  -6.329  87.269  1.00  0.00    -0.213 N
ATOM      5  H4  UNL     1       5.389  -6.601  87.340  1.00  0.00     0.210 HD
HETATM    6  N5  UNL     1       3.915  -5.214  87.738  1.00  0.00    -0.213 N
ATOM      7  H5  UNL     1       4.422  -4.476  88.227  1.00  0.00     0.210 HD
HETATM    8  N6  UNL     1       2.625  -5.237  87.448  1.00  0.00    -0.115 N
ATOM      9  H6  UNL     1       1.966  -4.496  87.687  1.00  0.00     0.207 HD
ENDROOT
BRANCH   1  10
HETATM   10  N2  UNL     1       1.139  -6.746  86.350  1.00  0.00    -0.223 N
ATOM     11  H2  UNL     1       0.380  -6.987  86.988  1.00  0.00     0.177 HD
BRANCH  10  12
HETATM   12  C3  UNL     1       0.966  -6.813  84.931  1.00  0.00     0.140 C
BRANCH  12  13
HETATM   13  C2  UNL     1       1.515  -5.636  84.194  1.00  0.00     0.047 C
BRANCH  13  14
HETATM   14  C1  UNL     1       2.660  -5.949  83.293  1.00  0.00     0.231 C
BRANCH  14  15
HETATM   15  N1  UNL     1       3.208  -4.674  82.834  1.00  0.00    -0.079 N
ATOM     16  H13 UNL     1       2.741  -3.866  83.247  1.00  0.00     0.274 HD
ATOM     17  H12 UNL     1       4.142  -4.486  83.199  1.00  0.00     0.274 HD
ATOM     18  H11 UNL     1       3.171  -4.679  81.815  1.00  0.00     0.274 HD
ENDBRANCH  14  15
ENDBRANCH  13  14
ENDBRANCH  12  13
ENDBRANCH  10  12
ENDBRANCH   1  10
TORSDOF 5
ENDMDL