MODEL 2
REMARK VINA RESULT: -4.479683441      7.164      8.054
REMARK  4 active torsions:
REMARK  status: ('A' for Active; 'I' for Inactive)
REMARK    1  A    between atoms: N1_1  and  C1_5
REMARK    2  A    between atoms: C1_5  and  C2_6
REMARK    3  A    between atoms: C2_6  and  O1_7
REMARK    4  A    between atoms: O1_7  and  C3_8
ROOT
HETATM    1  C3  UNL     1       2.892  -7.079  86.045  1.00  0.00     0.302 C
HETATM    2  C4  UNL     1       4.036  -6.113  86.150  1.00  0.00     0.136 C
HETATM    3  N2  UNL     1       4.019  -5.241  87.252  1.00  0.00    -0.312 N
ATOM      4  H2  UNL     1       4.884  -4.851  87.630  1.00  0.00     0.181 HD
HETATM    5  N3  UNL     1       2.804  -4.932  87.800  1.00  0.00    -0.116 NA
HETATM    6  C5  UNL     1       1.759  -5.337  86.883  1.00  0.00     0.306 C
HETATM    7  O2  UNL     1       1.817  -6.740  86.856  1.00  0.00    -0.339 OA
ENDROOT
BRANCH   1   8
HETATM    8  O1  UNL     1       2.399  -7.161  84.762  1.00  0.00    -0.355 OA
BRANCH   8   9
HETATM    9  C2  UNL     1       3.164  -6.454  83.884  1.00  0.00     0.198 C
BRANCH   9  10
HETATM   10  C1  UNL     1       2.324  -5.448  83.152  1.00  0.00     0.255 C
BRANCH  10  11
HETATM   11  N1  UNL     1       3.133  -4.318  82.712  1.00  0.00    -0.077 N
ATOM     12  H13 UNL     1       3.245  -3.624  83.451  1.00  0.00     0.274 HD
ATOM     13  H12 UNL     1       4.113  -4.578  82.594  1.00  0.00     0.274 HD
ATOM     14  H11 UNL     1       2.749  -3.904  81.861  1.00  0.00     0.274 HD
ENDBRANCH  10  11
ENDBRANCH   9  10
ENDBRANCH   8   9
ENDBRANCH   1   8
TORSDOF 4
ENDMDL