MODEL 2
REMARK VINA RESULT: -4.074693345      1.564      2.319
REMARK  5 active torsions:
REMARK  status: ('A' for Active; 'I' for Inactive)
REMARK    1  A    between atoms: N1_1  and  C1_5
REMARK    2  A    between atoms: C1_5  and  C2_6
REMARK    3  A    between atoms: C2_6  and  N2_7
REMARK    4  A    between atoms: N2_7  and  C3_10
REMARK    5  A    between atoms: C6_16  and  N4_17
ROOT
HETATM    1  C3  UNL     1       7.367  -0.658  85.426  1.00  0.00     0.243 C
HETATM    2  C4  UNL     1       7.567  -0.632  83.905  1.00  0.00     0.267 C
HETATM    3  N3  UNL     1       8.020   0.741  83.729  1.00  0.00    -0.071 N
ATOM      4  H31 UNL     1       8.250   1.010  82.772  1.00  0.00     0.277 HD
ATOM      5  H32 UNL     1       8.945   0.952  84.103  1.00  0.00     0.277 HD
HETATM    6  C5  UNL     1       6.913   1.469  84.337  1.00  0.00     0.267 C
HETATM    7  C6  UNL     1       6.724   0.696  85.632  1.00  0.00     0.241 C
ENDROOT
BRANCH   1   8
HETATM    8  N2  UNL     1       8.676  -0.736  86.014  1.00  0.00    -0.066 N
ATOM      9  H22 UNL     1       8.655  -0.404  86.978  1.00  0.00     0.277 HD
ATOM     10  H21 UNL     1       9.294  -0.036  85.602  1.00  0.00     0.277 HD
BRANCH   8  11
HETATM   11  C2  UNL     1       9.275  -2.039  85.943  1.00  0.00     0.260 C
BRANCH  11  12
HETATM   12  C1  UNL     1       9.841  -2.329  87.330  1.00  0.00     0.257 C
BRANCH  12  13
HETATM   13  N1  UNL     1      10.321  -3.696  87.295  1.00  0.00    -0.078 N
ATOM     14  H13 UNL     1      11.337  -3.767  87.241  1.00  0.00     0.274 HD
ATOM     15  H12 UNL     1      10.208  -4.187  88.182  1.00  0.00     0.274 HD
ATOM     16  H11 UNL     1       9.842  -4.148  86.517  1.00  0.00     0.274 HD
ENDBRANCH  12  13
ENDBRANCH  11  12
ENDBRANCH   8  11
ENDBRANCH   1   8
BRANCH   7  17
HETATM   17  N4  UNL     1       7.312   1.468  86.678  1.00  0.00    -0.071 N
ATOM     18  H43 UNL     1       6.850   2.375  86.756  1.00  0.00     0.274 HD
ATOM     19  H42 UNL     1       7.076   1.075  87.589  1.00  0.00     0.274 HD
ATOM     20  H41 UNL     1       8.322   1.588  86.592  1.00  0.00     0.274 HD
ENDBRANCH   7  17
TORSDOF 5
ENDMDL