MODEL 2
REMARK VINA RESULT: -4.024489644      7.186      8.167
REMARK  5 active torsions:
REMARK  status: ('A' for Active; 'I' for Inactive)
REMARK    1  A    between atoms: N1_1  and  C1_5
REMARK    2  A    between atoms: C1_5  and  C2_6
REMARK    3  A    between atoms: C2_6  and  N2_7
REMARK    4  A    between atoms: N2_7  and  C3_9
REMARK    5  A    between atoms: C6_15  and  N4_16
ROOT
HETATM    1  C3  UNL     1       2.586  -6.788  85.887  1.00  0.00     0.136 C
HETATM    2  C4  UNL     1       1.066  -6.844  85.634  1.00  0.00     0.056 C
HETATM    3  C5  UNL     1       0.725  -5.397  85.980  1.00  0.00     0.237 C
HETATM    4  N3  UNL     1       1.441  -5.199  87.210  1.00  0.00    -0.044 N
ATOM      5  H31 UNL     1       0.852  -5.325  88.033  1.00  0.00     0.279 HD
ATOM      6  H32 UNL     1       1.690  -4.222  87.368  1.00  0.00     0.279 HD
HETATM    7  C6  UNL     1       2.590  -6.074  87.206  1.00  0.00     0.402 C
ENDROOT
BRANCH   1   8
HETATM    8  N2  UNL     1       3.120  -6.039  84.807  1.00  0.00    -0.412 N
ATOM      9  H2  UNL     1       3.694  -5.208  84.950  1.00  0.00     0.153 HD
BRANCH   8  10
HETATM   10  C2  UNL     1       2.795  -6.534  83.501  1.00  0.00     0.141 C
BRANCH  10  11
HETATM   11  C1  UNL     1       2.497  -5.294  82.641  1.00  0.00     0.248 C
BRANCH  11  12
HETATM   12  N1  UNL     1       3.555  -4.345  83.053  1.00  0.00    -0.078 N
ATOM     13  H13 UNL     1       4.382  -4.779  83.463  1.00  0.00     0.274 HD
ATOM     14  H12 UNL     1       4.048  -3.894  82.281  1.00  0.00     0.274 HD
ATOM     15  H11 UNL     1       3.059  -3.705  83.673  1.00  0.00     0.274 HD
ENDBRANCH  11  12
ENDBRANCH  10  11
ENDBRANCH   8  10
ENDBRANCH   1   8
BRANCH   7  16
HETATM   16  N4  UNL     1       3.789  -5.340  87.454  1.00  0.00    -0.048 N
ATOM     17  H43 UNL     1       3.801  -4.476  86.912  1.00  0.00     0.276 HD
ATOM     18  H42 UNL     1       3.784  -4.949  88.396  1.00  0.00     0.276 HD
ATOM     19  H41 UNL     1       4.638  -5.880  87.291  1.00  0.00     0.276 HD
ENDBRANCH   7  16
TORSDOF 5
ENDMDL