MODEL 3
REMARK VINA RESULT: -4.753873050      1.122      2.173
REMARK  5 active torsions:
REMARK  status: ('A' for Active; 'I' for Inactive)
REMARK    1  A    between atoms: N1_1  and  C1_4
REMARK    2  A    between atoms: C3_10  and  N4_11
REMARK    3  A    between atoms: N4_11  and  C4_13
REMARK    4  A    between atoms: C4_13  and  C5_14
REMARK    5  A    between atoms: C5_14  and  N5_15
ROOT
HETATM    1  C1  UNL     1       6.393   0.616  85.378  1.00  0.00     0.691 A
HETATM    2  N2  UNL     1       5.834   0.469  84.165  1.00  0.00    -0.187 N
ATOM      3  H2  UNL     1       5.030   1.049  83.922  1.00  0.00     0.185 HD
HETATM    4  C2  UNL     1       6.297  -0.420  83.250  1.00  0.00     0.215 A
HETATM    5  N3  UNL     1       7.350  -1.173  83.585  1.00  0.00    -0.187 N
ATOM      6  H3  UNL     1       7.717  -1.849  82.915  1.00  0.00     0.185 HD
HETATM    7  C3  UNL     1       7.935  -1.051  84.794  1.00  0.00     0.693 A
HETATM    8  N6  UNL     1       7.448  -0.158  85.674  1.00  0.00    -0.023 N
ATOM      9  H6  UNL     1       7.891  -0.068  86.589  1.00  0.00     0.203 HD
ENDROOT
BRANCH   7  10
HETATM   10  N4  UNL     1       8.954  -1.771  85.131  1.00  0.00    -0.224 N
ATOM     11  H4  UNL     1       9.306  -2.449  84.455  1.00  0.00     0.177 HD
BRANCH  10  12
HETATM   12  C4  UNL     1       9.618  -1.673  86.395  1.00  0.00     0.165 C
BRANCH  12  13
HETATM   13  C5  UNL     1       9.234  -2.873  87.234  1.00  0.00     0.249 C
BRANCH  13  14
HETATM   14  N5  UNL     1      10.364  -3.784  87.297  1.00  0.00    -0.078 N
ATOM     15  H53 UNL     1      10.991  -3.683  86.499  1.00  0.00     0.274 HD
ATOM     16  H52 UNL     1      11.026  -3.531  88.030  1.00  0.00     0.274 HD
ATOM     17  H51 UNL     1      10.015  -4.737  87.400  1.00  0.00     0.274 HD
ENDBRANCH  13  14
ENDBRANCH  12  13
ENDBRANCH  10  12
ENDBRANCH   7  10
BRANCH   1  18
HETATM   18  N1  UNL     1       5.943   1.469  86.248  1.00  0.00    -0.234 N
ATOM     19  H12 UNL     1       5.861   2.456  86.003  1.00  0.00     0.174 HD
ATOM     20  H11 UNL     1       5.662   1.189  87.187  1.00  0.00     0.174 HD
ENDBRANCH   1  18
TORSDOF 5
ENDMDL