MODEL 2
REMARK VINA RESULT: -5.037015180      6.852      7.790
REMARK  3 active torsions:
REMARK  status: ('A' for Active; 'I' for Inactive)
REMARK    1  A    between atoms: C2_2  and  O1_3
REMARK    2  A    between atoms: O1_3  and  C3_4
REMARK    3  A    between atoms: C3_4  and  N1_5
ROOT
HETATM    1  N1  UNL     1       1.440  -6.704  84.482  1.00  0.00    -0.097 NA
HETATM    2  N2  UNL     1       2.701  -7.219  84.340  1.00  0.00    -0.023 NA
HETATM    3  N3  UNL     1       3.506  -6.294  83.703  1.00  0.00    -0.257 N
ATOM      4  H3  UNL     1       4.510  -6.368  83.545  1.00  0.00     0.187 HD
HETATM    5  C4  UNL     1       2.663  -5.218  83.311  1.00  0.00     0.202 C
HETATM    6  N4  UNL     1       2.944  -4.269  82.450  1.00  0.00    -0.369 N
ATOM      7  H41 UNL     1       2.340  -3.497  82.169  1.00  0.00     0.159 HD
ATOM      8  H42 UNL     1       3.810  -4.150  81.925  1.00  0.00     0.159 HD
HETATM    9  N5  UNL     1       1.452  -5.385  84.043  1.00  0.00    -0.271 N
ATOM     10  H5  UNL     1       0.736  -4.678  84.213  1.00  0.00     0.185 HD
ENDROOT
BRANCH   1  11
HETATM   11  C3  UNL     1       0.920  -6.824  85.830  1.00  0.00     0.303 C
BRANCH  11  12
HETATM   12  O1  UNL     1       2.004  -6.908  86.687  1.00  0.00    -0.374 OA
BRANCH  12  13
HETATM   13  C2  UNL     1       2.337  -5.663  87.235  1.00  0.00     0.165 C
HETATM   14  C1  UNL     1       3.853  -5.480  87.230  1.00  0.00     0.033 C
ENDBRANCH  12  13
ENDBRANCH  11  12
ENDBRANCH   1  11
TORSDOF 3
ENDMDL