MODEL 2
REMARK VINA RESULT: -4.799616940      1.422      2.337
REMARK  5 active torsions:
REMARK  status: ('A' for Active; 'I' for Inactive)
REMARK    1  A    between atoms: N1_1  and  C1_4
REMARK    2  A    between atoms: C3_10  and  N4_11
REMARK    3  A    between atoms: N4_11  and  C4_13
REMARK    4  A    between atoms: C4_13  and  C5_14
REMARK    5  A    between atoms: C5_14  and  N5_15
ROOT
HETATM    1  C1  UNL     1       6.609   0.601  85.505  1.00  0.00     0.691 A
HETATM    2  N2  UNL     1       6.117   0.479  84.272  1.00  0.00    -0.187 N
ATOM      3  H2  UNL     1       5.348   1.085  83.992  1.00  0.00     0.185 HD
HETATM    4  C2  UNL     1       6.596  -0.416  83.376  1.00  0.00     0.215 A
HETATM    5  N3  UNL     1       7.608  -1.213  83.744  1.00  0.00    -0.187 N
ATOM      6  H3  UNL     1       7.984  -1.896  83.086  1.00  0.00     0.185 HD
HETATM    7  C3  UNL     1       8.131  -1.115  84.988  1.00  0.00     0.693 A
HETATM    8  N6  UNL     1       7.620  -0.202  85.858  1.00  0.00    -0.023 N
ATOM      9  H6  UNL     1       8.015  -0.128  86.796  1.00  0.00     0.203 HD
ENDROOT
BRANCH   7  10
HETATM   10  N4  UNL     1       9.091  -1.894  85.288  1.00  0.00    -0.224 N
ATOM     11  H4  UNL     1       9.389  -2.558  84.574  1.00  0.00     0.177 HD
BRANCH  10  12
HETATM   12  C4  UNL     1       9.790  -1.925  86.531  1.00  0.00     0.165 C
BRANCH  12  13
HETATM   13  C5  UNL     1       9.348  -3.113  87.396  1.00  0.00     0.249 C
BRANCH  13  14
HETATM   14  N5  UNL     1      10.371  -4.143  87.402  1.00  0.00    -0.078 N
ATOM     15  H53 UNL     1      11.147  -3.904  88.020  1.00  0.00     0.274 HD
ATOM     16  H52 UNL     1      10.055  -4.989  87.877  1.00  0.00     0.274 HD
ATOM     17  H51 UNL     1      10.687  -4.336  86.452  1.00  0.00     0.274 HD
ENDBRANCH  13  14
ENDBRANCH  12  13
ENDBRANCH  10  12
ENDBRANCH   7  10
BRANCH   1  18
HETATM   18  N1  UNL     1       6.120   1.469  86.324  1.00  0.00    -0.234 N
ATOM     19  H12 UNL     1       5.144   1.760  86.272  1.00  0.00     0.174 HD
ATOM     20  H11 UNL     1       6.704   1.887  87.048  1.00  0.00     0.174 HD
ENDBRANCH   1  18
TORSDOF 5
ENDMDL