MODEL 2
REMARK VINA RESULT: -4.223156809      1.277      1.944
REMARK  5 active torsions:
REMARK  status: ('A' for Active; 'I' for Inactive)
REMARK    1  A    between atoms: N1_1  and  C1_5
REMARK    2  A    between atoms: C1_5  and  C2_6
REMARK    3  A    between atoms: C2_6  and  O1_7
REMARK    4  A    between atoms: O1_7  and  C3_8
REMARK    5  A    between atoms: C6_14  and  N3_15
ROOT
HETATM    1  C3  UNL     1       7.994  -0.402  84.358  1.00  0.00     0.179 C
HETATM    2  C4  UNL     1       7.915   0.966  83.748  1.00  0.00     0.266 C
HETATM    3  N2  UNL     1       6.661   1.466  84.256  1.00  0.00    -0.071 N
ATOM      4  H21 UNL     1       6.261   2.204  83.677  1.00  0.00     0.277 HD
ATOM      5  H22 UNL     1       6.764   2.011  85.111  1.00  0.00     0.277 HD
HETATM    6  C5  UNL     1       5.785   0.332  84.412  1.00  0.00     0.267 C
HETATM    7  C6  UNL     1       6.585  -0.895  83.981  1.00  0.00     0.239 C
ENDROOT
BRANCH   1   8
HETATM    8  O1  UNL     1       8.145  -0.454  85.695  1.00  0.00    -0.380 OA
BRANCH   8   9
HETATM    9  C2  UNL     1       8.413  -1.671  86.259  1.00  0.00     0.195 C
BRANCH   9  10
HETATM   10  C1  UNL     1       9.744  -1.652  86.988  1.00  0.00     0.255 C
BRANCH  10  11
HETATM   11  N1  UNL     1      10.054  -3.009  87.369  1.00  0.00    -0.077 N
ATOM     12  H13 UNL     1       9.597  -3.291  88.236  1.00  0.00     0.274 HD
ATOM     13  H12 UNL     1       9.622  -3.701  86.757  1.00  0.00     0.274 HD
ATOM     14  H11 UNL     1      11.070  -3.096  87.410  1.00  0.00     0.274 HD
ENDBRANCH  10  11
ENDBRANCH   9  10
ENDBRANCH   8   9
ENDBRANCH   1   8
BRANCH   7  15
HETATM   15  N3  UNL     1       6.510  -0.966  82.551  1.00  0.00    -0.071 N
ATOM     16  H33 UNL     1       7.022  -0.214  82.092  1.00  0.00     0.274 HD
ATOM     17  H32 UNL     1       7.041  -1.747  82.166  1.00  0.00     0.274 HD
ATOM     18  H31 UNL     1       5.525  -0.990  82.289  1.00  0.00     0.274 HD
ENDBRANCH   7  15
TORSDOF 5
ENDMDL