MODEL 1
REMARK VINA RESULT: -4.508198539      0.000      0.000
REMARK  5 active torsions:
REMARK  status: ('A' for Active; 'I' for Inactive)
REMARK    1  A    between atoms: N1_1  and  C1_5
REMARK    2  A    between atoms: C1_5  and  C2_6
REMARK    3  A    between atoms: C2_6  and  N2_7
REMARK    4  A    between atoms: N2_7  and  C3_10
REMARK    5  A    between atoms: C5_15  and  N4_16
ROOT
HETATM    1  C3  UNL     1       7.520  -0.252  85.791  1.00  0.00     0.215 C
HETATM    2  C4  UNL     1       7.512   1.087  85.044  1.00  0.00     0.267 C
HETATM    3  N3  UNL     1       6.618   0.914  83.919  1.00  0.00    -0.044 N
ATOM      4  H31 UNL     1       7.002   1.278  83.046  1.00  0.00     0.279 HD
ATOM      5  H32 UNL     1       5.798   1.518  83.967  1.00  0.00     0.279 HD
HETATM    6  C5  UNL     1       6.278  -0.493  83.841  1.00  0.00     0.382 C
HETATM    7  C6  UNL     1       7.421  -1.194  84.588  1.00  0.00     0.097 C
ENDROOT
BRANCH   1   8
HETATM    8  N2  UNL     1       8.731  -0.429  86.533  1.00  0.00    -0.068 N
ATOM      9  H22 UNL     1       8.607  -0.284  87.535  1.00  0.00     0.277 HD
ATOM     10  H21 UNL     1       9.408   0.317  86.370  1.00  0.00     0.277 HD
BRANCH   8  11
HETATM   11  C2  UNL     1       9.257  -1.746  86.215  1.00  0.00     0.260 C
BRANCH  11  12
HETATM   12  C1  UNL     1      10.004  -2.263  87.446  1.00  0.00     0.257 C
BRANCH  12  13
HETATM   13  N1  UNL     1      10.121  -3.707  87.407  1.00  0.00    -0.078 N
ATOM     14  H13 UNL     1       9.918  -4.127  88.315  1.00  0.00     0.274 HD
ATOM     15  H12 UNL     1       9.366  -4.132  86.869  1.00  0.00     0.274 HD
ATOM     16  H11 UNL     1      11.037  -3.986  87.058  1.00  0.00     0.274 HD
ENDBRANCH  12  13
ENDBRANCH  11  12
ENDBRANCH   8  11
ENDBRANCH   1   8
BRANCH   6  17
HETATM   17  N4  UNL     1       6.166  -0.990  82.501  1.00  0.00    -0.050 N
ATOM     18  H43 UNL     1       5.543  -1.797  82.469  1.00  0.00     0.276 HD
ATOM     19  H42 UNL     1       5.635  -0.340  81.920  1.00  0.00     0.276 HD
ATOM     20  H41 UNL     1       7.061  -1.211  82.066  1.00  0.00     0.276 HD
ENDBRANCH   6  17
TORSDOF 5
ENDMDL