MODEL 3
REMARK VINA RESULT: -4.140473475      4.002      6.674
REMARK  8 active torsions:
REMARK  status: ('A' for Active; 'I' for Inactive)
REMARK    1  A    between atoms: N1_1  and  N2_4
REMARK    2  A    between atoms: N2_4  and  N3_5
REMARK    3  A    between atoms: N3_5  and  C1_7
REMARK    4  A    between atoms: C1_7  and  C2_8
REMARK    5  A    between atoms: C2_8  and  C3_9
REMARK    6  A    between atoms: C4_10  and  C5_11
REMARK    7  A    between atoms: C6_12  and  C7_13
REMARK    8  A    between atoms: C8_14  and  N4_15
ROOT
HETATM    1  C3  UNL     1      21.193  -1.981  40.516  1.00  0.00    -0.091 C
HETATM    2  C4  UNL     1      20.434  -1.432  41.285  1.00  0.00    -0.014 C
ENDROOT
BRANCH   1   3
HETATM    3  C2  UNL     1      22.119  -2.658  39.606  1.00  0.00     0.117 C
BRANCH   3   4
HETATM    4  C1  UNL     1      23.214  -3.366  40.388  1.00  0.00     0.167 C
BRANCH   4   5
HETATM    5  N3  UNL     1      22.886  -4.760  40.502  1.00  0.00    -0.252 N
ATOM      6  H3  UNL     1      22.882  -5.363  39.679  1.00  0.00     0.197 HD
BRANCH   5   7
HETATM    7  N2  UNL     1      22.613  -5.210  41.605  1.00  0.00    -0.249 NA
BRANCH   7   8
HETATM    8  N1  UNL     1      22.023  -5.586  42.614  1.00  0.00    -0.261 N
ATOM      9  H12 UNL     1      21.981  -4.652  43.021  1.00  0.00     0.193 HD
ATOM     10  H11 UNL     1      21.555  -6.149  43.324  1.00  0.00     0.193 HD
ENDBRANCH   7   8
ENDBRANCH   5   7
ENDBRANCH   4   5
ENDBRANCH   3   4
ENDBRANCH   1   3
BRANCH   2  11
HETATM   11  C5  UNL     1      19.553  -0.802  42.206  1.00  0.00    -0.001 C
HETATM   12  C6  UNL     1      18.807  -0.274  43.006  1.00  0.00     0.001 C
BRANCH  12  13
HETATM   13  C7  UNL     1      17.943   0.324  43.951  1.00  0.00     0.009 C
HETATM   14  C8  UNL     1      17.208   0.850  44.763  1.00  0.00     0.017 C
BRANCH  14  15
HETATM   15  N4  UNL     1      16.360   1.468  45.691  1.00  0.00    -0.359 N
ATOM     16  H42 UNL     1      16.913   1.474  44.834  1.00  0.00     0.166 HD
ATOM     17  H41 UNL     1      15.742   1.909  46.373  1.00  0.00     0.166 HD
ENDBRANCH  14  15
ENDBRANCH  12  13
ENDBRANCH   2  11
TORSDOF 8
ENDMDL