MODEL 1
REMARK VINA RESULT: -5.168655782      0.000      0.000
REMARK  2 active torsions:
REMARK  status: ('A' for Active; 'I' for Inactive)
REMARK    1  A    between atoms: C4_4  and  C5_5
REMARK    2  A    between atoms: C5_5  and  N1_6
ROOT
HETATM    1  C1  UNL     1      18.776  -0.204  40.727  1.00  0.00     0.017 A
HETATM    2  C2  UNL     1      19.576  -0.994  39.926  1.00  0.00     0.003 A
HETATM    3  C3  UNL     1      20.724  -1.610  40.380  1.00  0.00     0.027 A
HETATM    4  C4  UNL     1      21.076  -1.414  41.716  1.00  0.00     0.027 A
HETATM    5  N3  UNL     1      20.298  -0.645  42.501  1.00  0.00    -0.368 N
ATOM      6  H3  UNL     1      20.563  -0.508  43.477  1.00  0.00     0.165 HD
HETATM    7  C9  UNL     1      19.183  -0.053  42.040  1.00  0.00     0.088 A
ENDROOT
BRANCH   4   8
HETATM    8  C5  UNL     1      22.307  -2.075  42.204  1.00  0.00     0.186 C
BRANCH   8   9
HETATM    9  N1  UNL     1      22.371  -3.470  41.849  1.00  0.00    -0.346 N
HETATM   10  C6  UNL     1      21.759  -4.488  42.480  1.00  0.00     0.109 A
HETATM   11  C7  UNL     1      22.056  -5.672  41.850  1.00  0.00     0.106 A
HETATM   12  N2  UNL     1      22.861  -5.364  40.822  1.00  0.00    -0.361 N
HETATM   13  C8  UNL     1      23.041  -4.040  40.834  1.00  0.00     0.182 A
ATOM     14  H2  UNL     1      23.263  -6.022  40.153  1.00  0.00     0.166 HD
ENDBRANCH   8   9
ENDBRANCH   4   8
TORSDOF 2
ENDMDL