MODEL 1
REMARK VINA RESULT: -6.508576708      0.000      0.000
REMARK  2 active torsions:
REMARK  status: ('A' for Active; 'I' for Inactive)
REMARK    1  A    between atoms: N3_4  and  C2_6
REMARK    2  A    between atoms: C2_6  and  C3_7
ROOT
HETATM    1  C2  UNL     1      21.702  -3.049  40.851  1.00  0.00     0.251 A
HETATM    2  C9  UNL     1      22.891  -2.711  40.174  1.00  0.00     0.302 A
HETATM    3  N4  UNL     1      21.780  -3.322  39.424  1.00  0.00    -0.038 N
ATOM      4  H41 UNL     1      21.232  -3.089  38.597  1.00  0.00     0.280 HD
ATOM      5  H42 UNL     1      21.654  -4.133  38.819  1.00  0.00     0.280 HD
ENDROOT
BRANCH   1   6
HETATM    6  N3  UNL     1      21.493  -4.215  41.647  1.00  0.00    -0.329 N
HETATM    7  C1  UNL     1      22.265  -5.237  41.630  1.00  0.00     0.199 C
HETATM    8  N1  UNL     1      23.417  -5.278  40.788  1.00  0.00    -0.067 NA
HETATM    9  N2  UNL     1      22.004  -6.375  42.450  1.00  0.00    -0.067 NA
ATOM     10  H3  UNL     1      20.682  -4.236  42.266  1.00  0.00     0.164 HD
ENDBRANCH   1   6
BRANCH   1  11
HETATM   11  C3  UNL     1      20.741  -1.925  41.131  1.00  0.00    -0.001 A
HETATM   12  C4  UNL     1      20.618  -1.388  42.398  1.00  0.00     0.011 A
HETATM   13  C5  UNL     1      19.736  -0.354  42.660  1.00  0.00     0.001 A
HETATM   14  C6  UNL     1      18.953   0.158  41.632  1.00  0.00     0.000 A
HETATM   15  C7  UNL     1      19.058  -0.365  40.357  1.00  0.00     0.001 A
HETATM   16  C8  UNL     1      19.944  -1.386  40.143  1.00  0.00     0.011 A
ENDBRANCH   1  11
TORSDOF 2
ENDMDL