MODEL 2
REMARK VINA RESULT: -4.043665683      2.048      4.021
REMARK  4 active torsions:
REMARK  status: ('A' for Active; 'I' for Inactive)
REMARK    1  A    between atoms: C3_3  and  C4_4
REMARK    2  A    between atoms: N2_9  and  C7_10
REMARK    3  A    between atoms: C7_10  and  C8_11
REMARK    4  A    between atoms: C8_11  and  N3_12
ROOT
HETATM    1  C1  UNL     1      21.640  -7.006  43.693  1.00  0.00     0.112 C
HETATM    2  C2  UNL     1      21.627  -5.854  42.787  1.00  0.00    -0.103 C
HETATM    3  C3  UNL     1      21.613  -4.906  42.016  1.00  0.00    -0.030 C
ENDROOT
BRANCH   3   4
HETATM    4  C4  UNL     1      21.598  -3.806  41.090  1.00  0.00     0.163 A
HETATM    5  N1  UNL     1      22.304  -3.659  39.947  1.00  0.00    -0.344 N
HETATM    6  C5  UNL     1      22.014  -2.496  39.363  1.00  0.00     0.107 A
ATOM      7  H1  UNL     1      22.967  -4.343  39.582  1.00  0.00     0.167 HD
HETATM    8  C6  UNL     1      21.087  -1.884  40.171  1.00  0.00     0.110 A
HETATM    9  N2  UNL     1      20.829  -2.689  41.234  1.00  0.00    -0.333 N
BRANCH   9  10
HETATM   10  C7  UNL     1      19.908  -2.378  42.293  1.00  0.00     0.158 C
BRANCH  10  11
HETATM   11  C8  UNL     1      19.813  -0.909  42.585  1.00  0.00     0.249 C
BRANCH  11  12
HETATM   12  N3  UNL     1      18.451  -0.491  42.259  1.00  0.00    -0.078 N
ATOM     13  H33 UNL     1      17.947  -1.175  41.695  1.00  0.00     0.274 HD
ATOM     14  H32 UNL     1      17.826  -0.501  43.065  1.00  0.00     0.274 HD
ATOM     15  H31 UNL     1      18.515   0.425  41.814  1.00  0.00     0.274 HD
ENDBRANCH  11  12
ENDBRANCH  10  11
ENDBRANCH   9  10
ENDBRANCH   3   4
TORSDOF 4
ENDMDL