MODEL 1
REMARK VINA RESULT: -5.012005939      0.000      0.000
REMARK  3 active torsions:
REMARK  status: ('A' for Active; 'I' for Inactive)
REMARK    1  A    between atoms: C3_5  and  C4_6
REMARK    2  A    between atoms: C4_6  and  C5_7
REMARK    3  A    between atoms: C5_7  and  N2_8
ROOT
HETATM    1  C4  UNL     1      20.585  -1.519  39.823  1.00  0.00     0.078 C
ENDROOT
BRANCH   1   2
HETATM    2  C3  UNL     1      21.402  -2.680  40.271  1.00  0.00     0.010 A
HETATM    3  N1  UNL     1      20.930  -3.805  40.859  1.00  0.00    -0.369 N
HETATM    4  C2  UNL     1      21.944  -4.645  41.130  1.00  0.00     0.088 A
ATOM      5  H1  UNL     1      19.948  -3.989  41.065  1.00  0.00     0.165 HD
HETATM    6  C1  UNL     1      23.137  -4.071  40.714  1.00  0.00     0.019 A
HETATM    7  C8  UNL     1      22.770  -2.850  40.183  1.00  0.00     0.026 A
ENDBRANCH   1   2
BRANCH   1   8
HETATM    8  C5  UNL     1      19.258  -1.568  40.547  1.00  0.00     0.151 C
BRANCH   8   9
HETATM    9  N2  UNL     1      19.263  -0.588  41.626  1.00  0.00    -0.285 N
HETATM   10  C6  UNL     1      19.501  -0.861  42.930  1.00  0.00     0.126 A
HETATM   11  C7  UNL     1      19.424   0.308  43.664  1.00  0.00     0.123 A
HETATM   12  N3  UNL     1      19.137   1.265  42.769  1.00  0.00    -0.294 N
HETATM   13  N4  UNL     1      19.047   0.715  41.571  1.00  0.00    -0.021 NA
ATOM     14  H3  UNL     1      19.010   2.255  42.980  1.00  0.00     0.183 HD
ENDBRANCH   8   9
ENDBRANCH   1   8
TORSDOF 3
ENDMDL