MODEL 3
REMARK VINA RESULT: -4.829369078      1.838      2.555
REMARK  2 active torsions:
REMARK  status: ('A' for Active; 'I' for Inactive)
REMARK    1  A    between atoms: C2_2  and  C3_3
REMARK    2  A    between atoms: C3_3  and  N1_4
ROOT
HETATM    1  N1  UNL     1      21.658  -4.143  41.215  1.00  0.00    -0.361 N
HETATM    2  C4  UNL     1      22.140  -3.596  40.067  1.00  0.00     0.093 A
HETATM    3  C5  UNL     1      21.611  -2.458  39.534  1.00  0.00     0.049 A
HETATM    4  C6  UNL     1      20.564  -1.841  40.164  1.00  0.00     0.062 A
HETATM    5  N2  UNL     1      19.834  -0.737  39.909  1.00  0.00    -0.350 N
ATOM      6  H2  UNL     1      19.960  -0.112  39.113  1.00  0.00     0.166 HD
HETATM    7  C7  UNL     1      18.912  -0.595  40.878  1.00  0.00     0.181 A
HETATM    8  N3  UNL     1      19.063  -1.611  41.744  1.00  0.00    -0.349 N
ATOM      9  H3  UNL     1      18.502  -1.763  42.583  1.00  0.00     0.166 HD
HETATM   10  C8  UNL     1      20.077  -2.396  41.328  1.00  0.00     0.075 A
HETATM   11  C9  UNL     1      20.632  -3.538  41.833  1.00  0.00     0.122 A
ENDROOT
BRANCH   1  12
HETATM   12  C3  UNL     1      22.253  -5.347  41.742  1.00  0.00     0.154 C
BRANCH  12  13
HETATM   13  C2  UNL     1      21.594  -5.762  43.010  1.00  0.00    -0.017 C
HETATM   14  C1  UNL     1      21.539  -7.040  43.343  1.00  0.00     0.008 C
ENDBRANCH  12  13
ENDBRANCH   1  12
TORSDOF 2
ENDMDL