MODEL 1
REMARK VINA RESULT: -4.975543980      0.000      0.000
REMARK  3 active torsions:
REMARK  status: ('A' for Active; 'I' for Inactive)
REMARK    1  A    between atoms: C2_2  and  C3_3
REMARK    2  A    between atoms: C3_3  and  N1_4
REMARK    3  A    between atoms: N1_4  and  C4_6
ROOT
HETATM    1  C4  UNL     1      19.167  -0.447  41.713  1.00  0.00     0.123 A
HETATM    2  N2  UNL     1      18.916   0.876  41.658  1.00  0.00    -0.285 N
ATOM      3  H2  UNL     1      18.657   1.386  40.813  1.00  0.00     0.188 HD
HETATM    4  N3  UNL     1      19.054   1.422  42.863  1.00  0.00    -0.303 N
ATOM      5  H3  UNL     1      18.916   2.410  43.078  1.00  0.00     0.186 HD
HETATM    6  C5  UNL     1      19.402   0.478  43.758  1.00  0.00     0.031 A
HETATM    7  C6  UNL     1      19.664   0.608  45.209  1.00  0.00     0.070 C
HETATM    8  C7  UNL     1      19.473  -0.696  43.034  1.00  0.00     0.007 A
HETATM    9  C8  UNL     1      19.827  -2.015  43.608  1.00  0.00     0.054 C
ENDROOT
BRANCH   1  10
HETATM   10  N1  UNL     1      19.140  -1.322  40.764  1.00  0.00    -0.375 N
ATOM     11  H1  UNL     1      18.313  -1.897  40.602  1.00  0.00     0.161 HD
BRANCH  10  12
HETATM   12  C3  UNL     1      20.312  -1.458  39.944  1.00  0.00     0.121 C
BRANCH  12  13
HETATM   13  C2  UNL     1      21.003  -2.786  40.121  1.00  0.00     0.015 C
HETATM   14  C1  UNL     1      22.452  -2.741  39.719  1.00  0.00     0.006 C
ENDBRANCH  12  13
ENDBRANCH  10  12
ENDBRANCH   1  10
TORSDOF 3
ENDMDL