MODEL 3
REMARK VINA RESULT: -4.566671406      4.036      5.540
REMARK  1 active torsions:
REMARK  status: ('A' for Active; 'I' for Inactive)
REMARK    1  A    between atoms: N1_6  and  C6_8
ROOT
HETATM    1  C1  UNL     1      20.881  -1.735  39.685  1.00  0.00     0.044 C
HETATM    2  C2  UNL     1      21.126  -2.823  40.381  1.00  0.00     0.038 A
HETATM    3  C3  UNL     1      20.292  -3.201  41.515  1.00  0.00     0.034 A
HETATM    4  C4  UNL     1      20.532  -4.311  42.234  1.00  0.00     0.052 A
HETATM    5  C5  UNL     1      21.646  -5.198  41.913  1.00  0.00     0.116 A
HETATM    6  N1  UNL     1      21.908  -6.275  42.583  1.00  0.00    -0.371 N
ATOM      7  H1  UNL     1      22.705  -6.844  42.297  1.00  0.00     0.161 HD
HETATM    8  N2  UNL     1      22.458  -4.827  40.805  1.00  0.00    -0.285 N
ATOM      9  H2  UNL     1      23.245  -5.426  40.555  1.00  0.00     0.188 HD
HETATM   10  N3  UNL     1      22.223  -3.673  40.044  1.00  0.00    -0.300 N
ATOM     11  H3  UNL     1      22.829  -3.443  39.257  1.00  0.00     0.187 HD
ENDROOT
BRANCH   6  12
HETATM   12  C6  UNL     1      21.126  -6.707  43.713  1.00  0.00     0.075 C
HETATM   13  C7  UNL     1      21.771  -6.288  45.025  1.00  0.00     0.031 C
HETATM   14  C8  UNL     1      21.144  -8.239  43.682  1.00  0.00     0.031 C
ENDBRANCH   6  12
TORSDOF 1
ENDMDL