MODEL 4
REMARK VINA RESULT: -4.574052739      1.649      4.823
REMARK  4 active torsions:
REMARK  status: ('A' for Active; 'I' for Inactive)
REMARK    1  A    between atoms: C4_8  and  N3_9
REMARK    2  A    between atoms: N3_9  and  C5_11
REMARK    3  A    between atoms: C5_11  and  C6_12
REMARK    4  A    between atoms: C6_12  and  N4_14
ROOT
HETATM    1  N3  UNL     1      19.823  -2.579  41.765  1.00  0.00    -0.373 N
ATOM      2  H3  UNL     1      18.906  -2.818  41.390  1.00  0.00     0.161 HD
ENDROOT
BRANCH   1   3
HETATM    3  C4  UNL     1      20.719  -3.448  41.643  1.00  0.00     0.123 A
HETATM    4  C2  UNL     1      21.712  -3.550  40.726  1.00  0.00    -0.000 A
HETATM    5  C1  UNL     1      22.058  -2.676  39.582  1.00  0.00     0.054 C
HETATM    6  C3  UNL     1      22.457  -4.702  41.013  1.00  0.00     0.117 A
HETATM    7  N1  UNL     1      21.888  -5.253  42.092  1.00  0.00    -0.310 N
HETATM    8  N2  UNL     1      20.859  -4.521  42.474  1.00  0.00    -0.286 N
ATOM      9  H1  UNL     1      22.202  -6.109  42.549  1.00  0.00     0.186 HD
ATOM     10  H2  UNL     1      20.258  -4.727  43.272  1.00  0.00     0.188 HD
ENDBRANCH   1   3
BRANCH   1  11
HETATM   11  C5  UNL     1      19.946  -1.297  42.369  1.00  0.00     0.153 C
BRANCH  11  12
HETATM   12  C6  UNL     1      18.851  -0.347  41.833  1.00  0.00     0.197 C
HETATM   13  C7  UNL     1      18.983  -0.408  40.323  1.00  0.00     0.041 C
BRANCH  12  14
HETATM   14  N4  UNL     1      19.137   0.978  42.340  1.00  0.00    -0.074 N
ATOM     15  H43 UNL     1      19.779   0.970  43.133  1.00  0.00     0.274 HD
ATOM     16  H42 UNL     1      19.716   1.530  41.706  1.00  0.00     0.274 HD
ATOM     17  H41 UNL     1      18.245   1.424  42.554  1.00  0.00     0.274 HD
ENDBRANCH  12  14
ENDBRANCH  11  12
ENDBRANCH   1  11
TORSDOF 4
ENDMDL