MODEL 3
REMARK VINA RESULT: -6.053307979      1.439      1.575
REMARK  9 active torsions:
REMARK  status: ('A' for Active; 'I' for Inactive)
REMARK       I    between atoms: C1_2  and  N1_3
REMARK    1  A    between atoms: C1_2  and  C8_12
REMARK    2  A    between atoms: N1_3  and  C2_5
REMARK    3  A    between atoms: C2_5  and  C3_6
REMARK    4  A    between atoms: C3_6  and  C4_7
REMARK    5  A    between atoms: C4_7  and  C5_8
REMARK    6  A    between atoms: C5_8  and  C6_9
REMARK    7  A    between atoms: C6_9  and  C7_10
REMARK    8  A    between atoms: C10_14  and  C11_15
REMARK    9  A    between atoms: C11_15  and  O2_16
ROOT
HETATM    1  C8  UNL     1      36.392  12.976  15.657  1.00  0.00     0.083 C
HETATM    2  C9  UNL     1      36.734  14.273  16.401  1.00  0.00     0.021 C
HETATM    3  C10 UNL     1      36.434  14.019  17.854  1.00  0.00     0.014 C
HETATM    4  C12 UNL     1      36.011  12.617  17.929  1.00  0.00    -0.004 C
HETATM    5  C13 UNL     1      34.955  12.277  18.916  1.00  0.00     0.005 C
HETATM    6  C14 UNL     1      34.816  10.776  18.924  1.00  0.00     0.000 C
HETATM    7  C15 UNL     1      34.730  10.143  17.601  1.00  0.00     0.000 C
HETATM    8  C16 UNL     1      35.334  10.838  16.452  1.00  0.00     0.006 C
HETATM    9  C17 UNL     1      35.398  12.320  16.550  1.00  0.00     0.003 C
ENDROOT
BRANCH   1  10
HETATM   10  C1  UNL     1      35.861  13.279  14.310  1.00  0.00     0.222 C
HETATM   11  O1  UNL     1      34.627  13.216  14.101  1.00  0.00    -0.273 OA
HETATM   12  N1  UNL     1      36.725  13.642  13.245  1.00  0.00    -0.361 N
ATOM     13  H1  UNL     1      37.730  13.692  13.419  1.00  0.00     0.162 HD
BRANCH  12  14
HETATM   14  C2  UNL     1      36.227  13.945  11.914  1.00  0.00     0.122 C
BRANCH  14  15
HETATM   15  C3  UNL     1      36.771  12.950  10.912  1.00  0.00     0.020 C
BRANCH  15  16
HETATM   16  C4  UNL     1      35.870  11.732  10.814  1.00  0.00     0.002 C
BRANCH  16  17
HETATM   17  C5  UNL     1      36.387  10.594  11.662  1.00  0.00     0.001 C
BRANCH  17  18
HETATM   18  C6  UNL     1      35.282  10.001  12.524  1.00  0.00     0.015 C
BRANCH  18  19
HETATM   19  C7  UNL     1      33.920  10.453  12.038  1.00  0.00     0.114 C
HETATM   20 CL1  UNL     1      33.234   9.265  10.891  1.00  0.00    -0.130 Cl
ENDBRANCH  18  19
ENDBRANCH  17  18
ENDBRANCH  16  17
ENDBRANCH  15  16
ENDBRANCH  14  15
ENDBRANCH  12  14
ENDBRANCH   1  10
BRANCH   3  21
HETATM   21  C11 UNL     1      35.490  15.018  18.453  1.00  0.00     0.169 C
BRANCH  21  22
HETATM   22  O2  UNL     1      36.098  16.190  18.835  1.00  0.00    -0.400 OA
ATOM     23  H2  UNL     1      36.925  16.060  19.283  1.00  0.00     0.209 HD
ENDBRANCH  21  22
ENDBRANCH   3  21
TORSDOF 9
ENDMDL