MODEL 5
REMARK VINA RESULT: -5.263730969      4.676      7.077
REMARK  8 active torsions:
REMARK  status: ('A' for Active; 'I' for Inactive)
REMARK    1  A    between atoms: C2_2  and  N1_3
REMARK    2  A    between atoms: N1_3  and  C3_4
REMARK    3  A    between atoms: N1_3  and  C5_7
REMARK    4  A    between atoms: C3_4  and  C4_5
REMARK    5  A    between atoms: C5_7  and  C6_8
REMARK    6  A    between atoms: C6_8  and  C7_9
REMARK    7  A    between atoms: C7_9  and  N2_10
REMARK       I    between atoms: N2_10  and  C8_12
REMARK       I    between atoms: C8_12  and  N3_14
REMARK    8  A    between atoms: N3_14  and  C9_16
ROOT
HETATM    1  N2  UNL     1      34.998  12.928  19.570  1.00  0.00    -0.343 N
ATOM      2  H2  UNL     1      34.629  13.749  20.049  1.00  0.00     0.164 HD
HETATM    3  C8  UNL     1      34.649  11.627  20.010  1.00  0.00     0.316 C
HETATM    4  O1  UNL     1      35.114  10.604  19.406  1.00  0.00    -0.247 OA
HETATM    5  N3  UNL     1      33.789  11.428  21.114  1.00  0.00    -0.339 N
ATOM      6  H3  UNL     1      33.422  12.253  21.590  1.00  0.00     0.164 HD
ENDROOT
BRANCH   1   7
HETATM    7  C7  UNL     1      35.883  13.080  18.437  1.00  0.00     0.126 C
BRANCH   7   8
HETATM    8  C6  UNL     1      35.032  13.381  17.224  1.00  0.00     0.050 C
BRANCH   8   9
HETATM    9  C5  UNL     1      35.337  12.578  16.028  1.00  0.00     0.274 C
BRANCH   9  10
HETATM   10  N1  UNL     1      35.056  13.090  14.726  1.00  0.00     0.090 N
BRANCH  10  11
HETATM   11  C2  UNL     1      34.958  11.830  13.909  1.00  0.00     0.268 C
HETATM   12  C1  UNL     1      33.790  10.995  14.318  1.00  0.00     0.037 C
ENDBRANCH  10  11
BRANCH  10  13
HETATM   13  C3  UNL     1      36.073  13.852  14.087  1.00  0.00     0.303 C
BRANCH  13  14
HETATM   14  C4  UNL     1      35.736  14.233  12.669  1.00  0.00     0.252 C
HETATM   15  F1  UNL     1      36.063  15.584  12.462  1.00  0.00    -0.254 F
ENDBRANCH  13  14
ENDBRANCH  10  13
ENDBRANCH   9  10
ENDBRANCH   8   9
ENDBRANCH   7   8
ENDBRANCH   1   7
BRANCH   5  16
HETATM   16  C9  UNL     1      33.395  10.124  21.611  1.00  0.00     0.086 C
HETATM   17  C10 UNL     1      33.338  10.236  23.105  1.00  0.00     0.025 C
HETATM   18  C11 UNL     1      32.837   9.050  23.839  1.00  0.00     0.002 C
HETATM   19  C12 UNL     1      33.188   7.718  23.263  1.00  0.00     0.000 C
HETATM   20  C13 UNL     1      31.918   6.950  22.914  1.00  0.00     0.000 C
HETATM   21  C14 UNL     1      31.989   6.544  21.465  1.00  0.00     0.000 C
HETATM   22  C15 UNL     1      31.292   7.481  20.533  1.00  0.00     0.000 C
HETATM   23  C16 UNL     1      32.254   8.590  20.085  1.00  0.00     0.002 C
HETATM   24  C17 UNL     1      32.082   9.797  20.976  1.00  0.00     0.025 C
ENDBRANCH   5  16
TORSDOF 8
ENDMDL