MODEL 4
REMARK VINA RESULT: -5.635314392      2.533      2.943
REMARK  8 active torsions:
REMARK  status: ('A' for Active; 'I' for Inactive)
REMARK    1  A    between atoms: C1_2  and  C2_4
REMARK    2  A    between atoms: C2_4  and  C3_5
REMARK    3  A    between atoms: C4_6  and  C5_7
REMARK    4  A    between atoms: C7_9  and  C8_10
REMARK       I    between atoms: C8_10  and  N1_12
REMARK    5  A    between atoms: N1_12  and  C9_14
REMARK    6  A    between atoms: C9_14  and  C10_15
REMARK    7  A    between atoms: C10_15  and  C11_16
REMARK    8  A    between atoms: C11_16  and  C12_17
ROOT
HETATM    1  C8  UNL     1      34.960  11.508  19.243  1.00  0.00     0.222 C
HETATM    2  O3  UNL     1      35.562  10.438  18.984  1.00  0.00    -0.273 OA
HETATM    3  N1  UNL     1      34.245  11.639  20.473  1.00  0.00    -0.361 N
ATOM      4  H1  UNL     1      33.757  12.511  20.676  1.00  0.00     0.162 HD
ENDROOT
BRANCH   1   5
HETATM    5  C7  UNL     1      34.993  12.641  18.265  1.00  0.00     0.086 A
HETATM    6  C5  UNL     1      36.268  13.024  17.636  1.00  0.00     0.022 A
HETATM    7  C6  UNL     1      35.719  13.863  18.803  1.00  0.00     0.024 A
BRANCH   6   8
HETATM    8  C4  UNL     1      36.261  13.630  16.297  1.00  0.00    -0.025 C
HETATM    9  C3  UNL     1      36.251  12.938  15.182  1.00  0.00    -0.020 C
BRANCH   9  10
HETATM   10  C2  UNL     1      36.244  13.613  13.848  1.00  0.00     0.140 C
BRANCH  10  11
HETATM   11  C1  UNL     1      34.974  13.273  13.172  1.00  0.00     0.176 C
HETATM   12  O1  UNL     1      34.250  12.317  13.609  1.00  0.00    -0.648 OA
HETATM   13  O2  UNL     1      34.519  13.962  12.055  1.00  0.00    -0.648 OA
ENDBRANCH  10  11
ENDBRANCH   9  10
ENDBRANCH   6   8
ENDBRANCH   1   5
BRANCH   3  14
HETATM   14  C9  UNL     1      34.198  10.561  21.436  1.00  0.00     0.122 C
BRANCH  14  15
HETATM   15  C10 UNL     1      32.795  10.061  21.673  1.00  0.00     0.020 C
BRANCH  15  16
HETATM   16  C11 UNL     1      32.464   9.011  20.657  1.00  0.00     0.006 C
BRANCH  16  17
HETATM   17  C12 UNL     1      31.546   7.937  21.228  1.00  0.00    -0.013 C
HETATM   18  C13 UNL     1      30.708   7.443  20.042  1.00  0.00     0.006 C
HETATM   19  C14 UNL     1      31.601   6.304  19.536  1.00  0.00     0.020 C
HETATM   20  C15 UNL     1      31.923   5.590  20.830  1.00  0.00     0.082 C
HETATM   21 CL1  UNL     1      30.430   4.841  21.432  1.00  0.00    -0.125 Cl
HETATM   22  C16 UNL     1      32.275   6.745  21.745  1.00  0.00     0.024 C
ENDBRANCH  16  17
ENDBRANCH  15  16
ENDBRANCH  14  15
ENDBRANCH   3  14
TORSDOF 8
ENDMDL