MODEL 5
REMARK VINA RESULT: -5.963461747      3.218      6.531
REMARK  8 active torsions:
REMARK  status: ('A' for Active; 'I' for Inactive)
REMARK       I    between atoms: C2_2  and  N1_4
REMARK    1  A    between atoms: N1_4  and  C3_6
REMARK    2  A    between atoms: C3_6  and  C4_7
REMARK    3  A    between atoms: C4_7  and  C5_8
REMARK    4  A    between atoms: C5_8  and  C6_9
REMARK    5  A    between atoms: C6_9  and  C7_10
REMARK    6  A    between atoms: C7_10  and  C8_11
REMARK    7  A    between atoms: C8_11  and  N2_12
REMARK       I    between atoms: N2_12  and  C9_14
REMARK    8  A    between atoms: C9_14  and  C10_16
ROOT
HETATM    1  N2  UNL     1      36.984  13.175  13.205  1.00  0.00    -0.361 N
ATOM      2  H2  UNL     1      37.927  12.838  13.392  1.00  0.00     0.162 HD
HETATM    3  C9  UNL     1      36.064  13.241  14.252  1.00  0.00     0.224 C
HETATM    4  O2  UNL     1      34.888  13.664  14.001  1.00  0.00    -0.273 OA
ENDROOT
BRANCH   1   5
HETATM    5  C8  UNL     1      36.631  13.568  11.871  1.00  0.00     0.122 C
BRANCH   5   6
HETATM    6  C7  UNL     1      36.316  12.405  10.971  1.00  0.00     0.020 C
BRANCH   6   7
HETATM    7  C6  UNL     1      34.841  12.101  10.881  1.00  0.00     0.002 C
BRANCH   7   8
HETATM    8  C5  UNL     1      34.592  10.665  11.200  1.00  0.00     0.002 C
BRANCH   8   9
HETATM    9  C4  UNL     1      34.187  10.470  12.655  1.00  0.00     0.020 C
BRANCH   9  10
HETATM   10  C3  UNL     1      35.241   9.767  13.445  1.00  0.00     0.122 C
BRANCH  10  11
HETATM   11  N1  UNL     1      36.282   9.200  12.615  1.00  0.00    -0.361 N
HETATM   12  C2  UNL     1      37.651   9.521  12.798  1.00  0.00     0.213 C
HETATM   13  C1  UNL     1      38.700   8.937  11.947  1.00  0.00     0.117 C
HETATM   14  O1  UNL     1      37.996  10.323  13.705  1.00  0.00    -0.274 OA
ATOM     15  H1  UNL     1      36.022   8.549  11.874  1.00  0.00     0.162 HD
ENDBRANCH  10  11
ENDBRANCH   9  10
ENDBRANCH   8   9
ENDBRANCH   7   8
ENDBRANCH   6   7
ENDBRANCH   5   6
ENDBRANCH   1   5
BRANCH   3  16
HETATM   16  C10 UNL     1      36.371  12.844  15.667  1.00  0.00     0.112 C
HETATM   17  C11 UNL     1      37.341  13.869  16.192  1.00  0.00     0.017 C
HETATM   18  C12 UNL     1      36.765  15.228  16.378  1.00  0.00     0.001 C
HETATM   19  C13 UNL     1      36.736  15.518  17.878  1.00  0.00     0.000 C
HETATM   20  C14 UNL     1      35.454  14.889  18.448  1.00  0.00     0.000 C
HETATM   21  C15 UNL     1      35.663  13.457  18.806  1.00  0.00     0.003 C
HETATM   22  C16 UNL     1      35.186  12.441  17.855  1.00  0.00     0.038 C
HETATM   23  C17 UNL     1      35.072  12.816  16.412  1.00  0.00     0.183 C
HETATM   24  F1  UNL     1      34.310  11.805  15.845  1.00  0.00    -0.249 F
ENDBRANCH   3  16
TORSDOF 8
ENDMDL