MODEL 4
REMARK VINA RESULT: -6.329651064      1.181      1.656
REMARK  8 active torsions:
REMARK  status: ('A' for Active; 'I' for Inactive)
REMARK       I    between atoms: C2_2  and  N1_4
REMARK    1  A    between atoms: N1_4  and  C3_6
REMARK    2  A    between atoms: C3_6  and  C4_7
REMARK    3  A    between atoms: C6_9  and  C7_10
REMARK    4  A    between atoms: C7_10  and  C8_11
REMARK    5  A    between atoms: C8_11  and  C9_12
REMARK    6  A    between atoms: C9_12  and  C10_13
REMARK    7  A    between atoms: C10_13  and  C11_14
REMARK    8  A    between atoms: C11_14  and  C12_15
ROOT
HETATM    1  C4  UNL     1      37.381  11.533  13.332  1.00  0.00     0.008 C
HETATM    2  C5  UNL     1      36.705  12.408  14.347  1.00  0.00     0.011 C
HETATM    3  C6  UNL     1      35.222  12.260  14.438  1.00  0.00    -0.010 C
HETATM    4  C13 UNL     1      34.728  10.855  14.423  1.00  0.00    -0.010 C
HETATM    5  C14 UNL     1      33.765  10.661  13.268  1.00  0.00     0.005 C
HETATM    6  C15 UNL     1      34.366   9.676  12.300  1.00  0.00     0.001 C
HETATM    7  C16 UNL     1      35.735  10.246  11.896  1.00  0.00     0.005 C
HETATM    8  C17 UNL     1      36.654  10.251  13.071  1.00  0.00    -0.009 C
HETATM    9  C18 UNL     1      35.906   9.895  14.360  1.00  0.00     0.010 C
ENDROOT
BRANCH   3  10
HETATM   10  C7  UNL     1      34.729  12.903  15.711  1.00  0.00     0.005 C
BRANCH  10  11
HETATM   11  C8  UNL     1      35.414  12.367  16.943  1.00  0.00     0.000 C
BRANCH  11  12
HETATM   12  C9  UNL     1      35.038  13.298  18.076  1.00  0.00     0.001 C
BRANCH  12  13
HETATM   13  C10 UNL     1      36.234  14.015  18.644  1.00  0.00     0.010 C
BRANCH  13  14
HETATM   14  C11 UNL     1      36.167  15.456  18.148  1.00  0.00     0.113 C
BRANCH  14  15
HETATM   15  C12 UNL     1      37.177  15.714  17.108  1.00  0.00     0.172 C
HETATM   16  O2  UNL     1      37.959  14.768  16.768  1.00  0.00    -0.648 OA
HETATM   17  O3  UNL     1      37.266  16.968  16.522  1.00  0.00    -0.648 OA
ENDBRANCH  14  15
ENDBRANCH  13  14
ENDBRANCH  12  13
ENDBRANCH  11  12
ENDBRANCH  10  11
ENDBRANCH   3  10
BRANCH   1  18
HETATM   18  C3  UNL     1      37.767  12.282  12.082  1.00  0.00     0.127 C
BRANCH  18  19
HETATM   19  N1  UNL     1      37.296  13.636  12.147  1.00  0.00    -0.361 N
HETATM   20  C2  UNL     1      36.504  14.150  11.106  1.00  0.00     0.213 C
HETATM   21  C1  UNL     1      36.006  15.539  11.158  1.00  0.00     0.117 C
HETATM   22  O1  UNL     1      36.211  13.435  10.121  1.00  0.00    -0.274 OA
ATOM     23  H1  UNL     1      37.535  14.223  12.946  1.00  0.00     0.162 HD
ENDBRANCH  18  19
ENDBRANCH   1  18
TORSDOF 8
ENDMDL