MODEL 2
REMARK VINA RESULT: -5.713083931      5.251      7.394
REMARK  10 active torsions:
REMARK  status: ('A' for Active; 'I' for Inactive)
REMARK    1  A    between atoms: C4_5  and  C5_6
REMARK    2  A    between atoms: C5_6  and  N1_7
REMARK    3  A    between atoms: N1_7  and  C6_9
REMARK    4  A    between atoms: C6_9  and  N2_11
REMARK       I    between atoms: N2_11  and  C7_13
REMARK    5  A    between atoms: C7_13  and  C8_15
REMARK    6  A    between atoms: C8_15  and  C9_16
REMARK    7  A    between atoms: C9_16  and  C10_17
REMARK    8  A    between atoms: C10_17  and  C11_18
REMARK    9  A    between atoms: C11_18  and  C12_19
REMARK   10  A    between atoms: C12_19  and  C13_20
ROOT
HETATM    1  N2  UNL     1      34.134  11.188  20.982  1.00  0.00    -0.304 N
ATOM      2  H2  UNL     1      34.437  12.045  21.445  1.00  0.00     0.171 HD
HETATM    3  C7  UNL     1      34.688  10.926  19.740  1.00  0.00     0.223 C
HETATM    4  O1  UNL     1      34.467   9.945  18.998  1.00  0.00    -0.273 OA
ENDROOT
BRANCH   1   5
HETATM    5  C6  UNL     1      33.207  10.405  21.668  1.00  0.00     0.174 C
HETATM    6  S1  UNL     1      33.126  10.480  23.338  1.00  0.00    -0.041 SA
BRANCH   5   7
HETATM    7  N1  UNL     1      32.273   9.576  21.009  1.00  0.00    -0.366 N
ATOM      8  H1  UNL     1      31.528   9.999  20.456  1.00  0.00     0.161 HD
BRANCH   7   9
HETATM    9  C5  UNL     1      32.357   8.123  21.108  1.00  0.00     0.130 C
BRANCH   9  10
HETATM   10  C4  UNL     1      31.724   7.367  20.005  1.00  0.00     0.046 A
HETATM   11  C2  UNL     1      30.967   6.107  20.253  1.00  0.00     0.105 A
HETATM   12  C1  UNL     1      31.038   5.047  19.188  1.00  0.00     0.052 C
HETATM   13  F1  UNL     1      30.840   5.613  21.531  1.00  0.00    -0.243 F
HETATM   14  C3  UNL     1      30.253   7.358  19.873  1.00  0.00     0.053 A
ENDBRANCH   9  10
ENDBRANCH   7   9
ENDBRANCH   5   7
ENDBRANCH   1   5
BRANCH   3  15
HETATM   15  C8  UNL     1      35.671  11.916  19.191  1.00  0.00     0.103 C
BRANCH  15  16
HETATM   16  C9  UNL     1      35.007  12.913  18.271  1.00  0.00     0.009 C
BRANCH  16  17
HETATM   17  C10 UNL     1      36.141  13.923  17.921  1.00  0.00     0.000 C
BRANCH  17  18
HETATM   18  C11 UNL     1      36.577  13.694  16.524  1.00  0.00     0.000 C
BRANCH  18  19
HETATM   19  C12 UNL     1      35.626  13.241  15.509  1.00  0.00     0.004 C
BRANCH  19  20
HETATM   20  C13 UNL     1      35.929  12.167  14.558  1.00  0.00    -0.014 C
HETATM   21  C14 UNL     1      36.035  10.764  15.021  1.00  0.00     0.004 C
HETATM   22  C15 UNL     1      34.639  10.501  15.549  1.00  0.00     0.000 C
HETATM   23  C16 UNL     1      33.789  11.078  14.441  1.00  0.00     0.000 C
HETATM   24  C17 UNL     1      34.684  12.014  13.634  1.00  0.00     0.004 C
ENDBRANCH  19  20
ENDBRANCH  18  19
ENDBRANCH  17  18
ENDBRANCH  16  17
ENDBRANCH  15  16
ENDBRANCH   3  15
TORSDOF 10
ENDMDL