MODEL 4
REMARK VINA RESULT: -6.265897663      5.253      7.782
REMARK  7 active torsions:
REMARK  status: ('A' for Active; 'I' for Inactive)
REMARK       I    between atoms: C1_2  and  N3_9
REMARK    1  A    between atoms: N2_3  and  C2_5
REMARK    2  A    between atoms: C2_5  and  C3_6
REMARK    3  A    between atoms: N3_9  and  N4_11
REMARK    4  A    between atoms: C8_16  and  C9_17
REMARK    5  A    between atoms: C9_17  and  O1_18
REMARK    6  A    between atoms: O1_18  and  C10_19
REMARK    7  A    between atoms: C10_19  and  C11_20
ROOT
HETATM    1  N4  UNL     1      34.521  10.149  17.399  1.00  0.00    -0.307 N
ATOM      2  H4  UNL     1      33.781  10.714  17.815  1.00  0.00     0.186 HD
HETATM    3  C5  UNL     1      34.766  10.261  16.142  1.00  0.00     0.004 C
HETATM    4  C6  UNL     1      33.962  11.212  15.333  1.00  0.00     0.054 C
HETATM    5  C7  UNL     1      34.177  10.810  13.894  1.00  0.00     0.012 C
HETATM    6  C8  UNL     1      35.616  11.031  13.451  1.00  0.00     0.010 C
HETATM    7  C16 UNL     1      36.523  10.472  14.481  1.00  0.00     0.012 C
HETATM    8  C17 UNL     1      35.809   9.506  15.407  1.00  0.00     0.054 C
ENDROOT
BRANCH   1   9
HETATM    9  N3  UNL     1      35.246   9.270  18.211  1.00  0.00    -0.274 N
HETATM   10  C1  UNL     1      34.565   8.571  19.242  1.00  0.00     0.203 C
HETATM   11  N1  UNL     1      34.361   7.171  19.108  1.00  0.00    -0.062 NA
HETATM   12  N2  UNL     1      34.111   9.130  20.312  1.00  0.00    -0.360 N
ATOM     13  H2  UNL     1      33.636   8.535  20.991  1.00  0.00     0.162 HD
ATOM     14  H3  UNL     1      36.247   9.133  18.064  1.00  0.00     0.189 HD
BRANCH  12  15
HETATM   15  C2  UNL     1      34.226  10.524  20.613  1.00  0.00     0.151 C
BRANCH  15  16
HETATM   16  C3  UNL     1      33.425  10.943  21.780  1.00  0.00     0.022 C
HETATM   17  C4  UNL     1      33.088  10.127  22.765  1.00  0.00     0.186 C
HETATM   18  F1  UNL     1      32.350  10.607  23.795  1.00  0.00    -0.220 F
ENDBRANCH  15  16
ENDBRANCH  12  15
ENDBRANCH   1   9
BRANCH   6  19
HETATM   19  C9  UNL     1      35.757  12.480  13.143  1.00  0.00     0.172 C
BRANCH  19  20
HETATM   20  O1  UNL     1      36.536  13.275  13.879  1.00  0.00    -0.390 OA
BRANCH  20  21
HETATM   21  C10 UNL     1      36.067  14.070  14.860  1.00  0.00     0.172 C
BRANCH  21  22
HETATM   22  C11 UNL     1      36.897  13.969  16.143  1.00  0.00     0.009 C
HETATM   23  C12 UNL     1      37.308  15.320  16.631  1.00  0.00     0.007 C
HETATM   24  C13 UNL     1      36.753  15.455  18.035  1.00  0.00     0.000 C
HETATM   25  C14 UNL     1      35.570  14.510  18.007  1.00  0.00     0.000 C
HETATM   26  C15 UNL     1      36.147  13.314  17.250  1.00  0.00     0.007 C
ENDBRANCH  21  22
ENDBRANCH  20  21
ENDBRANCH  19  20
ENDBRANCH   6  19
TORSDOF 7
ENDMDL