MODEL 4
REMARK VINA RESULT: -5.570577849      2.575      4.548
REMARK  8 active torsions:
REMARK  status: ('A' for Active; 'I' for Inactive)
REMARK    1  A    between atoms: N1_6  and  C6_7
REMARK    2  A    between atoms: C6_7  and  C7_8
REMARK    3  A    between atoms: C7_8  and  C8_9
REMARK    4  A    between atoms: C8_9  and  N2_10
REMARK       I    between atoms: N2_10  and  C9_12
REMARK       I    between atoms: C9_12  and  N3_14
REMARK    5  A    between atoms: N3_14  and  C10_16
REMARK    6  A    between atoms: C10_16  and  C11_17
REMARK    7  A    between atoms: C11_17  and  C12_18
REMARK    8  A    between atoms: C12_18  and  C13_19
ROOT
HETATM    1  N2  UNL     1      36.967  13.539  12.773  1.00  0.00    -0.323 N
ATOM      2  H2  UNL     1      37.957  13.704  12.957  1.00  0.00     0.169 HD
HETATM    3  C9  UNL     1      36.153  13.653  13.893  1.00  0.00     0.319 C
HETATM    4  O1  UNL     1      34.899  13.539  13.951  1.00  0.00    -0.247 OA
HETATM    5  N3  UNL     1      36.773  13.935  15.171  1.00  0.00    -0.343 N
ATOM      6  H3  UNL     1      37.785  14.067  15.196  1.00  0.00     0.164 HD
ENDROOT
BRANCH   1   7
HETATM    7  C8  UNL     1      36.677  13.237  11.432  1.00  0.00     0.067 C
BRANCH   7   8
HETATM    8  C7  UNL     1      36.982  11.903  10.911  1.00  0.00     0.075 C
BRANCH   8   9
HETATM    9  C6  UNL     1      35.950  10.845  10.868  1.00  0.00     0.277 C
BRANCH   9  10
HETATM   10  N1  UNL     1      36.307   9.780  11.803  1.00  0.00     0.089 N
HETATM   11  C5  UNL     1      35.193   9.381  12.585  1.00  0.00     0.272 C
HETATM   12  C4  UNL     1      35.251  10.087  13.917  1.00  0.00     0.031 C
HETATM   13  C3  UNL     1      36.398   9.406  14.648  1.00  0.00     0.007 C
HETATM   14  C2  UNL     1      37.680   9.570  13.880  1.00  0.00     0.010 C
HETATM   15  C1  UNL     1      38.407   8.247  13.860  1.00  0.00     0.011 C
HETATM   16  C18 UNL     1      37.523  10.074  12.501  1.00  0.00     0.276 C
ENDBRANCH   9  10
ENDBRANCH   8   9
ENDBRANCH   7   8
ENDBRANCH   1   7
BRANCH   5  17
HETATM   17  C10 UNL     1      36.047  14.038  16.405  1.00  0.00     0.124 C
BRANCH  17  18
HETATM   18  C11 UNL     1      36.023  12.725  17.103  1.00  0.00     0.020 C
BRANCH  18  19
HETATM   19  C12 UNL     1      35.570  12.803  18.550  1.00  0.00     0.006 C
BRANCH  19  20
HETATM   20  C13 UNL     1      35.058  11.465  19.016  1.00  0.00    -0.014 C
HETATM   21  C14 UNL     1      34.898  10.539  17.837  1.00  0.00     0.004 C
HETATM   22  C15 UNL     1      34.912   9.165  18.477  1.00  0.00     0.000 C
HETATM   23  C16 UNL     1      35.425   9.319  19.875  1.00  0.00     0.000 C
HETATM   24  C17 UNL     1      36.023  10.729  19.898  1.00  0.00     0.004 C
ENDBRANCH  19  20
ENDBRANCH  18  19
ENDBRANCH  17  18
ENDBRANCH   5  17
TORSDOF 8
ENDMDL