MODEL 2
REMARK VINA RESULT: -5.607228390      2.139      3.874
REMARK  8 active torsions:
REMARK  status: ('A' for Active; 'I' for Inactive)
REMARK    1  A    between atoms: O1_2  and  C2_3
REMARK    2  A    between atoms: C2_3  and  C3_4
REMARK    3  A    between atoms: C3_4  and  O2_6
REMARK    4  A    between atoms: O2_6  and  C4_7
REMARK    5  A    between atoms: C4_7  and  C5_8
REMARK    6  A    between atoms: C5_8  and  C6_9
REMARK    7  A    between atoms: C6_9  and  N1_10
REMARK       I    between atoms: N1_10  and  C7_12
REMARK       I    between atoms: C7_12  and  N2_14
REMARK    8  A    between atoms: N2_14  and  C8_16
ROOT
HETATM    1  N1  UNL     1      37.016  13.985  16.393  1.00  0.00    -0.343 N
ATOM      2  H1  UNL     1      37.195  13.346  17.169  1.00  0.00     0.164 HD
HETATM    3  C7  UNL     1      36.587  13.463  15.149  1.00  0.00     0.316 C
HETATM    4  O3  UNL     1      36.381  14.282  14.220  1.00  0.00    -0.247 OA
HETATM    5  N2  UNL     1      36.398  12.062  14.969  1.00  0.00    -0.334 N
ATOM      6  H2  UNL     1      36.577  11.444  15.760  1.00  0.00     0.165 HD
ENDROOT
BRANCH   1   7
HETATM    7  C6  UNL     1      37.203  15.381  16.584  1.00  0.00     0.126 C
BRANCH   7   8
HETATM    8  C5  UNL     1      36.819  15.927  17.920  1.00  0.00     0.046 C
BRANCH   8   9
HETATM    9  C4  UNL     1      35.533  15.194  18.331  1.00  0.00     0.173 C
BRANCH   9  10
HETATM   10  O2  UNL     1      35.900  14.152  19.178  1.00  0.00    -0.355 OA
BRANCH  10  11
HETATM   11  C3  UNL     1      35.006  13.072  19.109  1.00  0.00     0.330 C
HETATM   12  F1  UNL     1      34.195  13.064  20.212  1.00  0.00    -0.217 F
BRANCH  11  13
HETATM   13  C2  UNL     1      35.722  11.778  18.894  1.00  0.00     0.232 C
BRANCH  13  14
HETATM   14  O1  UNL     1      35.480  11.272  17.653  1.00  0.00    -0.391 OA
HETATM   15  C1  UNL     1      34.801  10.076  17.645  1.00  0.00     0.201 C
ENDBRANCH  13  14
ENDBRANCH  11  13
ENDBRANCH  10  11
ENDBRANCH   9  10
ENDBRANCH   8   9
ENDBRANCH   7   8
ENDBRANCH   1   7
BRANCH   5  16
HETATM   16  C8  UNL     1      35.974  11.481  13.742  1.00  0.00     0.035 C
HETATM   17  C9  UNL     1      37.103  11.411  12.772  1.00  0.00     0.035 C
HETATM   18  C10 UNL     1      36.655  10.817  11.429  1.00  0.00    -0.012 C
HETATM   19  C11 UNL     1      36.236   9.405  11.702  1.00  0.00     0.009 C
HETATM   20  C15 UNL     1      35.568  11.680  10.878  1.00  0.00     0.009 C
HETATM   21  C12 UNL     1      35.083   9.446  12.685  1.00  0.00    -0.012 C
HETATM   22  C13 UNL     1      33.944  10.182  12.059  1.00  0.00     0.009 C
HETATM   23  C17 UNL     1      35.521  10.035  13.989  1.00  0.00     0.035 C
HETATM   24  C14 UNL     1      34.387  11.622  11.840  1.00  0.00    -0.012 C
HETATM   25  C16 UNL     1      34.755  12.187  13.182  1.00  0.00     0.035 C
ENDBRANCH   5  16
TORSDOF 8
ENDMDL