MODEL 1
REMARK VINA RESULT: -5.791776466      0.000      0.000
REMARK  8 active torsions:
REMARK  status: ('A' for Active; 'I' for Inactive)
REMARK    1  A    between atoms: C1_2  and  C2_4
REMARK    2  A    between atoms: C2_4  and  C3_5
REMARK    3  A    between atoms: C3_5  and  C4_6
REMARK    4  A    between atoms: C4_6  and  C5_7
REMARK    5  A    between atoms: C5_7  and  C6_8
REMARK    6  A    between atoms: C6_8  and  C7_9
REMARK    7  A    between atoms: C7_9  and  C8_10
REMARK       I    between atoms: C8_10  and  N1_12
REMARK    8  A    between atoms: N1_12  and  C9_14
ROOT
HETATM    1  C8  UNL     1      35.669   8.615  16.852  1.00  0.00     0.217 C
HETATM    2  O3  UNL     1      36.123   7.704  16.137  1.00  0.00    -0.274 OA
HETATM    3  N1  UNL     1      35.268   9.834  16.261  1.00  0.00    -0.356 N
ATOM      4  H1  UNL     1      34.900  10.563  16.872  1.00  0.00     0.162 HD
ENDROOT
BRANCH   3   5
HETATM    5  C9  UNL     1      35.347  10.107  14.857  1.00  0.00     0.092 C
HETATM    6  C10 UNL     1      34.121  10.885  14.441  1.00  0.00     0.009 C
HETATM    7  C11 UNL     1      34.057  10.922  12.918  1.00  0.00     0.011 C
HETATM    8  C15 UNL     1      34.174  12.256  15.024  1.00  0.00     0.011 C
HETATM    9  C12 UNL     1      35.282  11.614  12.415  1.00  0.00    -0.013 C
HETATM   10  C13 UNL     1      35.235  13.045  12.922  1.00  0.00     0.009 C
HETATM   11  C18 UNL     1      36.509  10.897  12.887  1.00  0.00     0.011 C
HETATM   12  C14 UNL     1      35.341  13.002  14.422  1.00  0.00    -0.013 C
HETATM   13  C16 UNL     1      36.594  12.295  14.860  1.00  0.00     0.011 C
HETATM   14  C17 UNL     1      36.553  10.863  14.421  1.00  0.00     0.009 C
ENDBRANCH   3   5
BRANCH   1  15
HETATM   15  C7  UNL     1      35.552   8.422  18.305  1.00  0.00     0.103 C
BRANCH  15  16
HETATM   16  C6  UNL     1      34.651   9.511  18.925  1.00  0.00     0.009 C
BRANCH  16  17
HETATM   17  C5  UNL     1      35.505  10.585  19.540  1.00  0.00     0.000 C
BRANCH  17  18
HETATM   18  C4  UNL     1      34.945  11.936  19.216  1.00  0.00     0.001 C
BRANCH  18  19
HETATM   19  C3  UNL     1      35.927  12.750  18.465  1.00  0.00     0.010 C
BRANCH  19  20
HETATM   20  C2  UNL     1      35.406  14.091  18.015  1.00  0.00     0.113 C
BRANCH  20  21
HETATM   21  C1  UNL     1      36.383  15.157  17.901  1.00  0.00     0.172 C
HETATM   22  O1  UNL     1      36.283  16.116  18.725  1.00  0.00    -0.648 OA
HETATM   23  O2  UNL     1      37.424  15.261  16.996  1.00  0.00    -0.648 OA
ENDBRANCH  20  21
ENDBRANCH  19  20
ENDBRANCH  18  19
ENDBRANCH  17  18
ENDBRANCH  16  17
ENDBRANCH  15  16
ENDBRANCH   1  15
TORSDOF 8
ENDMDL