MODEL 1
REMARK VINA RESULT: -9.728676967      0.000      0.000
REMARK  9 active torsions:
REMARK  status: ('A' for Active; 'I' for Inactive)
REMARK    1  A    between atoms: N1_6  and  C6_7
REMARK    2  A    between atoms: C9_10  and  N2_11
REMARK    3  A    between atoms: N2_11  and  C10_13
REMARK    4  A    between atoms: C13_16  and  C14_17
REMARK    5  A    between atoms: C14_17  and  N4_21
REMARK    6  A    between atoms: N4_21  and  C15_23
REMARK    7  A    between atoms: C17_28  and  C18_29
REMARK    8  A    between atoms: C19_30  and  C20_31
REMARK    9  A    between atoms: C20_31  and  O2_33
ROOT
HETATM    1  C10 UNL     1      62.737  23.400   9.965  1.00  0.00     0.033 A
HETATM    2  C11 UNL     1      63.607  24.247   9.312  1.00  0.00     0.030 A
HETATM    3  C12 UNL     1      63.190  24.950   8.203  1.00  0.00     0.017 A
HETATM    4  C13 UNL     1      61.900  24.817   7.728  1.00  0.00     0.008 A
HETATM    5  C22 UNL     1      61.040  23.964   8.394  1.00  0.00     0.017 A
HETATM    6  C23 UNL     1      61.443  23.249   9.512  1.00  0.00     0.030 A
ENDROOT
BRANCH   1   7
HETATM    7  N2  UNL     1      63.185  22.685  11.107  1.00  0.00    -0.341 N
ATOM      8  H2  UNL     1      63.580  21.752  10.983  1.00  0.00     0.167 HD
BRANCH   7   9
HETATM    9  C9  UNL     1      63.108  23.179  12.294  1.00  0.00     0.120 A
HETATM   10  C8  UNL     1      62.588  24.441  12.438  1.00  0.00     0.054 A
HETATM   11  C7  UNL     1      62.520  24.939  13.728  1.00  0.00     0.055 A
HETATM   12  C6  UNL     1      62.962  24.187  14.811  1.00  0.00     0.141 A
HETATM   13  N7  UNL     1      63.457  22.959  14.582  1.00  0.00    -0.282 N
HETATM   14  N6  UNL     1      63.534  22.453  13.346  1.00  0.00    -0.284 N
ATOM     15  H7  UNL     1      63.784  22.400  15.370  1.00  0.00     0.188 HD
ATOM     16  H6  UNL     1      63.915  21.519  13.201  1.00  0.00     0.188 HD
BRANCH  12  17
HETATM   17  N1  UNL     1      62.885  24.714  16.129  1.00  0.00    -0.243 N
HETATM   18  C4  UNL     1      63.907  25.239  16.838  1.00  0.00     0.034 A
HETATM   19  C3  UNL     1      63.467  25.651  18.075  1.00  0.00     0.052 A
HETATM   20  C5  UNL     1      65.315  25.352  16.342  1.00  0.00     0.070 C
HETATM   21  C2  UNL     1      62.120  25.357  18.099  1.00  0.00     0.024 A
HETATM   22  C1  UNL     1      61.189  25.622  19.249  1.00  0.00     0.070 C
HETATM   23  N8  UNL     1      61.825  24.801  16.919  1.00  0.00    -0.297 N
ATOM     24  H8  UNL     1      60.893  24.481  16.658  1.00  0.00     0.187 HD
ENDBRANCH  12  17
ENDBRANCH   7   9
ENDBRANCH   1   7
BRANCH   4  25
HETATM   25  C14 UNL     1      61.441  25.552   6.557  1.00  0.00     0.111 C
HETATM   26  N3  UNL     1      62.169  26.492   6.060  1.00  0.00    -0.385 N
ATOM     27  H32 UNL     1      63.067  26.723   6.485  1.00  0.00     0.157 HD
ATOM     28  H31 UNL     1      61.847  27.006   5.240  1.00  0.00     0.157 HD
BRANCH  25  29
HETATM   29  N4  UNL     1      60.198  25.232   5.969  1.00  0.00    -0.320 N
ATOM     30  H4  UNL     1      60.060  24.277   5.638  1.00  0.00     0.169 HD
BRANCH  29  31
HETATM   31  C15 UNL     1      59.233  26.062   5.823  1.00  0.00     0.192 A
HETATM   32  O1  UNL     1      59.198  27.202   5.158  1.00  0.00    -0.218 OA
HETATM   33  N5  UNL     1      58.041  27.763   5.242  1.00  0.00    -0.269 N
HETATM   34  C16 UNL     1      57.233  27.002   5.983  1.00  0.00     0.139 A
ATOM     35  H5  UNL     1      57.782  28.650   4.809  1.00  0.00     0.194 HD
HETATM   36  C17 UNL     1      57.977  25.914   6.360  1.00  0.00     0.088 A
BRANCH  36  37
HETATM   37  C18 UNL     1      57.572  24.789   7.174  1.00  0.00    -0.058 C
HETATM   38  C19 UNL     1      57.225  23.858   7.869  1.00  0.00    -0.069 C
BRANCH  38  39
HETATM   39  C20 UNL     1      56.786  22.746   8.711  1.00  0.00     0.193 C
HETATM   40  C21 UNL     1      57.884  22.295   9.652  1.00  0.00     0.053 C
BRANCH  39  41
HETATM   41  O2  UNL     1      55.697  23.209   9.451  1.00  0.00    -0.384 OA
ATOM     42  H2  UNL     1      54.932  22.746   9.132  1.00  0.00     0.211 HD
ENDBRANCH  39  41
ENDBRANCH  38  39
ENDBRANCH  36  37
ENDBRANCH  29  31
ENDBRANCH  25  29
ENDBRANCH   4  25
TORSDOF 9
ENDMDL