MODEL 3
REMARK VINA RESULT: -8.850635430      2.941      3.661
REMARK  6 active torsions:
REMARK  status: ('A' for Active; 'I' for Inactive)
REMARK    1  A    between atoms: C3_3  and  C4_4
REMARK    2  A    between atoms: C4_4  and  C5_5
REMARK    3  A    between atoms: C6_6  and  O1_7
REMARK    4  A    between atoms: C8_15  and  N3_16
REMARK    5  A    between atoms: N4_22  and  C12_23
REMARK    6  A    between atoms: C14_25  and  C15_26
ROOT
HETATM    1  C1  UNL     1      58.894  24.066  14.773  1.00  0.00     0.044 C
HETATM    2  C2  UNL     1      59.632  24.806  15.563  1.00  0.00     0.040 A
HETATM    3  C3  UNL     1      59.215  25.605  16.600  1.00  0.00    -0.007 A
HETATM    4  C9  UNL     1      60.399  26.179  17.121  1.00  0.00     0.039 A
HETATM    5  C10 UNL     1      61.431  25.703  16.386  1.00  0.00     0.014 A
HETATM    6  C11 UNL     1      62.908  26.038  16.572  1.00  0.00     0.068 C
HETATM    7  N4  UNL     1      61.003  24.874  15.439  1.00  0.00    -0.315 N
ENDROOT
BRANCH   7   8
HETATM    8  C12 UNL     1      61.814  24.186  14.480  1.00  0.00     0.046 A
HETATM    9  C13 UNL     1      61.840  24.534  13.145  1.00  0.00     0.043 A
HETATM   10  C14 UNL     1      62.633  23.853  12.241  1.00  0.00    -0.018 A
HETATM   11  C21 UNL     1      63.394  22.810  12.736  1.00  0.00     0.013 A
HETATM   12  C22 UNL     1      63.386  22.440  14.067  1.00  0.00     0.010 A
HETATM   13  C23 UNL     1      62.582  23.143  14.944  1.00  0.00    -0.035 A
HETATM   14  C24 UNL     1      62.537  22.787  16.385  1.00  0.00     0.050 C
BRANCH  10  15
HETATM   15  C15 UNL     1      62.656  24.229  10.832  1.00  0.00     0.037 A
HETATM   16  C16 UNL     1      63.747  24.578  10.062  1.00  0.00     0.123 A
HETATM   17  N5  UNL     1      63.302  24.848   8.816  1.00  0.00    -0.303 N
HETATM   18  N6  UNL     1      61.989  24.687   8.759  1.00  0.00    -0.251 N
ATOM     19  H5  UNL     1      63.891  25.134   8.033  1.00  0.00     0.186 HD
HETATM   20  C17 UNL     1      61.109  24.836   7.752  1.00  0.00     0.119 A
HETATM   21  C20 UNL     1      61.565  24.305   9.991  1.00  0.00     0.139 A
HETATM   22  C18 UNL     1      59.769  24.588   8.015  1.00  0.00     0.036 A
HETATM   23  C19 UNL     1      59.338  24.200   9.265  1.00  0.00     0.091 A
HETATM   24  N7  UNL     1      60.263  24.065  10.246  1.00  0.00    -0.350 N
ATOM     25  H7  UNL     1      59.973  23.779  11.181  1.00  0.00     0.166 HD
ENDBRANCH  10  15
ENDBRANCH   7   8
BRANCH   3  26
HETATM   26  C4  UNL     1      58.028  25.868  17.099  1.00  0.00     0.033 C
BRANCH  26  27
HETATM   27  C5  UNL     1      57.264  27.076  17.110  1.00  0.00     0.059 A
HETATM   28  C6  UNL     1      56.662  27.537  15.928  1.00  0.00     0.158 A
HETATM   29  N1  UNL     1      55.916  28.651  15.954  1.00  0.00    -0.288 N
HETATM   30  C7  UNL     1      55.751  29.318  17.116  1.00  0.00     0.327 A
ATOM     31  H1  UNL     1      55.476  28.993  15.100  1.00  0.00     0.172 HD
HETATM   32  O2  UNL     1      55.039  30.357  17.074  1.00  0.00    -0.247 OA
HETATM   33  N2  UNL     1      56.321  28.890  18.263  1.00  0.00    -0.294 N
HETATM   34  C8  UNL     1      57.080  27.783  18.307  1.00  0.00     0.117 A
ATOM     35  H2  UNL     1      56.170  29.423  19.120  1.00  0.00     0.172 HD
BRANCH  28  36
HETATM   36  O1  UNL     1      56.811  26.877  14.719  1.00  0.00    -0.345 OA
ATOM     37  H1  UNL     1      56.798  25.929  14.657  1.00  0.00     0.219 HD
ENDBRANCH  28  36
BRANCH  34  38
HETATM   38  N3  UNL     1      57.601  27.414  19.415  1.00  0.00    -0.385 N
ATOM     39  H32 UNL     1      57.879  26.442  19.544  1.00  0.00     0.157 HD
ATOM     40  H31 UNL     1      57.754  28.056  20.193  1.00  0.00     0.157 HD
ENDBRANCH  34  38
ENDBRANCH  26  27
ENDBRANCH   3  26
TORSDOF 6
ENDMDL