MODEL 4
REMARK VINA RESULT: -8.767056193      2.675     10.623
REMARK  6 active torsions:
REMARK  status: ('A' for Active; 'I' for Inactive)
REMARK    1  A    between atoms: N1_2  and  C2_4
REMARK    2  A    between atoms: C5_9  and  N3_10
REMARK    3  A    between atoms: N3_10  and  C6_11
REMARK    4  A    between atoms: C8_13  and  N4_14
REMARK       I    between atoms: N4_14  and  C9_16
REMARK    5  A    between atoms: C9_16  and  C10_18
REMARK    6  A    between atoms: C12_22  and  N6_23
ROOT
HETATM    1  C2  UNL     1      61.779  25.108  17.885  1.00  0.00     0.116 A
HETATM    2  C3  UNL     1      62.665  24.964  16.837  1.00  0.00     0.136 A
HETATM    3  N2  UNL     1      62.177  24.648  15.625  1.00  0.00    -0.357 N
ATOM      4  H2  UNL     1      62.838  24.544  14.855  1.00  0.00     0.165 HD
HETATM    5  C4  UNL     1      60.872  24.462  15.366  1.00  0.00     0.119 A
HETATM    6  C5  UNL     1      60.434  24.133  14.071  1.00  0.00     0.208 A
HETATM    7  N8  UNL     1      59.108  23.966  13.916  1.00  0.00    -0.338 N
ATOM      8  H8  UNL     1      58.740  23.726  12.995  1.00  0.00     0.168 HD
HETATM    9  C19 UNL     1      58.264  24.107  14.935  1.00  0.00     0.116 A
HETATM   10  C20 UNL     1      58.678  24.428  16.198  1.00  0.00     0.089 A
HETATM   11  C21 UNL     1      57.772  24.577  17.290  1.00  0.00     0.103 C
HETATM   12  N9  UNL     1      57.056  24.709  18.176  1.00  0.00    -0.191 NA
HETATM   13  C22 UNL     1      60.013  24.610  16.429  1.00  0.00     0.088 A
HETATM   14  N10 UNL     1      60.466  24.926  17.664  1.00  0.00    -0.338 N
ATOM     15  H10 UNL     1      59.805  25.028  18.434  1.00  0.00     0.167 HD
ENDROOT
BRANCH   6  16
HETATM   16  N3  UNL     1      61.189  24.009  13.157  1.00  0.00    -0.385 NA
BRANCH  16  17
HETATM   17  C6  UNL     1      61.960  23.834  12.111  1.00  0.00     0.117 A
HETATM   18  C7  UNL     1      61.538  24.202  10.806  1.00  0.00     0.074 A
HETATM   19  C8  UNL     1      62.290  24.050   9.685  1.00  0.00     0.038 A
HETATM   20  C15 UNL     1      63.565  23.487   9.868  1.00  0.00     0.030 A
HETATM   21  C16 UNL     1      64.016  23.118  11.112  1.00  0.00     0.012 A
HETATM   22  C17 UNL     1      63.246  23.277  12.234  1.00  0.00    -0.021 A
HETATM   23  C18 UNL     1      63.694  22.900  13.572  1.00  0.00     0.052 C
BRANCH  19  24
HETATM   24  N4  UNL     1      61.920  24.423   8.367  1.00  0.00    -0.323 N
HETATM   25  C9  UNL     1      62.563  25.299   7.489  1.00  0.00     0.258 C
HETATM   26  O1  UNL     1      63.610  25.895   7.781  1.00  0.00    -0.267 OA
ATOM     27  H4  UNL     1      61.067  23.992   8.011  1.00  0.00     0.169 HD
BRANCH  25  28
HETATM   28  C10 UNL     1      62.045  25.584   6.136  1.00  0.00     0.064 A
HETATM   29  C11 UNL     1      62.831  25.321   5.008  1.00  0.00     0.124 A
HETATM   30  N5  UNL     1      62.316  25.604   3.823  1.00  0.00    -0.201 N
HETATM   31  C12 UNL     1      61.096  26.125   3.602  1.00  0.00     0.677 A
ATOM     32  H5  UNL     1      62.894  25.411   3.005  1.00  0.00     0.183 HD
HETATM   33  N7  UNL     1      60.337  26.379   4.718  1.00  0.00    -0.201 N
HETATM   34  C14 UNL     1      60.810  26.111   5.935  1.00  0.00     0.124 A
ATOM     35  H7  UNL     1      59.403  26.777   4.615  1.00  0.00     0.183 HD
BRANCH  31  36
HETATM   36  N6  UNL     1      60.608  26.395   2.473  1.00  0.00    -0.230 N
HETATM   37  C13 UNL     1      61.211  25.939   1.258  1.00  0.00     0.165 C
ATOM     38  H6  UNL     1      59.756  26.954   2.423  1.00  0.00     0.177 HD
ENDBRANCH  31  36
ENDBRANCH  25  28
ENDBRANCH  19  24
ENDBRANCH  16  17
ENDBRANCH   6  16
BRANCH   1  39
HETATM   39  N1  UNL     1      62.247  25.412  19.048  1.00  0.00    -0.380 N
HETATM   40  C1  UNL     1      63.401  24.755  19.593  1.00  0.00     0.147 C
ATOM     41  H1  UNL     1      61.785  26.139  19.594  1.00  0.00     0.160 HD
ENDBRANCH   1  39
TORSDOF 6
ENDMDL