MODEL 2
REMARK VINA RESULT: -10.163260105      0.760      1.019
REMARK  6 active torsions:
REMARK  status: ('A' for Active; 'I' for Inactive)
REMARK       I    between atoms: N1_2  and  C3_4
REMARK    1  A    between atoms: C3_4  and  C4_6
REMARK    2  A    between atoms: C5_7  and  C6_8
REMARK    3  A    between atoms: C7_9  and  C8_10
REMARK    4  A    between atoms: C11_13  and  N2_14
REMARK       I    between atoms: N2_14  and  C12_16
REMARK    5  A    between atoms: C12_16  and  C13_18
REMARK    6  A    between atoms: C20_30  and  N6_31
ROOT
HETATM    1  C13 UNL     1      62.388  25.207   5.526  1.00  0.00     0.175 A
HETATM    2  N3  UNL     1      63.232  25.735   4.614  1.00  0.00    -0.328 N
ATOM      3  H3  UNL     1      64.073  26.266   4.839  1.00  0.00     0.168 HD
HETATM    4  C14 UNL     1      62.809  25.466   3.380  1.00  0.00     0.131 A
HETATM    5  C15 UNL     1      63.386  25.826   2.114  1.00  0.00     0.119 C
HETATM    6  N4  UNL     1      63.845  26.110   1.089  1.00  0.00    -0.190 NA
HETATM    7  C16 UNL     1      61.655  24.740   3.492  1.00  0.00     0.131 A
HETATM    8  N5  UNL     1      61.427  24.600   4.813  1.00  0.00    -0.345 N
ATOM      9  H5  UNL     1      60.634  24.101   5.216  1.00  0.00     0.167 HD
ENDROOT
BRANCH   1  10
HETATM   10  C12 UNL     1      62.505  25.284   6.996  1.00  0.00     0.290 C
HETATM   11  N2  UNL     1      61.714  24.475   7.791  1.00  0.00    -0.320 N
ATOM     12  H2  UNL     1      61.080  23.858   7.283  1.00  0.00     0.169 HD
HETATM   13  O2  UNL     1      63.337  26.097   7.441  1.00  0.00    -0.264 OA
BRANCH  11  14
HETATM   14  C11 UNL     1      61.648  24.369   9.193  1.00  0.00     0.035 A
HETATM   15  C10 UNL     1      60.490  23.870   9.815  1.00  0.00     0.030 A
HETATM   16  C9  UNL     1      60.399  23.751  11.181  1.00  0.00     0.014 A
HETATM   17  C8  UNL     1      61.424  24.109  12.011  1.00  0.00    -0.022 A
HETATM   18  C18 UNL     1      62.567  24.600  11.438  1.00  0.00     0.014 A
HETATM   19  C17 UNL     1      62.666  24.724  10.039  1.00  0.00     0.030 A
BRANCH  17  20
HETATM   20  C7  UNL     1      61.362  23.996  13.461  1.00  0.00     0.028 A
HETATM   21  C6  UNL     1      60.340  24.517  14.224  1.00  0.00     0.103 A
HETATM   22  N9  UNL     1      60.646  24.204  15.509  1.00  0.00    -0.329 N
HETATM   23  C22 UNL     1      61.804  23.520  15.557  1.00  0.00     0.124 A
HETATM   24  C23 UNL     1      59.832  24.562  16.666  1.00  0.00     0.159 C
HETATM   25  C19 UNL     1      62.290  23.367  14.264  1.00  0.00     0.066 A
HETATM   26  N8  UNL     1      62.560  22.973  16.539  1.00  0.00    -0.338 N
HETATM   27  C20 UNL     1      63.469  22.702  14.003  1.00  0.00     0.114 A
HETATM   28  N7  UNL     1      64.193  22.170  15.030  1.00  0.00    -0.338 N
HETATM   29  C21 UNL     1      63.714  22.321  16.279  1.00  0.00     0.183 A
ATOM     30  H7  UNL     1      65.067  21.673  14.857  1.00  0.00     0.168 HD
ATOM     31  H8  UNL     1      62.248  23.057  17.507  1.00  0.00     0.168 HD
BRANCH  21  32
HETATM   32  C5  UNL     1      59.202  25.239  13.727  1.00  0.00    -0.037 C
HETATM   33  C4  UNL     1      58.229  25.837  13.320  1.00  0.00     0.002 C
BRANCH  33  34
HETATM   34  C3  UNL     1      57.057  26.538  12.853  1.00  0.00     0.298 C
HETATM   35  N1  UNL     1      56.273  27.335  13.704  1.00  0.00    -0.350 N
HETATM   36  C1  UNL     1      55.114  28.015  13.200  1.00  0.00     0.153 C
HETATM   37  C2  UNL     1      56.634  27.471  15.088  1.00  0.00     0.153 C
HETATM   38  O1  UNL     1      56.744  26.416  11.642  1.00  0.00    -0.258 OA
ENDBRANCH  33  34
ENDBRANCH  21  32
BRANCH  27  39
HETATM   39  N6  UNL     1      63.888  22.582  12.796  1.00  0.00    -0.385 N
ATOM     40  H62 UNL     1      63.464  21.891  12.178  1.00  0.00     0.157 HD
ATOM     41  H61 UNL     1      64.642  23.178  12.454  1.00  0.00     0.157 HD
ENDBRANCH  27  39
ENDBRANCH  17  20
ENDBRANCH  11  14
ENDBRANCH   1  10
TORSDOF 6
ENDMDL