MODEL 1
REMARK VINA RESULT: -9.416132688      0.000      0.000
REMARK  4 active torsions:
REMARK  status: ('A' for Active; 'I' for Inactive)
REMARK    1  A    between atoms: N1_6  and  C6_7
REMARK    2  A    between atoms: C11_15  and  C12_16
REMARK    3  A    between atoms: C14_23  and  C15_24
REMARK       I    between atoms: C15_24  and  N5_26
REMARK    4  A    between atoms: N5_26  and  C16_28
ROOT
HETATM    1  C16 UNL     1      57.652  21.586   9.694  1.00  0.00     0.145 A
HETATM    2  N6  UNL     1      56.390  22.048   9.637  1.00  0.00    -0.284 N
ATOM      3  H6  UNL     1      56.111  23.017   9.794  1.00  0.00     0.188 HD
HETATM    4  N7  UNL     1      55.556  21.049   9.345  1.00  0.00    -0.302 N
ATOM      5  H7  UNL     1      54.544  21.133   9.245  1.00  0.00     0.186 HD
HETATM    6  C17 UNL     1      56.258  19.918   9.206  1.00  0.00     0.046 A
HETATM    7  C18 UNL     1      55.764  18.551   8.880  1.00  0.00     0.071 C
HETATM    8  C19 UNL     1      57.578  20.250   9.423  1.00  0.00     0.113 A
HETATM    9  C20 UNL     1      58.694  19.330   9.373  1.00  0.00     0.105 C
HETATM   10  N8  UNL     1      59.576  18.581   9.326  1.00  0.00    -0.191 NA
ENDROOT
BRANCH   1  11
HETATM   11  N5  UNL     1      58.740  22.261   9.952  1.00  0.00    -0.305 N
HETATM   12  C15 UNL     1      58.810  23.659   9.749  1.00  0.00     0.275 C
HETATM   13  O3  UNL     1      58.007  24.374  10.393  1.00  0.00    -0.266 OA
ATOM     14  H5  UNL     1      59.559  21.768  10.310  1.00  0.00     0.170 HD
BRANCH  12  15
HETATM   15  C14 UNL     1      59.775  24.217   8.831  1.00  0.00     0.131 A
HETATM   16  C2  UNL     1      59.509  24.619   7.532  1.00  0.00    -0.027 A
HETATM   17  C1  UNL     1      58.215  24.571   6.811  1.00  0.00     0.050 C
HETATM   18  C3  UNL     1      60.693  25.077   7.034  1.00  0.00     0.035 A
HETATM   19  C4  UNL     1      61.621  24.946   8.014  1.00  0.00     0.031 A
HETATM   20  C5  UNL     1      63.066  25.315   7.938  1.00  0.00     0.069 C
HETATM   21  N1  UNL     1      61.077  24.420   9.125  1.00  0.00    -0.145 N
BRANCH  21  22
HETATM   22  C6  UNL     1      61.724  24.128  10.366  1.00  0.00     0.693 A
HETATM   23  N2  UNL     1      62.980  23.695  10.446  1.00  0.00    -0.155 N
HETATM   24  C7  UNL     1      63.644  23.403  11.581  1.00  0.00     0.273 A
ATOM     25  H2  UNL     1      63.486  23.574   9.568  1.00  0.00     0.187 HD
HETATM   26  O1  UNL     1      64.836  23.003  11.476  1.00  0.00    -0.267 OA
HETATM   27  C8  UNL     1      63.002  23.549  12.826  1.00  0.00     0.074 A
HETATM   28  C9  UNL     1      63.482  23.314  14.058  1.00  0.00    -0.021 A
HETATM   29  C13 UNL     1      61.709  23.996  12.725  1.00  0.00     0.107 A
HETATM   30  C10 UNL     1      64.872  22.824  14.424  1.00  0.00     0.051 C
HETATM   31  C11 UNL     1      62.630  23.543  15.114  1.00  0.00     0.079 A
HETATM   32  S1  UNL     1      61.204  24.072  14.364  1.00  0.00    -0.065 SA
HETATM   33  N4  UNL     1      61.091  24.276  11.537  1.00  0.00    -0.184 N
ATOM     34  H4  UNL     1      60.126  24.604  11.543  1.00  0.00     0.185 HD
BRANCH  31  35
HETATM   35  C12 UNL     1      62.813  23.394  16.555  1.00  0.00     0.272 C
HETATM   36  N3  UNL     1      62.475  22.249  17.286  1.00  0.00    -0.057 NA
HETATM   37  O2  UNL     1      63.313  24.353  17.241  1.00  0.00    -0.270 OA
ENDBRANCH  31  35
ENDBRANCH  21  22
ENDBRANCH  12  15
ENDBRANCH   1  11
TORSDOF 4
ENDMDL