MODEL 2
REMARK VINA RESULT: -8.358931097      3.238      6.360
REMARK  8 active torsions:
REMARK  status: ('A' for Active; 'I' for Inactive)
REMARK    1  A    between atoms: C2_2  and  N1_3
REMARK    2  A    between atoms: C7_12  and  C8_13
REMARK    3  A    between atoms: C9_14  and  C10_15
REMARK    4  A    between atoms: C13_18  and  N4_19
REMARK    5  A    between atoms: C15_25  and  C16_26
REMARK    6  A    between atoms: C19_29  and  S1_30
REMARK    7  A    between atoms: S1_30  and  N6_33
REMARK    8  A    between atoms: N6_33  and  N7_35
ROOT
HETATM    1  N1  UNL     1      57.213  26.454  17.323  1.00  0.00    -0.341 N
HETATM    2  C3  UNL     1      56.188  27.341  17.241  1.00  0.00     0.185 C
HETATM    3  N2  UNL     1      55.603  27.890  16.134  1.00  0.00    -0.338 N
ATOM      4  H2  UNL     1      54.756  28.430  16.306  1.00  0.00     0.168 HD
HETATM    5  C4  UNL     1      55.989  27.814  14.863  1.00  0.00     0.119 A
HETATM    6  N3  UNL     1      55.657  28.255  13.646  1.00  0.00    -0.351 N
ATOM      7  H3  UNL     1      54.914  28.856  13.289  1.00  0.00     0.166 HD
HETATM    8  C5  UNL     1      56.677  27.602  13.080  1.00  0.00     0.106 A
HETATM    9  C6  UNL     1      57.009  27.154  14.340  1.00  0.00     0.044 A
HETATM   10  C7  UNL     1      57.957  26.358  14.966  1.00  0.00     0.061 C
HETATM   11  C15 UNL     1      58.049  26.139  16.323  1.00  0.00     0.065 C
ENDROOT
BRANCH  11  12
HETATM   12  C16 UNL     1      59.269  25.452  16.730  1.00  0.00    -0.008 A
HETATM   13  C17 UNL     1      60.441  26.099  17.061  1.00  0.00     0.015 A
HETATM   14  C18 UNL     1      61.565  25.374  17.436  1.00  0.00     0.023 A
HETATM   15  C19 UNL     1      61.559  23.994  17.495  1.00  0.00     0.039 A
HETATM   16  C22 UNL     1      60.404  23.338  17.171  1.00  0.00     0.023 A
HETATM   17  C23 UNL     1      59.294  24.064  16.800  1.00  0.00     0.015 A
BRANCH  15  18
HETATM   18  S1  UNL     1      63.024  23.198  17.979  1.00  0.00     0.066 S
HETATM   19  C20 UNL     1      62.727  21.446  18.187  1.00  0.00     0.143 C
HETATM   20  O1  UNL     1      63.563  23.715  19.279  1.00  0.00    -0.244 OA
BRANCH  18  21
HETATM   21  N6  UNL     1      64.166  23.345  16.917  1.00  0.00    -0.255 N
ATOM     22  H6  UNL     1      64.287  22.670  16.162  1.00  0.00     0.197 HD
BRANCH  21  23
HETATM   23  N7  UNL     1      65.014  24.452  17.058  1.00  0.00    -0.291 N
HETATM   24  C21 UNL     1      65.635  24.986  16.061  1.00  0.00     0.207 C
HETATM   25  N8  UNL     1      66.466  26.107  16.334  1.00  0.00    -0.095 NA
ATOM     26  H7  UNL     1      65.147  24.852  17.987  1.00  0.00     0.188 HD
ENDBRANCH  21  23
ENDBRANCH  18  21
ENDBRANCH  15  18
ENDBRANCH  11  12
BRANCH   1  27
HETATM   27  C2  UNL     1      57.393  25.814  18.604  1.00  0.00     0.125 C
HETATM   28  C1  UNL     1      57.377  26.875  19.686  1.00  0.00     0.027 C
ENDBRANCH   1  27
BRANCH  10  29
HETATM   29  C8  UNL     1      58.946  25.686  14.185  1.00  0.00    -0.058 C
HETATM   30  C9  UNL     1      59.794  25.136  13.527  1.00  0.00    -0.060 C
BRANCH  30  31
HETATM   31  C10 UNL     1      60.811  24.503  12.734  1.00  0.00     0.033 A
HETATM   32  C11 UNL     1      62.130  24.390  13.142  1.00  0.00     0.026 A
HETATM   33  C12 UNL     1      63.090  23.779  12.365  1.00  0.00     0.049 A
HETATM   34  C13 UNL     1      62.742  23.258  11.139  1.00  0.00     0.098 A
HETATM   35  N5  UNL     1      61.472  23.365  10.743  1.00  0.00    -0.351 N
HETATM   36  C14 UNL     1      60.529  23.960  11.495  1.00  0.00     0.110 A
ATOM     37  H5  UNL     1      61.206  22.982   9.836  1.00  0.00     0.166 HD
BRANCH  34  38
HETATM   38  N4  UNL     1      63.635  22.669  10.376  1.00  0.00    -0.385 N
ATOM     39  H42 UNL     1      64.388  22.117  10.786  1.00  0.00     0.157 HD
ATOM     40  H41 UNL     1      63.595  22.752   9.360  1.00  0.00     0.157 HD
ENDBRANCH  34  38
ENDBRANCH  30  31
ENDBRANCH  10  29
TORSDOF 8
ENDMDL