MODEL 5
REMARK VINA RESULT: -9.373820619      3.087      9.182
REMARK  6 active torsions:
REMARK  status: ('A' for Active; 'I' for Inactive)
REMARK    1  A    between atoms: C4_6  and  N2_7
REMARK    2  A    between atoms: N2_7  and  C5_9
REMARK    3  A    between atoms: C10_14  and  O1_15
REMARK    4  A    between atoms: C12_20  and  N4_21
REMARK    5  A    between atoms: N4_21  and  S1_23
REMARK    6  A    between atoms: S1_23  and  C13_26
ROOT
HETATM    1  C1  UNL     1      65.537  24.626  15.773  1.00  0.00     0.052 C
HETATM    2  C2  UNL     1      64.071  24.376  15.791  1.00  0.00    -0.017 A
HETATM    3  C3  UNL     1      63.314  24.483  16.939  1.00  0.00     0.099 A
HETATM    4  N1  UNL     1      61.989  24.257  16.956  1.00  0.00    -0.350 N
ATOM      5  H1  UNL     1      61.449  24.342  17.817  1.00  0.00     0.166 HD
HETATM    6  C4  UNL     1      61.402  23.915  15.795  1.00  0.00     0.135 A
HETATM    7  C11 UNL     1      62.095  23.789  14.606  1.00  0.00     0.121 A
HETATM    8  N3  UNL     1      61.757  23.467  13.339  1.00  0.00    -0.185 N
ATOM      9  H3  UNL     1      60.817  23.237  13.015  1.00  0.00     0.184 HD
HETATM   10  C12 UNL     1      62.870  23.501  12.568  1.00  0.00     0.693 A
HETATM   11  N7  UNL     1      63.916  23.842  13.342  1.00  0.00    -0.188 N
ATOM     12  H7  UNL     1      64.883  23.946  13.034  1.00  0.00     0.184 HD
HETATM   13  C21 UNL     1      63.454  24.024  14.606  1.00  0.00     0.087 A
ENDROOT
BRANCH  10  14
HETATM   14  N4  UNL     1      62.866  23.238  11.304  1.00  0.00    -0.112 N
ATOM     15  H4  UNL     1      63.712  22.900  10.846  1.00  0.00     0.197 HD
BRANCH  14  16
HETATM   16  S1  UNL     1      61.415  23.462  10.397  1.00  0.00     0.279 S
HETATM   17  O2  UNL     1      60.825  22.122  10.010  1.00  0.00    -0.200 OA
HETATM   18  O3  UNL     1      60.405  24.283  11.147  1.00  0.00    -0.200 OA
BRANCH  16  19
HETATM   19  C13 UNL     1      61.801  24.370   8.928  1.00  0.00     0.109 A
HETATM   20  C14 UNL     1      63.116  24.718   8.654  1.00  0.00     0.028 A
HETATM   21  C15 UNL     1      63.414  25.425   7.509  1.00  0.00     0.004 A
HETATM   22  C16 UNL     1      62.382  25.770   6.661  1.00  0.00     0.032 A
HETATM   23  C17 UNL     1      61.064  25.443   6.899  1.00  0.00     0.060 A
HETATM   24  N5  UNL     1      60.058  25.764   6.098  1.00  0.00    -0.363 N
HETATM   25  C20 UNL     1      60.791  24.730   8.060  1.00  0.00     0.082 A
HETATM   26  C18 UNL     1      58.804  25.399   6.417  1.00  0.00     0.105 A
ATOM     27  H5  UNL     1      60.236  26.288   5.240  1.00  0.00     0.165 HD
HETATM   28  C19 UNL     1      58.531  24.692   7.568  1.00  0.00     0.105 A
HETATM   29  N6  UNL     1      59.541  24.358   8.393  1.00  0.00    -0.362 N
ATOM     30  H6  UNL     1      59.364  23.834   9.250  1.00  0.00     0.165 HD
ENDBRANCH  16  19
ENDBRANCH  14  16
ENDBRANCH  10  14
BRANCH   6  31
HETATM   31  N2  UNL     1      60.132  23.687  15.758  1.00  0.00    -0.338 N
ATOM     32  H2  UNL     1      59.793  22.757  16.002  1.00  0.00     0.167 HD
BRANCH  31  33
HETATM   33  C5  UNL     1      59.188  24.685  15.391  1.00  0.00     0.067 A
HETATM   34  C6  UNL     1      58.978  25.757  16.212  1.00  0.00     0.032 A
HETATM   35  C7  UNL     1      58.078  26.741  15.895  1.00  0.00     0.002 A
HETATM   36  C8  UNL     1      57.377  26.627  14.716  1.00  0.00     0.003 A
HETATM   37  C9  UNL     1      57.591  25.538  13.879  1.00  0.00     0.039 A
HETATM   38  C10 UNL     1      58.498  24.551  14.205  1.00  0.00     0.092 A
BRANCH  38  39
HETATM   39  O1  UNL     1      58.708  23.459  13.362  1.00  0.00    -0.358 OA
ATOM     40  H1  UNL     1      58.192  23.337  12.574  1.00  0.00     0.217 HD
ENDBRANCH  38  39
ENDBRANCH  31  33
ENDBRANCH   6  31
TORSDOF 6
ENDMDL