MODEL 2
REMARK VINA RESULT: -10.363839362      1.148      1.409
REMARK  6 active torsions:
REMARK  status: ('A' for Active; 'I' for Inactive)
REMARK    1  A    between atoms: C3_3  and  O1_4
REMARK    2  A    between atoms: C4_6  and  N1_7
REMARK    3  A    between atoms: N1_7  and  S1_9
REMARK    4  A    between atoms: S1_9  and  C5_12
REMARK    5  A    between atoms: C8_15  and  N2_16
REMARK    6  A    between atoms: N2_16  and  C9_18
ROOT
HETATM    1  C5  UNL     1      63.537  24.335  14.959  1.00  0.00     0.080 A
HETATM    2  C6  UNL     1      62.614  24.841  14.074  1.00  0.00     0.027 A
HETATM    3  C7  UNL     1      62.613  24.466  12.727  1.00  0.00     0.031 A
HETATM    4  C8  UNL     1      63.532  23.576  12.226  1.00  0.00     0.049 A
HETATM    5  C18 UNL     1      64.466  23.068  13.129  1.00  0.00     0.031 A
HETATM    6  C19 UNL     1      64.468  23.437  14.454  1.00  0.00     0.027 A
ENDROOT
BRANCH   4   7
HETATM    7  N2  UNL     1      63.548  23.180  10.866  1.00  0.00    -0.192 N
ATOM      8  H2  UNL     1      64.165  22.405  10.623  1.00  0.00     0.184 HD
BRANCH   7   9
HETATM    9  C9  UNL     1      62.871  23.692   9.916  1.00  0.00     0.683 A
HETATM   10  N3  UNL     1      63.441  24.435   8.955  1.00  0.00    -0.189 N
HETATM   11  C10 UNL     1      62.710  24.967   7.956  1.00  0.00     0.077 A
ATOM     12  H3  UNL     1      64.448  24.600   8.981  1.00  0.00     0.184 HD
HETATM   13  C11 UNL     1      63.307  25.742   6.952  1.00  0.00     0.120 A
HETATM   14  C16 UNL     1      61.354  24.770   7.883  1.00  0.00     0.022 A
HETATM   15  N4  UNL     1      62.591  26.272   5.959  1.00  0.00    -0.349 N
HETATM   16  C12 UNL     1      61.262  26.081   5.887  1.00  0.00     0.116 A
ATOM     17  H4  UNL     1      63.058  26.831   5.246  1.00  0.00     0.167 HD
HETATM   18  N5  UNL     1      60.361  26.512   4.992  1.00  0.00    -0.352 N
HETATM   19  C15 UNL     1      60.638  25.326   6.853  1.00  0.00     0.023 A
HETATM   20  C13 UNL     1      59.172  26.033   5.390  1.00  0.00     0.090 A
ATOM     21  H5  UNL     1      60.543  27.089   4.171  1.00  0.00     0.166 HD
HETATM   22  C14 UNL     1      59.284  25.287   6.542  1.00  0.00     0.033 A
HETATM   23  C17 UNL     1      60.774  24.010   8.870  1.00  0.00     0.121 A
HETATM   24  N6  UNL     1      61.530  23.496   9.848  1.00  0.00    -0.201 N
ATOM     25  H6  UNL     1      61.080  22.935  10.571  1.00  0.00     0.183 HD
ENDBRANCH   7   9
ENDBRANCH   4   7
BRANCH   1  26
HETATM   26  S1  UNL     1      63.549  24.782  16.663  1.00  0.00     0.264 S
HETATM   27  O2  UNL     1      63.522  23.469  17.444  1.00  0.00    -0.200 OA
HETATM   28  O3  UNL     1      64.846  25.431  17.047  1.00  0.00    -0.200 OA
BRANCH  26  29
HETATM   29  N1  UNL     1      62.163  25.642  17.017  1.00  0.00    -0.262 N
ATOM     30  H1  UNL     1      62.243  26.635  16.801  1.00  0.00     0.180 HD
BRANCH  29  31
HETATM   31  C4  UNL     1      61.049  25.331  17.489  1.00  0.00     0.165 A
HETATM   32  C3  UNL     1      60.115  24.393  17.120  1.00  0.00     0.136 A
HETATM   33  C2  UNL     1      59.029  24.452  17.984  1.00  0.00     0.061 A
HETATM   34  C1  UNL     1      57.808  23.615  17.937  1.00  0.00     0.073 C
HETATM   35  N8  UNL     1      59.346  25.429  18.850  1.00  0.00    -0.297 N
HETATM   36  N7  UNL     1      60.520  25.958  18.581  1.00  0.00    -0.281 N
HETATM   37  C20 UNL     1      58.442  25.818  19.947  1.00  0.00     0.177 C
ATOM     38  H7  UNL     1      60.963  26.713  19.104  1.00  0.00     0.189 HD
BRANCH  32  39
HETATM   39  O1  UNL     1      60.229  23.530  16.067  1.00  0.00    -0.355 OA
ATOM     40  H1  UNL     1      60.443  23.785  15.177  1.00  0.00     0.218 HD
ENDBRANCH  32  39
ENDBRANCH  29  31
ENDBRANCH  26  29
ENDBRANCH   1  26
TORSDOF 6
ENDMDL