MODEL 4
REMARK VINA RESULT: -6.983066565     10.857     13.681
REMARK  4 active torsions:
REMARK  status: ('A' for Active; 'I' for Inactive)
REMARK    1  A    between atoms: C4_4  and  N1_5
REMARK    2  A    between atoms: N1_5  and  S1_7
REMARK    3  A    between atoms: C6_11  and  N2_12
REMARK    4  A    between atoms: C11_20  and  N5_21
REMARK       I    between atoms: N5_21  and  C12_23
REMARK       I    between atoms: C12_23  and  N6_25
ROOT
HETATM    1  N2  UNL     1      59.661  24.207  17.523  1.00  0.00    -0.281 N
HETATM    2  C7  UNL     1      59.879  25.123  18.489  1.00  0.00     0.147 A
HETATM    3  N3  UNL     1      61.113  25.849  18.705  1.00  0.00    -0.080 NA
HETATM    4  C8  UNL     1      58.735  25.246  19.224  1.00  0.00     0.107 A
HETATM    5  C9  UNL     1      58.462  26.072  20.338  1.00  0.00     0.104 C
HETATM    6  N4  UNL     1      58.250  26.751  21.239  1.00  0.00    -0.191 NA
HETATM    7  C10 UNL     1      57.819  24.358  18.652  1.00  0.00     0.077 A
HETATM    8  S2  UNL     1      56.245  23.690  18.680  1.00  0.00    -0.048 SA
HETATM    9  C11 UNL     1      56.400  22.631  17.355  1.00  0.00     0.154 A
HETATM   10  N7  UNL     1      57.650  22.833  16.946  1.00  0.00    -0.321 N
ATOM     11  H7  UNL     1      58.027  22.322  16.149  1.00  0.00     0.169 HD
HETATM   12  C15 UNL     1      58.387  23.709  17.596  1.00  0.00     0.135 A
ENDROOT
BRANCH   1  13
HETATM   13  C6  UNL     1      60.664  23.850  16.586  1.00  0.00     0.070 A
HETATM   14  C4  UNL     1      60.584  24.330  15.299  1.00  0.00     0.070 A
HETATM   15  C3  UNL     1      61.521  24.025  14.337  1.00  0.00     0.039 A
HETATM   16  C2  UNL     1      62.602  23.199  14.656  1.00  0.00    -0.054 A
HETATM   17  C1  UNL     1      63.622  22.867  13.606  1.00  0.00     0.049 C
HETATM   18  C17 UNL     1      62.685  22.720  15.933  1.00  0.00    -0.054 A
HETATM   19  C16 UNL     1      61.733  23.038  16.886  1.00  0.00     0.039 A
HETATM   20  C18 UNL     1      63.809  21.845  16.314  1.00  0.00     0.049 C
BRANCH  14  21
HETATM   21  N1  UNL     1      59.501  25.175  14.995  1.00  0.00    -0.283 N
ATOM     22  H1  UNL     1      59.456  26.104  15.414  1.00  0.00     0.178 HD
BRANCH  21  23
HETATM   23  S1  UNL     1      58.256  24.666  13.934  1.00  0.00     0.227 S
HETATM   24  C5  UNL     1      56.664  25.236  14.525  1.00  0.00     0.186 C
HETATM   25  O1  UNL     1      58.523  25.274  12.565  1.00  0.00    -0.206 OA
HETATM   26  O2  UNL     1      58.152  23.187  13.775  1.00  0.00    -0.206 OA
ENDBRANCH  21  23
ENDBRANCH  14  21
ENDBRANCH   1  13
BRANCH   9  27
HETATM   27  N5  UNL     1      55.514  21.803  16.839  1.00  0.00    -0.289 N
HETATM   28  C12 UNL     1      55.636  21.474  15.452  1.00  0.00     0.323 C
HETATM   29  O3  UNL     1      56.574  20.733  15.032  1.00  0.00    -0.247 OA
HETATM   30  N6  UNL     1      54.712  21.968  14.509  1.00  0.00    -0.343 N
HETATM   31  C13 UNL     1      53.633  22.814  14.955  1.00  0.00     0.154 C
HETATM   32  C14 UNL     1      54.820  21.648  13.109  1.00  0.00     0.154 C
ATOM     33  H5  UNL     1      54.765  21.409  17.410  1.00  0.00     0.172 HD
ENDBRANCH   9  27
TORSDOF 4
ENDMDL