MODEL 4
REMARK VINA RESULT: -7.524895839      1.422      1.745
REMARK  3 active torsions:
REMARK  status: ('A' for Active; 'I' for Inactive)
REMARK    1  A    between atoms: N2_9  and  C8_10
REMARK    2  A    between atoms: C8_10  and  C9_11
REMARK    3  A    between atoms: C9_11  and  N3_12
ROOT
HETATM    1  C1  UNL     1      63.327  23.313  16.971  1.00  0.00     0.309 C
HETATM    2  N1  UNL     1      62.118  23.370  16.199  1.00  0.00     0.084 N
HETATM    3  C2  UNL     1      62.399  23.785  14.842  1.00  0.00     0.271 C
HETATM    4  C3  UNL     1      63.197  22.727  14.091  1.00  0.00     0.030 C
HETATM    5  C4  UNL     1      64.270  23.447  13.290  1.00  0.00     0.002 C
HETATM    6  C5  UNL     1      63.919  23.411  11.813  1.00  0.00     0.002 C
HETATM    7  C6  UNL     1      62.709  24.239  11.522  1.00  0.00     0.020 C
HETATM    8  C7  UNL     1      61.545  23.400  10.965  1.00  0.00     0.122 C
HETATM    9  N2  UNL     1      61.142  24.090   9.763  1.00  0.00    -0.390 N
HETATM   10  C14 UNL     1      59.831  24.606   9.793  1.00  0.00     0.085 C
HETATM   11  C15 UNL     1      58.713  23.661   9.508  1.00  0.00     0.276 C
HETATM   12  N5  UNL     1      57.480  24.296  10.003  1.00  0.00    -0.071 N
ATOM     13  H51 UNL     1      57.381  25.240   9.629  1.00  0.00     0.277 HD
ATOM     14  H52 UNL     1      57.557  24.518  10.996  1.00  0.00     0.277 HD
HETATM   15  C16 UNL     1      56.307  23.514   9.742  1.00  0.00     0.234 C
HETATM   16  C17 UNL     1      55.567  23.105  10.998  1.00  0.00     0.055 C
HETATM   17  C18 UNL     1      55.217  24.260  11.886  1.00  0.00     0.233 C
HETATM   18  N6  UNL     1      55.346  23.794  13.267  1.00  0.00    -0.075 N
ATOM     19  H61 UNL     1      55.848  22.909  13.333  1.00  0.00     0.277 HD
ATOM     20  H62 UNL     1      54.456  23.482  13.657  1.00  0.00     0.277 HD
HETATM   21  C19 UNL     1      55.961  24.839  14.059  1.00  0.00     0.233 C
HETATM   22  C20 UNL     1      55.966  24.474  15.516  1.00  0.00     0.055 C
HETATM   23  C21 UNL     1      57.205  24.960  16.238  1.00  0.00     0.233 C
HETATM   24  N7  UNL     1      57.607  23.935  17.187  1.00  0.00    -0.075 N
ATOM     25  H71 UNL     1      57.643  23.015  16.747  1.00  0.00     0.277 HD
ATOM     26  H72 UNL     1      56.874  23.755  17.873  1.00  0.00     0.277 HD
HETATM   27  C22 UNL     1      58.860  24.262  17.829  1.00  0.00     0.234 C
HETATM   28  C23 UNL     1      59.936  23.425  17.190  1.00  0.00     0.057 C
HETATM   29  C24 UNL     1      61.119  24.254  16.747  1.00  0.00     0.273 C
ENDROOT
BRANCH   9  30
HETATM   30  C8  UNL     1      61.598  23.476   8.562  1.00  0.00     0.141 C
BRANCH  30  31
HETATM   31  C9  UNL     1      62.707  24.288   7.985  1.00  0.00     0.136 C
BRANCH  31  32
HETATM   32  N3  UNL     1      62.333  25.256   6.992  1.00  0.00    -0.408 N
HETATM   33  C10 UNL     1      63.386  25.697   6.150  1.00  0.00     0.144 C
HETATM   34  C11 UNL     1      63.194  25.681   4.692  1.00  0.00     0.251 C
HETATM   35  N4  UNL     1      61.845  25.730   4.232  1.00  0.00    -0.072 N
HETATM   36  C12 UNL     1      61.162  24.611   4.904  1.00  0.00     0.251 C
ATOM     37  H42 UNL     1      61.394  26.633   4.378  1.00  0.00     0.277 HD
ATOM     38  H41 UNL     1      61.757  25.715   3.217  1.00  0.00     0.277 HD
HETATM   39  C13 UNL     1      61.084  24.977   6.349  1.00  0.00     0.144 C
ENDBRANCH  31  32
ENDBRANCH  30  31
ENDBRANCH   9  30
TORSDOF 3
ENDMDL