MODEL 3
REMARK VINA RESULT: -6.395472204      2.768      4.781
REMARK  18 active torsions:
REMARK  status: ('A' for Active; 'I' for Inactive)
REMARK    1  A    between atoms: C5_5  and  N1_6
REMARK       I    between atoms: N1_6  and  C6_8
REMARK    2  A    between atoms: C6_8  and  C7_10
REMARK    3  A    between atoms: C7_10  and  C8_11
REMARK    4  A    between atoms: C8_11  and  C9_12
REMARK    5  A    between atoms: C9_12  and  C10_13
REMARK       I    between atoms: N2_16  and  C13_17
REMARK    6  A    between atoms: C13_17  and  C14_19
REMARK    7  A    between atoms: C14_19  and  C15_20
REMARK    8  A    between atoms: C14_19  and  N4_29
REMARK    9  A    between atoms: C15_20  and  C16_21
REMARK   10  A    between atoms: C16_21  and  C17_22
REMARK   11  A    between atoms: C17_22  and  C18_23
REMARK   12  A    between atoms: C18_23  and  N3_24
REMARK       I    between atoms: N3_24  and  C19_26
REMARK   13  A    between atoms: C21_32  and  C22_33
REMARK   14  A    between atoms: C22_33  and  C23_34
REMARK   15  A    between atoms: C23_34  and  C24_35
REMARK   16  A    between atoms: C24_35  and  N6_36
REMARK   17  A    between atoms: C27_45  and  C28_46
REMARK   18  A    between atoms: C28_46  and  C30_48
ROOT
HETATM    1  C1  UNL     1      23.809  44.628  -0.111  1.00  0.00     0.017 C
HETATM    2  C2  UNL     1      23.305  43.667  -0.660  1.00  0.00    -0.087 C
HETATM    3  C3  UNL     1      22.683  42.544  -1.324  1.00  0.00     0.091 C
HETATM    4  C4  UNL     1      23.307  41.663  -2.013  1.00  0.00     0.047 C
HETATM    5  C5  UNL     1      22.911  40.428  -2.791  1.00  0.00     0.153 C
HETATM    6  C12 UNL     1      24.058  40.885  -3.650  1.00  0.00     0.164 C
HETATM    7  N2  UNL     1      24.662  41.402  -2.406  1.00  0.00    -0.311 N
HETATM    8  C13 UNL     1      25.943  41.496  -1.846  1.00  0.00     0.272 C
HETATM    9  O2  UNL     1      25.966  41.819  -0.595  1.00  0.00    -0.266 OA
ENDROOT
BRANCH   5  10
HETATM   10  N1  UNL     1      23.095  39.223  -2.051  1.00  0.00    -0.349 N
HETATM   11  C6  UNL     1      22.222  38.105  -2.257  1.00  0.00     0.218 C
HETATM   12  O1  UNL     1      21.314  38.258  -3.099  1.00  0.00    -0.274 OA
ATOM     13  H1  UNL     1      23.853  39.157  -1.371  1.00  0.00     0.163 HD
BRANCH  11  14
HETATM   14  C7  UNL     1      22.458  36.883  -1.467  1.00  0.00     0.103 C
BRANCH  14  15
HETATM   15  C8  UNL     1      23.831  36.358  -1.659  1.00  0.00     0.009 C
BRANCH  15  16
HETATM   16  C9  UNL     1      24.051  35.858  -3.055  1.00  0.00     0.000 C
BRANCH  16  17
HETATM   17  C10 UNL     1      23.300  34.523  -3.140  1.00  0.00    -0.005 C
HETATM   18  C11 UNL     1      22.857  34.333  -4.551  1.00  0.00     0.005 C
ENDBRANCH  16  17
ENDBRANCH  15  16
ENDBRANCH  14  15
ENDBRANCH  11  14
ENDBRANCH   5  10
BRANCH   8  19
HETATM   19  C14 UNL     1      27.234  41.294  -2.440  1.00  0.00     0.105 C
BRANCH  19  20
HETATM   20  C15 UNL     1      27.829  39.931  -2.236  1.00  0.00     0.065 C
BRANCH  20  21
HETATM   21  C16 UNL     1      27.684  39.207  -0.970  1.00  0.00     0.008 C
BRANCH  21  22
HETATM   22  C17 UNL     1      29.159  38.942  -0.529  1.00  0.00     0.020 C
BRANCH  22  23
HETATM   23  C18 UNL     1      30.086  38.908  -1.704  1.00  0.00     0.122 C
BRANCH  23  24
HETATM   24  N3  UNL     1      30.669  37.587  -1.789  1.00  0.00    -0.361 N
HETATM   25  C19 UNL     1      30.261  36.624  -2.767  1.00  0.00     0.213 C
HETATM   26  C20 UNL     1      30.883  35.276  -2.816  1.00  0.00     0.117 C
HETATM   27  O3  UNL     1      29.355  36.980  -3.571  1.00  0.00    -0.274 OA
ATOM     28  H3  UNL     1      31.400  37.332  -1.125  1.00  0.00     0.162 HD
ENDBRANCH  23  24
ENDBRANCH  22  23
ENDBRANCH  21  22
ENDBRANCH  20  21
ENDBRANCH  19  20
BRANCH  19  29
HETATM   29  N4  UNL     1      28.182  42.397  -2.391  1.00  0.00    -0.221 N
HETATM   30  N5  UNL     1      28.744  42.610  -1.184  1.00  0.00    -0.313 N
HETATM   31  C21 UNL     1      30.016  43.045  -0.914  1.00  0.00     0.192 C
ATOM     32  H5  UNL     1      28.153  42.425  -0.374  1.00  0.00     0.181 HD
HETATM   33  C26 UNL     1      30.832  43.607  -1.972  1.00  0.00     0.246 C
HETATM   34  O4  UNL     1      32.067  43.689  -1.635  1.00  0.00    -0.271 OA
HETATM   35  N9  UNL     1      30.584  44.081  -3.282  1.00  0.00    -0.324 N
HETATM   36  C27 UNL     1      29.346  44.232  -3.948  1.00  0.00     0.086 C
ATOM     37  H9  UNL     1      31.410  44.351  -3.817  1.00  0.00     0.169 HD
HETATM   38  C32 UNL     1      28.359  43.175  -3.582  1.00  0.00     0.289 C
HETATM   39  O5  UNL     1      27.513  42.890  -4.463  1.00  0.00    -0.264 OA
BRANCH  31  40
HETATM   40  C22 UNL     1      29.875  44.046   0.297  1.00  0.00     0.041 C
BRANCH  40  41
HETATM   41  C23 UNL     1      28.784  44.989   0.012  1.00  0.00     0.047 C
BRANCH  41  42
HETATM   42  C24 UNL     1      29.073  46.404   0.283  1.00  0.00     0.063 C
BRANCH  42  43
HETATM   43  N6  UNL     1      30.097  46.805   1.161  1.00  0.00    -0.347 N
HETATM   44  C25 UNL     1      30.150  46.945   2.408  1.00  0.00     0.200 C
HETATM   45  N7  UNL     1      31.428  47.397   2.936  1.00  0.00    -0.067 NA
HETATM   46  N8  UNL     1      29.127  46.667   3.320  1.00  0.00    -0.067 NA
ATOM     47  H6  UNL     1      30.974  47.026   0.689  1.00  0.00     0.167 HD
ENDBRANCH  42  43
ENDBRANCH  41  42
ENDBRANCH  40  41
ENDBRANCH  31  40
BRANCH  36  48
HETATM   48  C28 UNL     1      28.766  45.603  -4.047  1.00  0.00     0.037 C
HETATM   49  C29 UNL     1      29.851  46.623  -3.633  1.00  0.00     0.016 C
BRANCH  48  50
HETATM   50  C30 UNL     1      27.622  45.865  -3.119  1.00  0.00     0.006 C
HETATM   51  C31 UNL     1      26.349  46.316  -3.731  1.00  0.00     0.006 C
ENDBRANCH  48  50
ENDBRANCH  36  48
ENDBRANCH  19  29
ENDBRANCH   8  19
TORSDOF 18
ENDMDL