MODEL 4
REMARK VINA RESULT: -6.584837985      1.432      3.226
REMARK  20 active torsions:
REMARK  status: ('A' for Active; 'I' for Inactive)
REMARK    1  A    between atoms: C2_2  and  C5_5
REMARK       I    between atoms: C5_5  and  N1_7
REMARK    2  A    between atoms: N1_7  and  C6_9
REMARK    3  A    between atoms: C9_14  and  N3_15
REMARK    4  A    between atoms: C10_17  and  C11_18
REMARK    5  A    between atoms: C11_18  and  N4_19
REMARK       I    between atoms: N4_19  and  C12_20
REMARK    6  A    between atoms: C12_20  and  C13_22
REMARK    7  A    between atoms: C13_22  and  C14_23
REMARK    8  A    between atoms: C14_23  and  N5_24
REMARK    9  A    between atoms: N6_29  and  C17_30
REMARK   10  A    between atoms: C17_30  and  C18_31
REMARK   11  A    between atoms: C18_31  and  C19_32
REMARK   12  A    between atoms: C19_32  and  C20_33
REMARK   13  A    between atoms: C20_33  and  C21_34
REMARK   14  A    between atoms: C21_34  and  C22_35
REMARK   15  A    between atoms: C22_35  and  C23_36
REMARK   16  A    between atoms: C23_36  and  C24_37
REMARK   17  A    between atoms: C24_37  and  C25_38
REMARK   18  A    between atoms: C25_38  and  C26_39
REMARK   19  A    between atoms: C26_39  and  N7_40
REMARK   20  A    between atoms: C30_44  and  N8_45
REMARK       I    between atoms: N8_45  and  C31_47
ROOT
HETATM    1  N5  UNL     1      32.145  45.560  -2.185  1.00  0.00    -0.284 N
HETATM    2  C15 UNL     1      32.796  44.260  -2.091  1.00  0.00     0.318 C
HETATM    3  O3  UNL     1      32.697  43.295  -2.843  1.00  0.00    -0.262 OA
HETATM    4  C16 UNL     1      33.625  44.385  -0.854  1.00  0.00     0.315 C
HETATM    5  O4  UNL     1      34.357  43.522  -0.369  1.00  0.00    -0.262 OA
HETATM    6  N6  UNL     1      33.412  45.726  -0.322  1.00  0.00    -0.305 N
HETATM    7  C30 UNL     1      32.046  46.010  -0.776  1.00  0.00     0.305 C
ENDROOT
BRANCH   1   8
HETATM    8  C14 UNL     1      31.763  46.241  -3.352  1.00  0.00     0.081 C
BRANCH   8   9
HETATM    9  C13 UNL     1      30.584  47.059  -3.550  1.00  0.00     0.164 C
BRANCH   9  10
HETATM   10  C12 UNL     1      29.289  46.300  -3.455  1.00  0.00     0.295 C
HETATM   11  N4  UNL     1      28.905  45.568  -4.557  1.00  0.00    -0.382 NA
HETATM   12  O2  UNL     1      28.721  46.450  -2.332  1.00  0.00    -0.257 OA
BRANCH  11  13
HETATM   13  C11 UNL     1      28.531  44.855  -5.629  1.00  0.00     0.204 C
BRANCH  13  14
HETATM   14  C10 UNL     1      27.818  43.541  -5.560  1.00  0.00     0.138 C
HETATM   15  N3  UNL     1      28.198  42.662  -4.595  1.00  0.00    -0.199 N
ATOM     16  H3  UNL     1      27.808  41.764  -4.882  1.00  0.00     0.183 HD
BRANCH  15  17
HETATM   17  C9  UNL     1      28.790  42.434  -3.537  1.00  0.00     0.683 A
HETATM   18  N2  UNL     1      28.777  43.149  -2.403  1.00  0.00    -0.202 N
HETATM   19  C8  UNL     1      29.423  42.709  -1.314  1.00  0.00     0.110 A
ATOM     20  H2  UNL     1      28.272  44.034  -2.369  1.00  0.00     0.183 HD
HETATM   21  C7  UNL     1      30.114  41.532  -1.301  1.00  0.00     0.067 A
HETATM   22  C6  UNL     1      30.148  40.750  -2.484  1.00  0.00     0.124 A
HETATM   23  N11 UNL     1      29.495  41.247  -3.506  1.00  0.00    -0.176 N
ATOM     24  H11 UNL     1      29.510  40.701  -4.367  1.00  0.00     0.186 HD
BRANCH  22  25
HETATM   25  N1  UNL     1      30.792  39.651  -2.398  1.00  0.00    -0.312 N
HETATM   26  C5  UNL     1      30.247  38.383  -2.622  1.00  0.00     0.230 C
HETATM   27  O1  UNL     1      30.496  37.847  -3.779  1.00  0.00    -0.272 OA
ATOM     28  H1  UNL     1      31.779  39.702  -2.146  1.00  0.00     0.170 HD
BRANCH  26  29
HETATM   29  C2  UNL     1      29.428  37.573  -1.722  1.00  0.00     0.030 C
HETATM   30  C1  UNL     1      27.935  37.807  -2.022  1.00  0.00     0.025 C
HETATM   31  C3  UNL     1      29.583  37.872  -0.258  1.00  0.00     0.025 C
HETATM   32  C4  UNL     1      29.662  36.102  -2.011  1.00  0.00     0.025 C
ENDBRANCH  26  29
ENDBRANCH  22  25
ENDBRANCH  15  17
ENDBRANCH  13  14
ENDBRANCH  11  13
ENDBRANCH   9  10
ENDBRANCH   8   9
ENDBRANCH   1   8
BRANCH   7  33
HETATM   33  N8  UNL     1      31.007  45.487  -0.008  1.00  0.00    -0.326 N
HETATM   34  C31 UNL     1      30.141  45.995   0.951  1.00  0.00     0.184 C
HETATM   35  N9  UNL     1      30.431  46.645   2.006  1.00  0.00    -0.374 N
HETATM   36  N10 UNL     1      28.706  45.770   0.786  1.00  0.00    -0.064 NA
ATOM     37  H92 UNL     1      31.433  46.802   2.122  1.00  0.00     0.158 HD
ATOM     38  H91 UNL     1      29.795  47.018   2.711  1.00  0.00     0.158 HD
ATOM     39  H8  UNL     1      30.845  44.498  -0.195  1.00  0.00     0.166 HD
ENDBRANCH   7  33
BRANCH   6  40
HETATM   40  C17 UNL     1      34.376  46.546   0.315  1.00  0.00     0.130 C
BRANCH  40  41
HETATM   41  C18 UNL     1      34.781  47.787  -0.368  1.00  0.00     0.020 C
BRANCH  41  42
HETATM   42  C19 UNL     1      35.742  47.698  -1.483  1.00  0.00     0.002 C
BRANCH  42  43
HETATM   43  C20 UNL     1      37.144  47.410  -0.961  1.00  0.00     0.000 C
BRANCH  43  44
HETATM   44  C21 UNL     1      37.460  48.227   0.225  1.00  0.00     0.000 C
BRANCH  44  45
HETATM   45  C22 UNL     1      38.247  49.485  -0.133  1.00  0.00     0.000 C
BRANCH  45  46
HETATM   46  C23 UNL     1      37.839  50.650   0.708  1.00  0.00     0.000 C
BRANCH  46  47
HETATM   47  C24 UNL     1      37.545  50.255   2.116  1.00  0.00     0.002 C
BRANCH  47  48
HETATM   48  C25 UNL     1      36.330  50.866   2.722  1.00  0.00     0.028 C
BRANCH  48  49
HETATM   49  C26 UNL     1      35.095  50.354   2.056  1.00  0.00     0.236 C
BRANCH  49  50
HETATM   50  N7  UNL     1      33.981  50.228   2.969  1.00  0.00    -0.079 N
HETATM   51  C27 UNL     1      34.149  51.009   4.174  1.00  0.00     0.271 C
HETATM   52  C28 UNL     1      32.795  50.727   2.313  1.00  0.00     0.271 C
HETATM   53  C29 UNL     1      33.716  48.848   3.327  1.00  0.00     0.271 C
ENDBRANCH  49  50
ENDBRANCH  48  49
ENDBRANCH  47  48
ENDBRANCH  46  47
ENDBRANCH  45  46
ENDBRANCH  44  45
ENDBRANCH  43  44
ENDBRANCH  42  43
ENDBRANCH  41  42
ENDBRANCH  40  41
ENDBRANCH   6  40
TORSDOF 20
ENDMDL