MODEL 5
REMARK VINA RESULT: -6.611733428      5.059      9.442
REMARK  19 active torsions:
REMARK  status: ('A' for Active; 'I' for Inactive)
REMARK       I    between atoms: C2_2  and  N1_4
REMARK    1  A    between atoms: N1_4  and  C3_5
REMARK    2  A    between atoms: N1_4  and  C19_31
REMARK    3  A    between atoms: C3_5  and  C4_6
REMARK    4  A    between atoms: C4_6  and  N2_7
REMARK    5  A    between atoms: N2_7  and  C5_8
REMARK    6  A    between atoms: N2_7  and  C7_12
REMARK    7  A    between atoms: C5_8  and  C6_9
REMARK    8  A    between atoms: C10_17  and  N5_18
REMARK    9  A    between atoms: N5_18  and  C11_20
REMARK   10  A    between atoms: C19_31  and  C20_32
REMARK       I    between atoms: C20_32  and  N8_34
REMARK   11  A    between atoms: N8_34  and  C21_36
REMARK   12  A    between atoms: C21_36  and  C22_37
REMARK   13  A    between atoms: C22_37  and  C23_38
REMARK   14  A    between atoms: C23_38  and  C24_39
REMARK   15  A    between atoms: C24_39  and  N9_40
REMARK   16  A    between atoms: N9_40  and  C25_41
REMARK       I    between atoms: N9_40  and  C30_47
REMARK   17  A    between atoms: C25_41  and  C26_42
REMARK   18  A    between atoms: C26_42  and  C27_43
REMARK   19  A    between atoms: C27_43  and  N10_44
ROOT
HETATM    1  C3  UNL     1      32.106  46.018   0.093  1.00  0.00     0.146 C
ENDROOT
BRANCH   1   2
HETATM    2  N1  UNL     1      31.349  46.987   0.853  1.00  0.00    -0.342 N
HETATM    3  C2  UNL     1      31.929  47.561   2.013  1.00  0.00     0.216 C
HETATM    4  C1  UNL     1      33.279  47.162   2.436  1.00  0.00     0.117 C
HETATM    5  O1  UNL     1      31.296  48.401   2.673  1.00  0.00    -0.274 OA
BRANCH   2   6
HETATM    6  C19 UNL     1      30.041  47.455   0.470  1.00  0.00     0.228 C
BRANCH   6   7
HETATM    7  C20 UNL     1      28.955  46.494   0.517  1.00  0.00     0.235 C
HETATM    8  O3  UNL     1      28.930  45.722   1.546  1.00  0.00    -0.272 OA
HETATM    9  N8  UNL     1      27.920  46.274  -0.402  1.00  0.00    -0.360 N
ATOM     10  H8  UNL     1      27.906  46.869  -1.231  1.00  0.00     0.162 HD
BRANCH   9  11
HETATM   11  C21 UNL     1      26.888  45.301  -0.291  1.00  0.00     0.122 C
BRANCH  11  12
HETATM   12  C22 UNL     1      25.522  45.847   0.043  1.00  0.00     0.021 C
BRANCH  12  13
HETATM   13  C23 UNL     1      25.316  45.950   1.539  1.00  0.00     0.021 C
BRANCH  13  14
HETATM   14  C24 UNL     1      25.477  47.375   2.004  1.00  0.00     0.125 C
BRANCH  14  15
HETATM   15  N9  UNL     1      25.532  47.398   3.453  1.00  0.00    -0.356 N
HETATM   16  C30 UNL     1      26.574  48.058   4.153  1.00  0.00     0.183 C
HETATM   17  N11 UNL     1      26.344  48.702   5.265  1.00  0.00    -0.374 N
HETATM   18  N12 UNL     1      27.919  48.059   3.699  1.00  0.00    -0.064 NA
ATOM     19 2H11 UNL     1      25.377  48.702   5.591  1.00  0.00     0.158 HD
ATOM     20 1H11 UNL     1      27.093  49.177   5.768  1.00  0.00     0.158 HD
BRANCH  15  21
HETATM   21  C25 UNL     1      24.471  46.706   4.193  1.00  0.00     0.127 C
BRANCH  21  22
HETATM   22  C26 UNL     1      23.136  47.416   4.058  1.00  0.00     0.050 C
BRANCH  22  23
HETATM   23  C27 UNL     1      22.386  47.296   5.367  1.00  0.00     0.273 C
BRANCH  23  24
HETATM   24  N10 UNL     1      23.171  47.957   6.397  1.00  0.00     0.080 N
HETATM   25  C28 UNL     1      22.893  49.384   6.399  1.00  0.00     0.309 C
HETATM   26  C29 UNL     1      22.920  47.403   7.721  1.00  0.00     0.309 C
ENDBRANCH  23  24
ENDBRANCH  22  23
ENDBRANCH  21  22
ENDBRANCH  15  21
ENDBRANCH  14  15
ENDBRANCH  13  14
ENDBRANCH  12  13
ENDBRANCH  11  12
ENDBRANCH   9  11
ENDBRANCH   6   7
ENDBRANCH   2   6
ENDBRANCH   1   2
BRANCH   1  27
HETATM   27  C4  UNL     1      32.069  46.157  -1.387  1.00  0.00     0.143 C
BRANCH  27  28
HETATM   28  N2  UNL     1      32.330  44.925  -2.081  1.00  0.00    -0.370 N
BRANCH  28  29
HETATM   29  C5  UNL     1      33.588  44.804  -2.772  1.00  0.00     0.222 C
BRANCH  29  30
HETATM   30  C6  UNL     1      34.682  44.718  -1.768  1.00  0.00     0.248 C
HETATM   31  N3  UNL     1      35.855  45.532  -1.920  1.00  0.00    -0.061 NA
HETATM   32  O2  UNL     1      34.683  43.975  -0.761  1.00  0.00    -0.275 OA
ENDBRANCH  29  30
ENDBRANCH  28  29
BRANCH  28  33
HETATM   33  C7  UNL     1      31.389  43.870  -2.130  1.00  0.00     0.048 A
HETATM   34  C8  UNL     1      31.693  42.612  -1.656  1.00  0.00     0.064 A
HETATM   35  C9  UNL     1      30.744  41.595  -1.732  1.00  0.00     0.096 A
HETATM   36  N4  UNL     1      30.761  40.300  -1.350  1.00  0.00    -0.188 N
HETATM   37  C16 UNL     1      29.511  41.854  -2.279  1.00  0.00     0.150 A
HETATM   38  C10 UNL     1      29.568  39.719  -1.637  1.00  0.00     0.680 A
ATOM     39  H4  UNL     1      31.553  39.829  -0.911  1.00  0.00     0.184 HD
HETATM   40  N6  UNL     1      28.827  40.684  -2.201  1.00  0.00    -0.174 N
ATOM     41  H6  UNL     1      27.871  40.555  -2.530  1.00  0.00     0.186 HD
HETATM   42  N7  UNL     1      29.194  43.074  -2.747  1.00  0.00    -0.343 N
HETATM   43  C17 UNL     1      27.879  43.301  -3.316  1.00  0.00     0.157 C
HETATM   44  C18 UNL     1      30.122  44.037  -2.663  1.00  0.00     0.121 A
BRANCH  38  45
HETATM   45  N5  UNL     1      29.216  38.505  -1.413  1.00  0.00    -0.221 N
ATOM     46  H5  UNL     1      28.975  38.260  -0.453  1.00  0.00     0.178 HD
BRANCH  45  47
HETATM   47  C11 UNL     1      29.132  37.460  -2.397  1.00  0.00     0.099 C
HETATM   48  C12 UNL     1      29.538  36.106  -1.931  1.00  0.00     0.026 C
HETATM   49  C13 UNL     1      30.192  35.407  -3.100  1.00  0.00     0.002 C
HETATM   50  C14 UNL     1      30.468  36.458  -4.151  1.00  0.00     0.002 C
HETATM   51  C15 UNL     1      29.915  37.755  -3.659  1.00  0.00     0.026 C
ENDBRANCH  45  47
ENDBRANCH  38  45
ENDBRANCH  28  33
ENDBRANCH  27  28
ENDBRANCH   1  27
TORSDOF 19
ENDMDL