MODEL 5
REMARK VINA RESULT: -6.586151573      1.516      2.446
REMARK  22 active torsions:
REMARK  status: ('A' for Active; 'I' for Inactive)
REMARK    1  A    between atoms: C2_2  and  C3_3
REMARK    2  A    between atoms: C3_3  and  C4_4
REMARK    3  A    between atoms: C4_4  and  O1_5
REMARK    4  A    between atoms: C4_4  and  N1_7
REMARK    5  A    between atoms: N1_7  and  C5_9
REMARK    6  A    between atoms: C5_9  and  C6_10
REMARK    7  A    between atoms: C6_10  and  N2_11
REMARK    8  A    between atoms: C10_17  and  C11_18
REMARK       I    between atoms: C11_18  and  N4_20
REMARK    9  A    between atoms: N4_20  and  C12_22
REMARK   10  A    between atoms: C12_22  and  C13_23
REMARK   11  A    between atoms: C12_22  and  C14_26
REMARK   12  A    between atoms: C13_23  and  O3_24
REMARK   13  A    between atoms: C17_35  and  C18_36
REMARK   14  A    between atoms: C18_36  and  C19_37
REMARK   15  A    between atoms: C19_37  and  C20_38
REMARK   16  A    between atoms: C21_39  and  C22_40
REMARK   17  A    between atoms: C23_41  and  C24_42
REMARK   18  A    between atoms: C25_43  and  C26_44
REMARK   19  A    between atoms: C26_44  and  C27_45
REMARK   20  A    between atoms: C27_45  and  C28_46
REMARK   21  A    between atoms: C28_46  and  C29_47
REMARK   22  A    between atoms: C29_47  and  N7_48
ROOT
HETATM    1  C3  UNL     1      28.035  42.385  -2.635  1.00  0.00     0.108 C
HETATM    2  N3  UNL     1      28.928  41.749  -3.600  1.00  0.00    -0.363 N
ATOM      3  H3  UNL     1      28.712  41.753  -4.598  1.00  0.00     0.161 HD
HETATM    4  C10 UNL     1      30.106  41.127  -3.108  1.00  0.00     0.166 C
HETATM    5  C15 UNL     1      31.104  42.071  -2.579  1.00  0.00     0.280 C
HETATM    6  O5  UNL     1      32.093  41.677  -1.966  1.00  0.00    -0.265 OA
HETATM    7  N6  UNL     1      30.938  43.507  -2.777  1.00  0.00    -0.292 N
ATOM      8  H6  UNL     1      31.782  44.076  -2.710  1.00  0.00     0.172 HD
HETATM    9  C16 UNL     1      29.738  44.196  -3.052  1.00  0.00     0.232 C
HETATM   10  O6  UNL     1      29.795  45.181  -3.833  1.00  0.00    -0.273 OA
HETATM   11  C17 UNL     1      28.380  43.846  -2.462  1.00  0.00     0.125 C
ENDROOT
BRANCH  11  12
HETATM   12  C18 UNL     1      28.353  44.486  -1.197  1.00  0.00     0.102 C
BRANCH  12  13
HETATM   13  C19 UNL     1      28.981  44.869  -0.252  1.00  0.00    -0.155 C
BRANCH  13  14
HETATM   14  C20 UNL     1      29.793  45.241   0.888  1.00  0.00     0.050 C
HETATM   15  C21 UNL     1      29.732  46.562   1.260  1.00  0.00     0.008 C
BRANCH  15  16
HETATM   16  C22 UNL     1      30.458  47.150   2.349  1.00  0.00     0.001 C
HETATM   17  C23 UNL     1      31.616  47.813   2.152  1.00  0.00    -0.000 C
BRANCH  17  18
HETATM   18  C24 UNL     1      32.153  47.939   0.810  1.00  0.00    -0.004 C
HETATM   19  C25 UNL     1      32.982  47.232   0.211  1.00  0.00    -0.027 C
BRANCH  19  20
HETATM   20  C26 UNL     1      33.768  46.034   0.514  1.00  0.00     0.027 C
BRANCH  20  21
HETATM   21  C27 UNL     1      33.459  44.993  -0.533  1.00  0.00     0.005 C
BRANCH  21  22
HETATM   22  C28 UNL     1      33.887  45.276  -1.916  1.00  0.00     0.028 C
BRANCH  22  23
HETATM   23  C29 UNL     1      35.390  45.209  -2.076  1.00  0.00     0.236 C
BRANCH  23  24
HETATM   24  N7  UNL     1      35.936  46.441  -2.601  1.00  0.00    -0.079 N
HETATM   25  C30 UNL     1      36.705  47.130  -1.586  1.00  0.00     0.271 C
HETATM   26  C31 UNL     1      34.906  47.328  -3.058  1.00  0.00     0.271 C
HETATM   27  C32 UNL     1      36.850  46.206  -3.734  1.00  0.00     0.271 C
ENDBRANCH  23  24
ENDBRANCH  22  23
ENDBRANCH  21  22
ENDBRANCH  20  21
ENDBRANCH  19  20
ENDBRANCH  17  18
ENDBRANCH  15  16
ENDBRANCH  13  14
ENDBRANCH  12  13
ENDBRANCH  11  12
BRANCH   1  28
HETATM   28  C2  UNL     1      27.928  41.661  -1.376  1.00  0.00     0.036 C
HETATM   29  C1  UNL     1      26.873  40.649  -1.140  1.00  0.00     0.008 C
ENDBRANCH   1  28
BRANCH   1  30
HETATM   30  C4  UNL     1      26.754  42.368  -3.359  1.00  0.00     0.141 C
BRANCH  30  31
HETATM   31  O1  UNL     1      26.599  41.516  -4.329  1.00  0.00    -0.348 OA
ATOM     32  H1  UNL     1      25.843  41.607  -4.898  1.00  0.00     0.219 HD
ENDBRANCH  30  31
BRANCH  30  33
HETATM   33  N1  UNL     1      25.628  43.182  -3.129  1.00  0.00    -0.371 N
ATOM     34  H1  UNL     1      25.265  43.331  -2.187  1.00  0.00     0.161 HD
BRANCH  33  35
HETATM   35  C5  UNL     1      24.987  43.819  -4.322  1.00  0.00     0.149 C
BRANCH  35  36
HETATM   36  C6  UNL     1      25.863  44.847  -4.918  1.00  0.00     0.255 C
BRANCH  36  37
HETATM   37  N2  UNL     1      26.162  44.783  -6.301  1.00  0.00    -0.077 N
HETATM   38  C7  UNL     1      25.378  43.711  -6.908  1.00  0.00     0.271 C
HETATM   39  C8  UNL     1      27.598  44.358  -6.398  1.00  0.00     0.271 C
HETATM   40  C9  UNL     1      25.991  45.968  -7.072  1.00  0.00     0.271 C
ENDBRANCH  36  37
ENDBRANCH  35  36
ENDBRANCH  33  35
ENDBRANCH  30  33
ENDBRANCH   1  30
BRANCH   4  41
HETATM   41  C11 UNL     1      30.159  39.785  -2.644  1.00  0.00     0.274 C
HETATM   42  O2  UNL     1      30.306  39.465  -1.409  1.00  0.00    -0.266 OA
HETATM   43  N4  UNL     1      30.058  38.613  -3.448  1.00  0.00    -0.341 N
ATOM     44  H4  UNL     1      29.973  38.709  -4.459  1.00  0.00     0.163 HD
BRANCH  43  45
HETATM   45  C12 UNL     1      30.075  37.283  -2.857  1.00  0.00     0.197 C
BRANCH  45  46
HETATM   46  C13 UNL     1      28.729  36.831  -2.382  1.00  0.00     0.198 C
BRANCH  46  47
HETATM   47  O3  UNL     1      27.630  37.311  -3.034  1.00  0.00    -0.398 OA
ATOM     48  H3  UNL     1      27.763  37.738  -3.872  1.00  0.00     0.209 HD
ENDBRANCH  46  47
ENDBRANCH  45  46
BRANCH  45  49
HETATM   49  C14 UNL     1      30.486  36.264  -3.884  1.00  0.00     0.256 C
HETATM   50  N5  UNL     1      30.755  34.949  -3.448  1.00  0.00    -0.060 NA
HETATM   51  O4  UNL     1      30.612  36.541  -5.115  1.00  0.00    -0.274 OA
ENDBRANCH  45  49
ENDBRANCH  43  45
ENDBRANCH   4  41
TORSDOF 22
ENDMDL