MODEL 3
REMARK VINA RESULT: -7.248618531      3.618      7.378
REMARK  20 active torsions:
REMARK  status: ('A' for Active; 'I' for Inactive)
REMARK    1  A    between atoms: C2_2  and  N1_3
REMARK    2  A    between atoms: N1_3  and  C5_6
REMARK    3  A    between atoms: C5_6  and  C6_7
REMARK    4  A    between atoms: C6_7  and  C7_8
REMARK    5  A    between atoms: C7_8  and  C8_9
REMARK    6  A    between atoms: C8_9  and  N2_10
REMARK    7  A    between atoms: C8_9  and  C18_27
REMARK       I    between atoms: N2_10  and  C9_11
REMARK    8  A    between atoms: C9_11  and  C10_13
REMARK    9  A    between atoms: C10_13  and  C11_14
REMARK   10  A    between atoms: C11_14  and  C12_15
REMARK   11  A    between atoms: C12_15  and  C13_16
REMARK   12  A    between atoms: C13_16  and  C14_17
REMARK   13  A    between atoms: C14_17  and  N3_18
REMARK   14  A    between atoms: C18_27  and  C19_29
REMARK   15  A    between atoms: C19_29  and  C20_30
REMARK   16  A    between atoms: C20_30  and  C21_31
REMARK   17  A    between atoms: C21_31  and  C22_32
REMARK       I    between atoms: C22_32  and  N6_34
REMARK   18  A    between atoms: C26_38  and  O4_39
REMARK   19  A    between atoms: C27_41  and  O5_42
REMARK   20  A    between atoms: C29_45  and  N7_46
ROOT
HETATM    1  C8  UNL     1      28.416  40.978  -2.374  1.00  0.00     0.134 C
ENDROOT
BRANCH   1   2
HETATM    2  C7  UNL     1      27.622  40.279  -1.285  1.00  0.00     0.078 C
BRANCH   2   3
HETATM    3  C6  UNL     1      28.492  39.016  -0.967  1.00  0.00     0.035 C
BRANCH   3   4
HETATM    4  C5  UNL     1      28.325  38.010  -2.029  1.00  0.00     0.237 C
BRANCH   4   5
HETATM    5  N1  UNL     1      29.588  37.308  -2.321  1.00  0.00    -0.075 N
HETATM    6  C3  UNL     1      30.555  37.695  -1.340  1.00  0.00     0.272 C
HETATM    7  C4  UNL     1      30.074  37.712  -3.636  1.00  0.00     0.272 C
BRANCH   5   8
HETATM    8  C2  UNL     1      29.317  35.897  -2.352  1.00  0.00     0.232 C
HETATM    9  C1  UNL     1      30.462  35.059  -2.834  1.00  0.00     0.034 C
ENDBRANCH   5   8
ENDBRANCH   4   5
ENDBRANCH   3   4
ENDBRANCH   2   3
ENDBRANCH   1   2
BRANCH   1  10
HETATM   10  N2  UNL     1      29.753  41.180  -2.154  1.00  0.00    -0.371 NA
HETATM   11  C9  UNL     1      31.092  41.376  -1.938  1.00  0.00     0.291 C
HETATM   12  O1  UNL     1      31.989  40.669  -2.454  1.00  0.00    -0.257 OA
BRANCH  11  13
HETATM   13  C10 UNL     1      31.605  42.479  -1.013  1.00  0.00     0.119 C
BRANCH  13  14
HETATM   14  C11 UNL     1      32.278  43.420  -2.059  1.00  0.00     0.010 C
BRANCH  14  15
HETATM   15  C12 UNL     1      32.152  44.816  -1.459  1.00  0.00     0.002 C
BRANCH  15  16
HETATM   16  C13 UNL     1      33.407  45.590  -1.310  1.00  0.00     0.020 C
BRANCH  16  17
HETATM   17  C14 UNL     1      34.670  44.770  -1.563  1.00  0.00     0.141 C
BRANCH  17  18
HETATM   18  N3  UNL     1      35.505  45.492  -2.496  1.00  0.00    -0.217 N
HETATM   19  C15 UNL     1      35.025  46.107  -3.735  1.00  0.00     0.161 C
HETATM   20  C16 UNL     1      36.238  46.219  -4.617  1.00  0.00     0.158 C
HETATM   21  N4  UNL     1      37.288  46.393  -3.609  1.00  0.00    -0.225 N
HETATM   22  C17 UNL     1      36.882  45.748  -2.378  1.00  0.00     0.669 C
ATOM     23  H4  UNL     1      38.167  46.890  -3.753  1.00  0.00     0.177 HD
HETATM   24  N5  UNL     1      37.670  45.489  -1.358  1.00  0.00    -0.235 N
ATOM     25  H52 UNL     1      37.384  45.035  -0.491  1.00  0.00     0.174 HD
ATOM     26  H51 UNL     1      38.670  45.675  -1.273  1.00  0.00     0.174 HD
ENDBRANCH  17  18
ENDBRANCH  16  17
ENDBRANCH  15  16
ENDBRANCH  14  15
ENDBRANCH  13  14
ENDBRANCH  11  13
ENDBRANCH   1  10
BRANCH   1  27
HETATM   27  C18 UNL     1      27.698  42.061  -3.132  1.00  0.00     0.185 C
HETATM   28  O2  UNL     1      28.265  42.824  -3.817  1.00  0.00    -0.290 OA
BRANCH  27  29
HETATM   29  C19 UNL     1      26.234  42.110  -2.936  1.00  0.00     0.086 C
BRANCH  29  30
HETATM   30  C20 UNL     1      25.597  42.417  -4.226  1.00  0.00     0.017 C
BRANCH  30  31
HETATM   31  C21 UNL     1      25.242  41.232  -5.100  1.00  0.00     0.103 C
BRANCH  31  32
HETATM   32  C22 UNL     1      23.918  40.668  -4.625  1.00  0.00     0.221 C
HETATM   33  O3  UNL     1      22.941  41.281  -5.109  1.00  0.00    -0.273 OA
HETATM   34  N6  UNL     1      23.808  39.622  -3.760  1.00  0.00    -0.323 N
HETATM   35  C23 UNL     1      25.021  38.928  -3.270  1.00  0.00     0.133 C
HETATM   36  C29 UNL     1      22.767  38.887  -3.062  1.00  0.00     0.299 C
HETATM   37  C24 UNL     1      24.591  37.502  -3.443  1.00  0.00     0.017 C
HETATM   38  C25 UNL     1      24.770  36.800  -2.139  1.00  0.00     0.041 C
HETATM   39  C28 UNL     1      23.021  37.578  -3.660  1.00  0.00     0.073 C
HETATM   40  C26 UNL     1      23.453  36.158  -1.782  1.00  0.00     0.147 C
HETATM   41  C27 UNL     1      22.702  36.275  -3.070  1.00  0.00     0.155 C
BRANCH  40  42
HETATM   42  O4  UNL     1      22.889  36.628  -0.651  1.00  0.00    -0.393 OA
ATOM     43  H4  UNL     1      23.439  36.563   0.120  1.00  0.00     0.210 HD
ENDBRANCH  40  42
BRANCH  41  44
HETATM   44  O5  UNL     1      21.470  35.748  -3.139  1.00  0.00    -0.392 OA
ATOM     45  H5  UNL     1      20.783  36.138  -2.613  1.00  0.00     0.210 HD
ENDBRANCH  41  44
BRANCH  36  46
HETATM   46  N7  UNL     1      21.500  39.452  -3.022  1.00  0.00    -0.057 N
HETATM   47  C30 UNL     1      21.580  40.837  -2.514  1.00  0.00     0.274 C
HETATM   48  C31 UNL     1      20.737  39.485  -4.250  1.00  0.00     0.274 C
HETATM   49  C32 UNL     1      20.571  38.858  -2.027  1.00  0.00     0.274 C
ENDBRANCH  36  46
ENDBRANCH  31  32
ENDBRANCH  30  31
ENDBRANCH  29  30
ENDBRANCH  27  29
ENDBRANCH   1  27
TORSDOF 20
ENDMDL