MODEL 3
REMARK VINA RESULT: -6.930147584      3.370      9.971
REMARK  21 active torsions:
REMARK  status: ('A' for Active; 'I' for Inactive)
REMARK    1  A    between atoms: N1_1  and  C1_5
REMARK    2  A    between atoms: C1_5  and  C2_6
REMARK    3  A    between atoms: C2_6  and  C3_7
REMARK    4  A    between atoms: C3_7  and  C4_8
REMARK    5  A    between atoms: C4_8  and  C5_9
REMARK    6  A    between atoms: C5_9  and  N2_10
REMARK    7  A    between atoms: C5_9  and  C17_27
REMARK       I    between atoms: N2_10  and  C6_11
REMARK    8  A    between atoms: C6_11  and  C7_13
REMARK    9  A    between atoms: C7_13  and  C8_14
REMARK   10  A    between atoms: C8_14  and  C9_15
REMARK   11  A    between atoms: C9_15  and  C10_16
REMARK   12  A    between atoms: C10_16  and  C11_17
REMARK   13  A    between atoms: C11_17  and  N3_18
REMARK       I    between atoms: C12_20  and  N5_22
REMARK   14  A    between atoms: C17_27  and  O2_28
REMARK   15  A    between atoms: C17_27  and  N6_30
REMARK   16  A    between atoms: C21_34  and  S1_35
REMARK   17  A    between atoms: S1_35  and  C22_37
REMARK   18  A    between atoms: C22_37  and  C23_38
REMARK   19  A    between atoms: C23_38  and  C24_39
REMARK   20  A    between atoms: C24_39  and  C25_40
REMARK       I    between atoms: C25_40  and  N7_42
REMARK   21  A    between atoms: C27_47  and  C28_48
ROOT
HETATM    1  C5  UNL     1      28.108  39.218  -1.977  1.00  0.00     0.240 C
ENDROOT
BRANCH   1   2
HETATM    2  C4  UNL     1      28.559  37.835  -1.868  1.00  0.00     0.048 C
BRANCH   2   3
HETATM    3  C3  UNL     1      29.797  37.421  -1.181  1.00  0.00     0.005 C
BRANCH   3   4
HETATM    4  C2  UNL     1      30.673  36.831  -2.269  1.00  0.00     0.027 C
BRANCH   4   5
HETATM    5  C1  UNL     1      29.932  36.570  -3.575  1.00  0.00     0.229 C
BRANCH   5   6
HETATM    6  N1  UNL     1      30.234  37.610  -4.585  1.00  0.00    -0.079 N
ATOM      7  H13 UNL     1      30.984  37.315  -5.212  1.00  0.00     0.274 HD
ATOM      8  H12 UNL     1      29.482  37.697  -5.268  1.00  0.00     0.274 HD
ATOM      9  H11 UNL     1      30.445  38.505  -4.145  1.00  0.00     0.274 HD
ENDBRANCH   5   6
ENDBRANCH   4   5
ENDBRANCH   3   4
ENDBRANCH   2   3
ENDBRANCH   1   2
BRANCH   1  10
HETATM   10  N2  UNL     1      29.297  39.966  -2.414  1.00  0.00    -0.401 NA
HETATM   11  C6  UNL     1      30.358  40.634  -2.807  1.00  0.00     0.287 C
HETATM   12  O1  UNL     1      31.008  40.614  -3.844  1.00  0.00    -0.258 OA
BRANCH  11  13
HETATM   13  C7  UNL     1      30.917  41.640  -1.758  1.00  0.00     0.119 C
BRANCH  13  14
HETATM   14  C8  UNL     1      30.940  43.036  -2.225  1.00  0.00     0.010 C
BRANCH  14  15
HETATM   15  C9  UNL     1      32.287  43.678  -2.438  1.00  0.00     0.002 C
BRANCH  15  16
HETATM   16  C10 UNL     1      33.097  43.349  -1.179  1.00  0.00     0.020 C
BRANCH  16  17
HETATM   17  C11 UNL     1      34.208  44.348  -1.013  1.00  0.00     0.122 C
BRANCH  17  18
HETATM   18  N3  UNL     1      33.976  45.176   0.105  1.00  0.00    -0.365 N
HETATM   19  C12 UNL     1      33.303  46.208   0.253  1.00  0.00     0.186 C
HETATM   20  N4  UNL     1      32.524  46.880  -0.746  1.00  0.00    -0.064 NA
HETATM   21  N5  UNL     1      33.307  46.772   1.566  1.00  0.00    -0.356 N
HETATM   22  C13 UNL     1      34.416  46.883   2.517  1.00  0.00     0.125 C
HETATM   23  C16 UNL     1      32.199  47.392   2.252  1.00  0.00     0.125 C
HETATM   24  C14 UNL     1      34.343  48.406   2.793  1.00  0.00     0.021 C
HETATM   25  C15 UNL     1      32.837  48.622   2.912  1.00  0.00     0.021 C
ATOM     26  H3  UNL     1      34.452  44.868   0.953  1.00  0.00     0.162 HD
ENDBRANCH  17  18
ENDBRANCH  16  17
ENDBRANCH  15  16
ENDBRANCH  14  15
ENDBRANCH  13  14
ENDBRANCH  11  13
ENDBRANCH   1  10
BRANCH   1  27
HETATM   27  C17 UNL     1      26.948  39.765  -2.627  1.00  0.00     0.151 C
BRANCH  27  28
HETATM   28  O2  UNL     1      26.476  38.987  -3.590  1.00  0.00    -0.347 OA
ATOM     29  H2  UNL     1      25.548  39.113  -3.750  1.00  0.00     0.219 HD
ENDBRANCH  27  28
BRANCH  27  30
HETATM   30  N6  UNL     1      26.208  40.938  -2.439  1.00  0.00    -0.351 N
HETATM   31  C18 UNL     1      26.335  42.303  -2.837  1.00  0.00     0.102 C
HETATM   32  C19 UNL     1      25.883  42.519  -1.315  1.00  0.00     0.052 C
HETATM   33  C27 UNL     1      25.143  42.902  -3.452  1.00  0.00     0.116 C
HETATM   34  C20 UNL     1      25.001  41.335  -1.778  1.00  0.00     0.105 C
HETATM   35  C21 UNL     1      24.111  42.024  -2.813  1.00  0.00     0.117 C
BRANCH  35  36
HETATM   36  S1  UNL     1      23.131  41.038  -3.786  1.00  0.00     0.022 S
HETATM   37  O3  UNL     1      23.812  39.948  -4.733  1.00  0.00    -0.258 OA
BRANCH  36  38
HETATM   38  C22 UNL     1      21.662  40.524  -2.903  1.00  0.00     0.109 C
BRANCH  38  39
HETATM   39  C23 UNL     1      21.620  39.031  -2.840  1.00  0.00     0.022 C
BRANCH  39  40
HETATM   40  C24 UNL     1      22.622  38.423  -1.958  1.00  0.00     0.104 C
BRANCH  40  41
HETATM   41  C25 UNL     1      22.356  37.035  -1.550  1.00  0.00     0.223 C
HETATM   42  O4  UNL     1      21.808  36.809  -0.410  1.00  0.00    -0.273 OA
HETATM   43  N7  UNL     1      22.664  35.955  -2.320  1.00  0.00    -0.304 N
HETATM   44  C26 UNL     1      23.459  35.666  -3.202  1.00  0.00     0.203 C
ATOM     45  H7  UNL     1      22.061  35.163  -2.098  1.00  0.00     0.171 HD
HETATM   46  N8  UNL     1      24.445  36.500  -3.755  1.00  0.00    -0.066 NA
HETATM   47  N9  UNL     1      23.357  34.310  -3.736  1.00  0.00    -0.066 NA
ENDBRANCH  40  41
ENDBRANCH  39  40
ENDBRANCH  38  39
ENDBRANCH  36  38
ENDBRANCH  35  36
BRANCH  33  48
HETATM   48  C28 UNL     1      25.109  43.204  -4.838  1.00  0.00     0.238 C
HETATM   49  N10 UNL     1      25.930  42.545  -5.770  1.00  0.00    -0.062 NA
HETATM   50  O5  UNL     1      24.319  44.083  -5.282  1.00  0.00    -0.276 OA
ENDBRANCH  33  48
ENDBRANCH  27  30
ENDBRANCH   1  27
TORSDOF 21
ENDMDL