MODEL 3
REMARK VINA RESULT: -8.036914917      1.099      1.555
REMARK  21 active torsions:
REMARK  status: ('A' for Active; 'I' for Inactive)
REMARK    1  A    between atoms: C4_4  and  C5_5
REMARK    2  A    between atoms: C5_5  and  N1_6
REMARK    3  A    between atoms: N3_11  and  C9_12
REMARK    4  A    between atoms: C9_12  and  C10_13
REMARK    5  A    between atoms: C10_13  and  N4_14
REMARK       I    between atoms: N4_14  and  C11_16
REMARK    6  A    between atoms: C11_16  and  C12_18
REMARK    7  A    between atoms: C12_18  and  C13_19
REMARK    8  A    between atoms: C12_18  and  N6_24
REMARK    9  A    between atoms: C13_19  and  C14_20
REMARK   10  A    between atoms: C14_20  and  C15_21
REMARK   11  A    between atoms: N6_24  and  C16_26
REMARK   12  A    between atoms: C16_26  and  C17_27
REMARK   13  A    between atoms: C17_27  and  O3_28
REMARK   14  A    between atoms: C17_27  and  C18_30
REMARK   15  A    between atoms: C18_30  and  N7_31
REMARK   16  A    between atoms: N7_31  and  C19_32
REMARK   17  A    between atoms: C19_32  and  C20_33
REMARK   18  A    between atoms: C20_33  and  C21_34
REMARK   19  A    between atoms: C21_34  and  C22_35
REMARK   20  A    between atoms: C22_35  and  N8_36
REMARK   21  A    between atoms: C25_39  and  O4_40
ROOT
HETATM    1  C12 UNL     1      29.801  38.259  -1.495  1.00  0.00     0.169 C
ENDROOT
BRANCH   1   2
HETATM    2  C11 UNL     1      28.603  38.955  -1.008  1.00  0.00     0.240 C
HETATM    3  N4  UNL     1      27.469  39.141  -1.817  1.00  0.00    -0.358 N
ATOM      4  H4  UNL     1      27.475  38.770  -2.767  1.00  0.00     0.162 HD
HETATM    5  O1  UNL     1      28.595  39.393   0.172  1.00  0.00    -0.271 OA
BRANCH   3   6
HETATM    6  C10 UNL     1      26.284  39.845  -1.343  1.00  0.00     0.153 C
BRANCH   6   7
HETATM    7  C9  UNL     1      25.733  40.703  -2.413  1.00  0.00     0.287 C
BRANCH   7   8
HETATM    8  N3  UNL     1      24.421  40.342  -2.908  1.00  0.00     0.041 N
HETATM    9  N2  UNL     1      24.411  40.667  -4.250  1.00  0.00    -0.225 N
HETATM   10  C7  UNL     1      23.492  40.014  -5.090  1.00  0.00     0.117 C
HETATM   11  C8  UNL     1      24.681  42.037  -4.564  1.00  0.00     0.184 C
HETATM   12  C6  UNL     1      22.477  39.144  -4.444  1.00  0.00     0.286 C
HETATM   13  N1  UNL     1      22.634  38.997  -3.029  1.00  0.00    -0.032 N
HETATM   14  C32 UNL     1      22.136  40.168  -2.342  1.00  0.00     0.270 C
HETATM   15  C33 UNL     1      24.077  38.953  -2.768  1.00  0.00     0.501 C
HETATM   16  C31 UNL     1      23.368  41.016  -2.167  1.00  0.00     0.295 C
BRANCH  13  17
HETATM   17  C5  UNL     1      21.993  37.848  -2.460  1.00  0.00     0.267 C
BRANCH  17  18
HETATM   18  C4  UNL     1      22.786  36.599  -2.520  1.00  0.00     0.003 C
HETATM   19  C2  UNL     1      22.395  35.556  -3.216  1.00  0.00    -0.090 C
HETATM   20  C1  UNL     1      23.229  34.330  -3.241  1.00  0.00     0.042 C
HETATM   21  C3  UNL     1      21.130  35.602  -3.975  1.00  0.00     0.042 C
ENDBRANCH  17  18
ENDBRANCH  13  17
ENDBRANCH   7   8
ENDBRANCH   6   7
ENDBRANCH   3   6
ENDBRANCH   1   2
BRANCH   1  22
HETATM   22  C13 UNL     1      29.543  37.324  -2.656  1.00  0.00     0.043 C
BRANCH  22  23
HETATM   23  C14 UNL     1      29.789  35.904  -2.318  1.00  0.00     0.102 C
BRANCH  23  24
HETATM   24  C15 UNL     1      30.514  35.124  -3.342  1.00  0.00     0.231 C
HETATM   25  N5  UNL     1      30.845  35.683  -4.615  1.00  0.00    -0.062 NA
HETATM   26  O2  UNL     1      30.859  33.944  -3.118  1.00  0.00    -0.277 OA
ENDBRANCH  23  24
ENDBRANCH  22  23
ENDBRANCH   1  22
BRANCH   1  27
HETATM   27  N6  UNL     1      30.812  39.228  -1.869  1.00  0.00    -0.407 N
ATOM     28  H6  UNL     1      31.743  39.187  -1.456  1.00  0.00     0.154 HD
BRANCH  27  29
HETATM   29  C16 UNL     1      30.493  40.222  -2.804  1.00  0.00     0.148 C
BRANCH  29  30
HETATM   30  C17 UNL     1      31.277  41.490  -2.333  1.00  0.00     0.161 C
BRANCH  30  31
HETATM   31  O3  UNL     1      32.564  41.067  -2.045  1.00  0.00    -0.392 OA
ATOM     32  H3  UNL     1      32.529  40.675  -1.180  1.00  0.00     0.210 HD
ENDBRANCH  30  31
BRANCH  30  33
HETATM   33  C18 UNL     1      30.507  42.052  -1.215  1.00  0.00     0.270 C
BRANCH  33  34
HETATM   34  N7  UNL     1      29.878  43.343  -1.411  1.00  0.00    -0.065 N
HETATM   35  C27 UNL     1      29.800  44.118  -0.225  1.00  0.00     0.237 C
HETATM   36  C28 UNL     1      28.430  44.760  -0.174  1.00  0.00     0.029 C
HETATM   37  C29 UNL     1      27.567  43.811  -0.973  1.00  0.00     0.029 C
HETATM   38  C30 UNL     1      28.513  43.064  -1.842  1.00  0.00     0.237 C
BRANCH  34  39
HETATM   39  C19 UNL     1      30.570  43.980  -2.505  1.00  0.00     0.237 C
BRANCH  39  40
HETATM   40  C20 UNL     1      31.092  45.354  -2.264  1.00  0.00     0.030 C
BRANCH  40  41
HETATM   41  C21 UNL     1      32.171  45.746  -3.229  1.00  0.00     0.032 C
BRANCH  41  42
HETATM   42  C22 UNL     1      33.491  45.104  -3.078  1.00  0.00     0.272 C
BRANCH  42  43
HETATM   43  N8  UNL     1      34.657  45.905  -3.018  1.00  0.00     0.091 N
HETATM   44  C23 UNL     1      35.545  45.210  -2.039  1.00  0.00     0.275 C
HETATM   45  C24 UNL     1      36.870  45.904  -2.179  1.00  0.00     0.064 C
HETATM   46  C25 UNL     1      36.920  46.309  -3.617  1.00  0.00     0.148 C
HETATM   47  C26 UNL     1      35.528  45.915  -4.151  1.00  0.00     0.303 C
BRANCH  46  48
HETATM   48  O4  UNL     1      37.887  45.596  -4.344  1.00  0.00    -0.394 OA
ATOM     49  H4  UNL     1      37.955  45.890  -5.245  1.00  0.00     0.210 HD
ENDBRANCH  46  48
ENDBRANCH  42  43
ENDBRANCH  41  42
ENDBRANCH  40  41
ENDBRANCH  39  40
ENDBRANCH  34  39
ENDBRANCH  33  34
ENDBRANCH  30  33
ENDBRANCH  29  30
ENDBRANCH  27  29
ENDBRANCH   1  27
TORSDOF 21
ENDMDL