MODEL 1
REMARK VINA RESULT: -7.081442675      0.000      0.000
REMARK  21 active torsions:
REMARK  status: ('A' for Active; 'I' for Inactive)
REMARK    1  A    between atoms: C2_2  and  C3_3
REMARK    2  A    between atoms: C3_3  and  N1_4
REMARK       I    between atoms: N1_4  and  C4_6
REMARK    3  A    between atoms: C4_6  and  C5_8
REMARK    4  A    between atoms: C5_8  and  C6_9
REMARK    5  A    between atoms: C5_8  and  N5_17
REMARK    6  A    between atoms: C6_9  and  C7_10
REMARK    7  A    between atoms: C7_10  and  C8_11
REMARK    8  A    between atoms: C8_11  and  N2_12
REMARK       I    between atoms: N5_17  and  C11_19
REMARK    9  A    between atoms: C11_19  and  C12_21
REMARK   10  A    between atoms: C12_21  and  C13_22
REMARK   11  A    between atoms: C13_22  and  C14_23
REMARK   12  A    between atoms: C14_23  and  C15_24
REMARK   13  A    between atoms: C14_23  and  N6_28
REMARK   14  A    between atoms: C16_25  and  C17_26
REMARK   15  A    between atoms: N6_28  and  S1_30
REMARK   16  A    between atoms: S1_30  and  N7_33
REMARK   17  A    between atoms: N7_33  and  C20_35
REMARK   18  A    between atoms: C25_40  and  C26_41
REMARK   19  A    between atoms: C26_41  and  C27_42
REMARK   20  A    between atoms: C27_42  and  C28_43
REMARK   21  A    between atoms: C28_43  and  N8_44
ROOT
HETATM    1  C14 UNL     1      29.839  42.768  -1.000  1.00  0.00     0.177 C
ENDROOT
BRANCH   1   2
HETATM    2  C13 UNL     1      31.119  42.126  -1.165  1.00  0.00     0.012 C
BRANCH   2   3
HETATM    3  C12 UNL     1      32.312  42.619  -1.826  1.00  0.00     0.073 C
BRANCH   3   4
HETATM    4  C11 UNL     1      33.266  43.529  -1.205  1.00  0.00     0.243 C
HETATM    5  N5  UNL     1      33.235  44.934  -1.542  1.00  0.00    -0.340 N
HETATM    6  C10 UNL     1      32.298  45.372  -2.544  1.00  0.00     0.154 C
HETATM    7  O2  UNL     1      34.145  43.218  -0.365  1.00  0.00    -0.268 OA
BRANCH   5   8
HETATM    8  C5  UNL     1      34.152  45.857  -0.917  1.00  0.00     0.179 C
BRANCH   8   9
HETATM    9  C4  UNL     1      35.041  46.497  -1.884  1.00  0.00     0.240 C
HETATM   10  N1  UNL     1      35.811  45.698  -2.780  1.00  0.00    -0.356 N
ATOM     11  H1  UNL     1      35.728  44.683  -2.732  1.00  0.00     0.162 HD
HETATM   12  O1  UNL     1      35.138  47.742  -1.937  1.00  0.00    -0.271 OA
BRANCH  10  13
HETATM   13  C3  UNL     1      36.700  46.277  -3.747  1.00  0.00     0.149 C
BRANCH  13  14
HETATM   14  C2  UNL     1      36.081  46.435  -5.054  1.00  0.00    -0.018 C
HETATM   15  C1  UNL     1      34.952  45.915  -5.454  1.00  0.00     0.008 C
ENDBRANCH  13  14
ENDBRANCH  10  13
ENDBRANCH   8   9
BRANCH   8  16
HETATM   16  C6  UNL     1      33.533  46.811   0.048  1.00  0.00     0.037 C
BRANCH  16  17
HETATM   17  C7  UNL     1      33.911  46.655   1.480  1.00  0.00     0.022 C
BRANCH  17  18
HETATM   18  C8  UNL     1      34.860  47.817   1.836  1.00  0.00     0.122 C
BRANCH  18  19
HETATM   19  N2  UNL     1      36.151  47.613   1.257  1.00  0.00    -0.367 N
HETATM   20  C9  UNL     1      36.820  48.609   0.813  1.00  0.00     0.196 C
HETATM   21  N3  UNL     1      38.117  48.379   0.235  1.00  0.00    -0.067 NA
HETATM   22  N4  UNL     1      36.280  49.917   0.896  1.00  0.00    -0.067 NA
ATOM     23  H2  UNL     1      36.540  46.672   1.197  1.00  0.00     0.161 HD
ENDBRANCH  18  19
ENDBRANCH  17  18
ENDBRANCH  16  17
ENDBRANCH   8  16
ENDBRANCH   5   8
ENDBRANCH   3   4
ENDBRANCH   2   3
ENDBRANCH   1   2
BRANCH   1  24
HETATM   24  C15 UNL     1      29.825  43.961  -0.149  1.00  0.00    -0.082 C
HETATM   25  C16 UNL     1      29.878  44.970   0.557  1.00  0.00    -0.105 C
BRANCH  25  26
HETATM   26  C17 UNL     1      29.935  46.154   1.412  1.00  0.00     0.089 C
HETATM   27  C18 UNL     1      29.854  47.428   0.603  1.00  0.00     0.018 C
ENDBRANCH  25  26
ENDBRANCH   1  24
BRANCH   1  28
HETATM   28  N6  UNL     1      29.024  43.004  -2.168  1.00  0.00    -0.178 NA
HETATM   29  C19 UNL     1      29.687  42.885  -3.425  1.00  0.00     0.133 C
BRANCH  28  30
HETATM   30  S1  UNL     1      27.745  41.820  -2.178  1.00  0.00     0.300 S
HETATM   31  O3  UNL     1      26.861  42.012  -0.973  1.00  0.00    -0.188 OA
HETATM   32  O4  UNL     1      26.923  42.052  -3.408  1.00  0.00    -0.188 OA
BRANCH  30  33
HETATM   33  N7  UNL     1      28.410  40.256  -2.250  1.00  0.00    -0.302 N
ATOM     34  H7  UNL     1      29.166  40.008  -2.887  1.00  0.00     0.173 HD
BRANCH  33  35
HETATM   35  C20 UNL     1      27.823  39.320  -1.346  1.00  0.00     0.098 C
HETATM   36  C21 UNL     1      28.890  38.943  -0.310  1.00  0.00     0.026 C
HETATM   37  C22 UNL     1      29.963  38.072  -0.859  1.00  0.00     0.002 C
HETATM   38  C23 UNL     1      29.919  37.818  -2.325  1.00  0.00     0.001 C
HETATM   39  C24 UNL     1      28.572  37.534  -2.897  1.00  0.00     0.007 C
HETATM   40  C25 UNL     1      27.435  38.070  -2.048  1.00  0.00     0.009 C
BRANCH  40  41
HETATM   41  C26 UNL     1      26.201  38.102  -2.865  1.00  0.00     0.008 C
BRANCH  41  42
HETATM   42  C27 UNL     1      25.122  39.029  -2.431  1.00  0.00     0.020 C
BRANCH  42  43
HETATM   43  C28 UNL     1      23.813  38.453  -2.997  1.00  0.00     0.122 C
BRANCH  43  44
HETATM   44  N8  UNL     1      22.920  38.074  -1.937  1.00  0.00    -0.367 N
HETATM   45  C29 UNL     1      22.775  36.921  -1.433  1.00  0.00     0.196 C
HETATM   46  N9  UNL     1      21.824  36.772  -0.378  1.00  0.00    -0.067 NA
HETATM   47  N10 UNL     1      23.507  35.785  -1.867  1.00  0.00    -0.067 NA
ATOM     48  H8  UNL     1      22.339  38.815  -1.546  1.00  0.00     0.161 HD
ENDBRANCH  43  44
ENDBRANCH  42  43
ENDBRANCH  41  42
ENDBRANCH  40  41
ENDBRANCH  33  35
ENDBRANCH  30  33
ENDBRANCH  28  30
ENDBRANCH   1  28
TORSDOF 21
ENDMDL