MODEL 1
REMARK VINA RESULT: -6.367497850      0.000      0.000
REMARK  23 active torsions:
REMARK  status: ('A' for Active; 'I' for Inactive)
REMARK    1  A    between atoms: C2_2  and  C3_3
REMARK    2  A    between atoms: C3_3  and  C4_4
REMARK    3  A    between atoms: C4_4  and  C5_5
REMARK    4  A    between atoms: C5_5  and  C6_6
REMARK    5  A    between atoms: C6_6  and  N1_7
REMARK    6  A    between atoms: C6_6  and  C14_22
REMARK    7  A    between atoms: C6_6  and  C28_46
REMARK       I    between atoms: N1_7  and  C7_9
REMARK    8  A    between atoms: C7_9  and  C8_11
REMARK    9  A    between atoms: C8_11  and  N2_12
REMARK   10  A    between atoms: C8_11  and  C9_16
REMARK   11  A    between atoms: C9_16  and  C10_17
REMARK   12  A    between atoms: C10_17  and  N3_18
REMARK       I    between atoms: C14_22  and  N4_24
REMARK   13  A    between atoms: N4_24  and  C15_26
REMARK   14  A    between atoms: C15_26  and  O3_27
REMARK   15  A    between atoms: C15_26  and  C16_29
REMARK   16  A    between atoms: C16_29  and  C17_30
REMARK   17  A    between atoms: C17_30  and  C18_31
REMARK       I    between atoms: C18_31  and  N5_33
REMARK   18  A    between atoms: C22_37  and  C23_38
REMARK   19  A    between atoms: C23_38  and  C24_39
REMARK   20  A    between atoms: C23_38  and  N6_42
REMARK   21  A    between atoms: C24_39  and  C25_40
REMARK       I    between atoms: N6_42  and  C27_43
REMARK   22  A    between atoms: C28_46  and  O5_47
REMARK   23  A    between atoms: C28_46  and  N9_49
ROOT
HETATM    1  C6  UNL     1      30.257  43.271  -1.794  1.00  0.00     0.179 C
ENDROOT
BRANCH   1   2
HETATM    2  C5  UNL     1      29.764  43.471  -3.171  1.00  0.00     0.050 C
BRANCH   2   3
HETATM    3  C4  UNL     1      29.603  44.769  -3.821  1.00  0.00     0.004 C
BRANCH   3   4
HETATM    4  C3  UNL     1      28.057  45.050  -3.959  1.00  0.00    -0.000 C
BRANCH   4   5
HETATM    5  C2  UNL     1      27.841  45.509  -5.368  1.00  0.00    -0.005 C
HETATM    6  C1  UNL     1      28.951  45.215  -6.315  1.00  0.00     0.005 C
ENDBRANCH   4   5
ENDBRANCH   3   4
ENDBRANCH   2   3
ENDBRANCH   1   2
BRANCH   1   7
HETATM    7  N1  UNL     1      30.235  41.788  -1.577  1.00  0.00    -0.335 N
HETATM    8  C7  UNL     1      29.152  40.944  -1.573  1.00  0.00     0.249 C
HETATM    9  O1  UNL     1      27.989  41.405  -1.768  1.00  0.00    -0.271 OA
ATOM     10  H1  UNL     1      31.140  41.350  -1.410  1.00  0.00     0.164 HD
BRANCH   8  11
HETATM   11  C8  UNL     1      29.226  39.481  -1.346  1.00  0.00     0.276 C
BRANCH  11  12
HETATM   12  N2  UNL     1      29.620  39.248   0.027  1.00  0.00    -0.066 N
ATOM     13  H23 UNL     1      28.970  39.662   0.696  1.00  0.00     0.275 HD
ATOM     14  H22 UNL     1      29.506  38.274   0.307  1.00  0.00     0.275 HD
ATOM     15  H21 UNL     1      30.575  39.582   0.151  1.00  0.00     0.275 HD
ENDBRANCH  11  12
BRANCH  11  16
HETATM   16  C9  UNL     1      30.339  38.960  -2.283  1.00  0.00     0.070 C
BRANCH  16  17
HETATM   17  C10 UNL     1      29.785  37.976  -3.283  1.00  0.00     0.238 C
BRANCH  17  18
HETATM   18  N3  UNL     1      30.178  36.621  -2.961  1.00  0.00    -0.079 N
HETATM   19  C11 UNL     1      31.302  36.668  -2.041  1.00  0.00     0.271 C
HETATM   20  C12 UNL     1      30.545  35.838  -4.097  1.00  0.00     0.271 C
HETATM   21  C13 UNL     1      29.102  35.941  -2.243  1.00  0.00     0.271 C
ENDBRANCH  17  18
ENDBRANCH  16  17
ENDBRANCH  11  16
ENDBRANCH   8  11
ENDBRANCH   1   7
BRANCH   1  22
HETATM   22  C14 UNL     1      31.772  43.475  -1.888  1.00  0.00     0.260 C
HETATM   23  O2  UNL     1      32.476  42.875  -2.739  1.00  0.00    -0.270 OA
HETATM   24  N4  UNL     1      32.408  44.330  -0.993  1.00  0.00    -0.309 N
ATOM     25  H4  UNL     1      31.802  44.880  -0.383  1.00  0.00     0.170 HD
BRANCH  24  26
HETATM   26  C15 UNL     1      33.769  44.516  -0.838  1.00  0.00     0.118 C
BRANCH  26  27
HETATM   27  O3  UNL     1      34.379  43.441  -0.335  1.00  0.00    -0.349 OA
ATOM     28  H3  UNL     1      34.720  43.591   0.538  1.00  0.00     0.219 HD
ENDBRANCH  26  27
BRANCH  26  29
HETATM   29  C16 UNL     1      34.701  45.604  -1.091  1.00  0.00     0.093 C
BRANCH  29  30
HETATM   30  C17 UNL     1      35.269  45.380  -2.462  1.00  0.00     0.111 C
BRANCH  30  31
HETATM   31  C18 UNL     1      34.604  45.978  -3.614  1.00  0.00     0.220 C
HETATM   32  O4  UNL     1      33.343  46.001  -3.736  1.00  0.00    -0.273 OA
HETATM   33  N5  UNL     1      35.421  46.589  -4.645  1.00  0.00    -0.344 N
HETATM   34  C19 UNL     1      36.871  46.325  -4.714  1.00  0.00     0.126 C
HETATM   35  C22 UNL     1      35.030  47.566  -5.553  1.00  0.00     0.123 C
HETATM   36  C20 UNL     1      37.297  46.840  -6.046  1.00  0.00     0.022 C
HETATM   37  C21 UNL     1      36.203  47.798  -6.488  1.00  0.00     0.030 C
BRANCH  35  38
HETATM   38  C23 UNL     1      33.741  47.386  -6.335  1.00  0.00     0.189 C
BRANCH  38  39
HETATM   39  C24 UNL     1      33.020  48.723  -6.164  1.00  0.00     0.041 C
BRANCH  39  40
HETATM   40  C25 UNL     1      31.548  48.662  -6.302  1.00  0.00    -0.001 C
HETATM   41  C26 UNL     1      30.850  48.177  -5.055  1.00  0.00     0.005 C
ENDBRANCH  39  40
ENDBRANCH  38  39
BRANCH  38  42
HETATM   42  N6  UNL     1      33.883  46.920  -7.613  1.00  0.00    -0.413 NA
HETATM   43  C27 UNL     1      33.717  46.520  -8.711  1.00  0.00     0.270 C
HETATM   44  N7  UNL     1      34.831  46.208  -9.585  1.00  0.00    -0.053 NA
HETATM   45  N8  UNL     1      32.443  46.258  -9.309  1.00  0.00    -0.053 NA
ENDBRANCH  38  42
ENDBRANCH  35  38
ENDBRANCH  30  31
ENDBRANCH  29  30
ENDBRANCH  26  29
ENDBRANCH  24  26
ENDBRANCH   1  22
BRANCH   1  46
HETATM   46  C28 UNL     1      29.648  43.930  -0.673  1.00  0.00     0.151 C
BRANCH  46  47
HETATM   47  O5  UNL     1      30.094  43.422   0.488  1.00  0.00    -0.347 OA
ATOM     48  H5  UNL     1      29.505  43.631   1.203  1.00  0.00     0.219 HD
ENDBRANCH  46  47
BRANCH  46  49
HETATM   49  N9  UNL     1      28.727  44.935  -0.440  1.00  0.00    -0.372 N
HETATM   50  C29 UNL     1      27.303  44.949  -0.312  1.00  0.00     0.150 C
HETATM   51  C30 UNL     1      29.283  46.347  -0.368  1.00  0.00     0.150 C
ENDBRANCH  46  49
ENDBRANCH   1  46
TORSDOF 23
ENDMDL