MODEL 3
REMARK VINA RESULT: -7.576637832      3.582      7.473
REMARK  19 active torsions:
REMARK  status: ('A' for Active; 'I' for Inactive)
REMARK    1  A    between atoms: C2_2  and  C3_3
REMARK    2  A    between atoms: C3_3  and  C4_4
REMARK    3  A    between atoms: C4_4  and  C5_5
REMARK    4  A    between atoms: C5_5  and  C6_6
REMARK    5  A    between atoms: C6_6  and  C7_7
REMARK    6  A    between atoms: C7_7  and  C8_8
REMARK    7  A    between atoms: C8_8  and  C9_9
REMARK    8  A    between atoms: C9_9  and  N1_10
REMARK    9  A    between atoms: C9_9  and  C30_47
REMARK       I    between atoms: N1_10  and  C10_12
REMARK   10  A    between atoms: C10_12  and  C11_14
REMARK   11  A    between atoms: N2_18  and  C15_19
REMARK   12  A    between atoms: C15_19  and  O2_20
REMARK   13  A    between atoms: C16_22  and  N3_23
REMARK   14  A    between atoms: C18_26  and  C19_27
REMARK   15  A    between atoms: C19_27  and  C20_28
REMARK   16  A    between atoms: C20_28  and  C21_29
REMARK   17  A    between atoms: C21_29  and  N4_30
REMARK       I    between atoms: N7_35  and  C23_36
REMARK   18  A    between atoms: N9_38  and  C24_40
REMARK   19  A    between atoms: C24_40  and  C25_41
ROOT
HETATM    1  C15 UNL     1      29.718  43.365  -1.114  1.00  0.00     0.155 C
HETATM    2  C16 UNL     1      30.505  43.997  -0.083  1.00  0.00     0.160 C
ENDROOT
BRANCH   2   3
HETATM    3  N3  UNL     1      31.511  44.954  -0.411  1.00  0.00    -0.238 N
HETATM    4  C17 UNL     1      31.610  46.296   0.048  1.00  0.00     0.255 C
HETATM    5  O3  UNL     1      30.659  46.976   0.479  1.00  0.00    -0.270 OA
HETATM    6  C18 UNL     1      33.041  46.684  -0.097  1.00  0.00     0.190 C
HETATM    7  N7  UNL     1      33.380  45.953  -1.296  1.00  0.00    -0.259 N
HETATM    8  C23 UNL     1      34.293  46.361  -2.347  1.00  0.00     0.195 C
HETATM    9  C29 UNL     1      32.648  44.748  -1.268  1.00  0.00     0.338 C
HETATM   10  N8  UNL     1      34.928  47.606  -2.214  1.00  0.00    -0.063 NA
HETATM   11  N9  UNL     1      34.499  45.610  -3.346  1.00  0.00    -0.361 N
ATOM     12  H9  UNL     1      34.007  44.717  -3.387  1.00  0.00     0.162 HD
HETATM   13  O4  UNL     1      32.945  43.695  -1.878  1.00  0.00    -0.246 OA
BRANCH   6  14
HETATM   14  C19 UNL     1      33.873  46.153   1.039  1.00  0.00     0.037 C
BRANCH  14  15
HETATM   15  C20 UNL     1      33.989  47.172   2.158  1.00  0.00     0.022 C
BRANCH  15  16
HETATM   16  C21 UNL     1      35.052  48.194   1.886  1.00  0.00     0.122 C
BRANCH  16  17
HETATM   17  N4  UNL     1      36.024  47.740   0.924  1.00  0.00    -0.367 N
HETATM   18  C22 UNL     1      37.140  48.344   0.690  1.00  0.00     0.196 C
HETATM   19  N5  UNL     1      37.521  49.530   1.370  1.00  0.00    -0.067 NA
HETATM   20  N6  UNL     1      37.974  47.772  -0.294  1.00  0.00    -0.067 NA
ATOM     21  H4  UNL     1      35.817  46.891   0.397  1.00  0.00     0.161 HD
ENDBRANCH  16  17
ENDBRANCH  15  16
ENDBRANCH  14  15
ENDBRANCH   6  14
BRANCH  11  22
HETATM   22  C24 UNL     1      35.377  45.940  -4.411  1.00  0.00     0.149 C
BRANCH  22  23
HETATM   23  C25 UNL     1      34.724  45.902  -5.742  1.00  0.00    -0.005 C
HETATM   24  C26 UNL     1      35.316  46.442  -6.774  1.00  0.00    -0.090 C
HETATM   25  C27 UNL     1      34.673  46.416  -8.129  1.00  0.00     0.042 C
HETATM   26  C28 UNL     1      36.643  47.112  -6.616  1.00  0.00     0.042 C
ENDBRANCH  22  23
ENDBRANCH  11  22
ENDBRANCH   2   3
BRANCH   1  27
HETATM   27  N2  UNL     1      29.649  43.460  -2.485  1.00  0.00    -0.347 N
HETATM   28  C11 UNL     1      29.765  42.389  -3.512  1.00  0.00     0.178 C
HETATM   29  C12 UNL     1      28.413  42.577  -4.165  1.00  0.00     0.037 C
HETATM   30  C13 UNL     1      28.249  44.097  -4.192  1.00  0.00     0.022 C
HETATM   31  C14 UNL     1      29.474  44.592  -3.409  1.00  0.00     0.126 C
BRANCH  28  32
HETATM   32  C10 UNL     1      30.035  41.066  -3.023  1.00  0.00     0.241 C
HETATM   33  N1  UNL     1      29.001  40.224  -2.638  1.00  0.00    -0.346 N
ATOM     34  H1  UNL     1      28.057  40.607  -2.695  1.00  0.00     0.163 HD
HETATM   35  O1  UNL     1      31.256  40.664  -2.946  1.00  0.00    -0.271 OA
BRANCH  33  36
HETATM   36  C9  UNL     1      29.119  38.833  -2.154  1.00  0.00     0.173 C
BRANCH  36  37
HETATM   37  C8  UNL     1      28.074  38.043  -2.773  1.00  0.00     0.034 C
BRANCH  37  38
HETATM   38  C7  UNL     1      26.741  38.589  -3.060  1.00  0.00     0.002 C
BRANCH  38  39
HETATM   39  C6  UNL     1      25.658  38.173  -2.075  1.00  0.00     0.000 C
BRANCH  39  40
HETATM   40  C5  UNL     1      25.118  36.806  -2.452  1.00  0.00     0.000 C
BRANCH  40  41
HETATM   41  C4  UNL     1      23.880  36.421  -1.678  1.00  0.00     0.000 C
BRANCH  41  42
HETATM   42  C3  UNL     1      22.800  35.942  -2.650  1.00  0.00    -0.000 C
BRANCH  42  43
HETATM   43  C2  UNL     1      23.453  35.109  -3.719  1.00  0.00    -0.005 C
HETATM   44  C1  UNL     1      23.044  33.681  -3.557  1.00  0.00     0.005 C
ENDBRANCH  42  43
ENDBRANCH  41  42
ENDBRANCH  40  41
ENDBRANCH  39  40
ENDBRANCH  38  39
ENDBRANCH  37  38
ENDBRANCH  36  37
BRANCH  36  45
HETATM   45  C30 UNL     1      29.050  38.891  -0.641  1.00  0.00     0.254 C
HETATM   46  N10 UNL     1      29.839  38.104   0.212  1.00  0.00    -0.060 NA
HETATM   47  O5  UNL     1      28.218  39.708  -0.169  1.00  0.00    -0.275 OA
ENDBRANCH  36  45
ENDBRANCH  33  36
ENDBRANCH  28  32
ENDBRANCH   1  27
BRANCH   1  48
HETATM   48  O2  UNL     1      28.862  42.495  -0.593  1.00  0.00    -0.345 OA
ATOM     49  H2  UNL     1      29.018  41.597  -0.859  1.00  0.00     0.219 HD
ENDBRANCH   1  48
TORSDOF 19
ENDMDL