MODEL 1
REMARK VINA RESULT: -3.637119479      0.000      0.000
REMARK  2 active torsions:
REMARK  status: ('A' for Active; 'I' for Inactive)
REMARK    1  A    between atoms: N2_6  and  C4_8
REMARK    2  A    between atoms: C4_8  and  C5_9
ROOT
HETATM    1  C1  UNL     1      29.654  56.486  42.836  1.00  0.00     0.027 C
HETATM    2  C2  UNL     1      30.208  55.946  44.144  1.00  0.00     0.121 C
HETATM    3  N1  UNL     1      28.965  55.786  44.916  1.00  0.00    -0.380 N
ATOM      4  H1  UNL     1      28.901  55.801  45.935  1.00  0.00     0.160 HD
HETATM    5  C3  UNL     1      27.872  55.608  44.035  1.00  0.00     0.072 C
HETATM    6  N2  UNL     1      26.644  55.528  44.365  1.00  0.00    -0.378 N
ATOM      7  H2  UNL     1      25.942  55.399  43.637  1.00  0.00     0.160 HD
HETATM    8  C7  UNL     1      28.466  55.534  42.651  1.00  0.00     0.077 C
ENDROOT
BRANCH   6   9
HETATM    9  C4  UNL     1      26.229  55.615  45.719  1.00  0.00     0.155 C
BRANCH   9  10
HETATM   10  C5  UNL     1      26.301  57.018  46.283  1.00  0.00     0.229 A
HETATM   11  C6  UNL     1      25.983  57.225  47.739  1.00  0.00     0.267 A
HETATM   12  N3  UNL     1      27.351  57.388  47.180  1.00  0.00    -0.066 N
ATOM     13  H32 UNL     1      28.259  56.985  47.408  1.00  0.00     0.277 HD
ATOM     14  H31 UNL     1      28.034  58.146  47.194  1.00  0.00     0.277 HD
ENDBRANCH   9  10
ENDBRANCH   6   9
TORSDOF 2
ENDMDL