MODEL 4
REMARK VINA RESULT: -3.859604407      1.283      1.373
REMARK  2 active torsions:
REMARK  status: ('A' for Active; 'I' for Inactive)
REMARK    1  A    between atoms: C2_2  and  C3_3
REMARK    2  A    between atoms: N1_5  and  C5_6
ROOT
HETATM    1  C3  UNL     1      28.705  56.756  45.014  1.00  0.00     0.227 C
HETATM    2  C4  UNL     1      27.882  55.842  44.165  1.00  0.00     0.164 C
HETATM    3  N1  UNL     1      28.750  55.548  43.046  1.00  0.00    -0.333 N
HETATM    4  C6  UNL     1      30.045  56.186  43.307  1.00  0.00     0.359 C
HETATM    5  N2  UNL     1      30.092  56.439  44.714  1.00  0.00    -0.050 N
ATOM      6  H21 UNL     1      30.493  55.686  45.275  1.00  0.00     0.280 HD
ATOM      7  H22 UNL     1      30.767  57.146  45.003  1.00  0.00     0.280 HD
ENDROOT
BRANCH   1   8
HETATM    8  C2  UNL     1      28.404  56.632  46.453  1.00  0.00    -0.003 C
HETATM    9  C1  UNL     1      27.395  57.317  46.953  1.00  0.00     0.009 C
ENDBRANCH   1   8
BRANCH   3  10
HETATM   10  C5  UNL     1      28.435  54.783  41.892  1.00  0.00     0.352 C
HETATM   11  O1  UNL     1      28.121  55.391  40.830  1.00  0.00    -0.283 OA
ENDBRANCH   3  10
TORSDOF 2
ENDMDL