MODEL 4
REMARK VINA RESULT: -4.137430927      2.949      4.692
REMARK  2 active torsions:
REMARK  status: ('A' for Active; 'I' for Inactive)
REMARK    1  A    between atoms: O1_2  and  N1_3
REMARK    2  A    between atoms: C2_5  and  C3_6
ROOT
HETATM    1  C3  UNL     1      28.287  55.777  44.234  1.00  0.00     0.106 A
HETATM    2  C4  UNL     1      27.617  55.340  43.181  1.00  0.00     0.139 A
HETATM    3  N2  UNL     1      28.473  55.148  42.062  1.00  0.00    -0.291 N
ATOM      4  H2  UNL     1      28.204  54.820  41.135  1.00  0.00     0.183 HD
HETATM    5  N3  UNL     1      29.752  55.498  42.488  1.00  0.00     0.000 NA
HETATM    6  N4  UNL     1      29.642  55.885  43.820  1.00  0.00    -0.184 N
HETATM    7  N5  UNL     1      30.613  56.271  44.533  1.00  0.00    -0.325 N
ATOM      8  H51 UNL     1      31.585  56.348  44.236  1.00  0.00     0.178 HD
ATOM      9  H52 UNL     1      30.532  56.555  45.509  1.00  0.00     0.178 HD
ENDROOT
BRANCH   1  10
HETATM   10  C2  UNL     1      27.720  56.081  45.555  1.00  0.00     0.148 C
HETATM   11  N1  UNL     1      26.456  56.185  45.690  1.00  0.00    -0.276 N
ATOM     12  H1  UNL     1      25.891  56.047  44.852  1.00  0.00     0.193 HD
BRANCH  11  13
HETATM   13  O1  UNL     1      25.794  56.458  46.833  1.00  0.00    -0.286 OA
HETATM   14  C1  UNL     1      26.284  57.477  47.685  1.00  0.00     0.237 C
ENDBRANCH  11  13
ENDBRANCH   1  10
TORSDOF 2
ENDMDL