MODEL 1
REMARK VINA RESULT: -4.215621769      0.000      0.000
REMARK  1 active torsions:
REMARK  status: ('A' for Active; 'I' for Inactive)
REMARK    1  A    between atoms: C3_6  and  C4_7
ROOT
HETATM    1  O1  UNL     1      30.415  54.232  45.770  1.00  0.00    -0.273 OA
HETATM    2  C1  UNL     1      29.645  55.174  45.572  1.00  0.00     0.225 C
HETATM    3  N1  UNL     1      29.193  56.247  46.366  1.00  0.00    -0.360 N
ATOM      4  H1  UNL     1      29.024  56.406  47.359  1.00  0.00     0.162 HD
HETATM    5  C2  UNL     1      29.073  57.031  45.137  1.00  0.00     0.139 C
HETATM    6  C3  UNL     1      28.817  55.687  44.473  1.00  0.00     0.126 C
ENDROOT
BRANCH   6   7
HETATM    7  C4  UNL     1      29.357  55.537  43.092  1.00  0.00     0.202 A
HETATM    8  C5  UNL     1      28.525  54.554  42.297  1.00  0.00     0.061 A
HETATM    9  C6  UNL     1      28.039  55.702  41.447  1.00  0.00     0.235 A
HETATM   10  N2  UNL     1      28.906  56.589  42.231  1.00  0.00    -0.070 N
ATOM     11  H22 UNL     1      28.495  57.421  42.655  1.00  0.00     0.277 HD
ATOM     12  H21 UNL     1      29.603  57.147  41.738  1.00  0.00     0.277 HD
ENDBRANCH   6   7
TORSDOF 1
ENDMDL