MODEL 3
REMARK VINA RESULT: -4.597798046      1.681      2.184
REMARK  1 active torsions:
REMARK  status: ('A' for Active; 'I' for Inactive)
REMARK    1  A    between atoms: N2_4  and  N3_6
ROOT
HETATM    1  N3  UNL     1      27.861  55.673  45.590  1.00  0.00    -0.268 N
ATOM      2  H3  UNL     1      28.561  55.669  46.332  1.00  0.00     0.190 HD
HETATM    3  C1  UNL     1      28.216  55.957  44.382  1.00  0.00     0.159 C
HETATM    4  C2  UNL     1      29.667  56.264  44.179  1.00  0.00     0.317 C
HETATM    5  N4  UNL     1      30.145  55.872  42.892  1.00  0.00    -0.066 N
ATOM      6  H41 UNL     1      31.058  55.420  42.943  1.00  0.00     0.277 HD
ATOM      7  H42 UNL     1      30.410  56.674  42.320  1.00  0.00     0.277 HD
HETATM    8  C3  UNL     1      29.159  55.036  42.238  1.00  0.00     0.259 C
HETATM    9  C4  UNL     1      27.926  55.920  42.027  1.00  0.00     0.204 C
HETATM   10  O1  UNL     1      27.313  55.977  43.323  1.00  0.00    -0.335 OA
ENDROOT
BRANCH   1  11
HETATM   11  N2  UNL     1      26.552  55.375  45.892  1.00  0.00    -0.248 N
HETATM   12  N1  UNL     1      25.859  56.209  46.540  1.00  0.00    -0.331 N
ATOM     13  H12 UNL     1      26.282  57.091  46.830  1.00  0.00     0.178 HD
ATOM     14  H11 UNL     1      24.889  55.987  46.763  1.00  0.00     0.178 HD
ATOM     15  H2  UNL     1      26.144  54.488  45.594  1.00  0.00     0.207 HD
ENDBRANCH   1  11
TORSDOF 1
ENDMDL