MODEL 3
REMARK VINA RESULT: -4.354089757      1.064      1.064
REMARK  2 active torsions:
REMARK  status: ('A' for Active; 'I' for Inactive)
REMARK    1  A    between atoms: C1_2  and  N1_3
REMARK    2  A    between atoms: N1_3  and  N2_5
ROOT
HETATM    1  N2  UNL     1      27.199  55.292  44.206  1.00  0.00    -0.287 N
ATOM      2  H2  UNL     1      26.243  55.075  43.924  1.00  0.00     0.188 HD
HETATM    3  C2  UNL     1      27.454  55.882  45.330  1.00  0.00     0.091 C
HETATM    4  C3  UNL     1      28.797  56.267  45.887  1.00  0.00     0.079 C
HETATM    5  C4  UNL     1      28.485  57.499  46.693  1.00  0.00     0.027 C
HETATM    6  C5  UNL     1      27.002  57.510  46.925  1.00  0.00     0.121 C
HETATM    7  N3  UNL     1      26.505  56.310  46.318  1.00  0.00    -0.379 N
ATOM      8  H3  UNL     1      25.629  55.842  46.549  1.00  0.00     0.160 HD
ENDROOT
BRANCH   1   9
HETATM    9  N1  UNL     1      28.290  54.964  43.397  1.00  0.00    -0.276 N
ATOM     10  H1  UNL     1      28.628  54.001  43.376  1.00  0.00     0.189 HD
BRANCH   9  11
HETATM   11  C1  UNL     1      28.933  55.942  42.607  1.00  0.00     0.368 C
HETATM   12  O1  UNL     1      30.176  56.112  42.611  1.00  0.00    -0.282 OA
ENDBRANCH   9  11
ENDBRANCH   1   9
TORSDOF 2
ENDMDL