MODEL 1
REMARK VINA RESULT: -5.426495619      0.000      0.000
REMARK  2 active torsions:
REMARK  status: ('A' for Active; 'I' for Inactive)
REMARK    1  A    between atoms: N2_4  and  N3_6
REMARK    2  A    between atoms: C1_8  and  C2_9
ROOT
HETATM    1  N3  UNL     1      25.885  56.141  46.323  1.00  0.00    -0.296 N
ATOM      2  H3  UNL     1      24.957  55.946  46.697  1.00  0.00     0.187 HD
HETATM    3  C1  UNL     1      26.304  55.457  45.330  1.00  0.00     0.139 C
ENDROOT
BRANCH   3   4
HETATM    4  C2  UNL     1      27.634  55.700  44.754  1.00  0.00     0.065 A
HETATM    5  C3  UNL     1      27.978  55.679  43.422  1.00  0.00     0.119 A
HETATM    6  N4  UNL     1      29.289  55.948  43.271  1.00  0.00    -0.360 N
HETATM    7  C4  UNL     1      29.778  56.140  44.510  1.00  0.00     0.180 A
ATOM      8  H4  UNL     1      29.808  55.998  42.394  1.00  0.00     0.166 HD
HETATM    9  N5  UNL     1      28.774  55.989  45.410  1.00  0.00    -0.350 N
ATOM     10  H5  UNL     1      28.869  56.080  46.421  1.00  0.00     0.166 HD
ENDBRANCH   3   4
BRANCH   1  11
HETATM   11  N2  UNL     1      26.644  57.137  46.912  1.00  0.00    -0.250 N
HETATM   12  N1  UNL     1      26.330  57.579  48.052  1.00  0.00    -0.331 N
ATOM     13  H12 UNL     1      25.515  57.191  48.526  1.00  0.00     0.178 HD
ATOM     14  H11 UNL     1      26.889  58.313  48.485  1.00  0.00     0.178 HD
ATOM     15  H2  UNL     1      27.457  57.514  46.424  1.00  0.00     0.207 HD
ENDBRANCH   1  11
TORSDOF 2
ENDMDL