MODEL 2
REMARK VINA RESULT: -5.198773391      1.081      1.367
REMARK  2 active torsions:
REMARK  status: ('A' for Active; 'I' for Inactive)
REMARK    1  A    between atoms: N2_4  and  N3_6
REMARK    2  A    between atoms: C4_13  and  O1_14
ROOT
HETATM    1  N3  UNL     1      26.963  56.504  45.981  1.00  0.00    -0.273 N
ATOM      2  H3  UNL     1      26.086  56.146  45.604  1.00  0.00     0.190 HD
HETATM    3  C1  UNL     1      28.051  56.269  45.346  1.00  0.00     0.122 C
HETATM    4  N4  UNL     1      29.346  56.704  45.744  1.00  0.00    -0.376 N
ATOM      5  H4  UNL     1      29.569  57.289  46.549  1.00  0.00     0.160 HD
HETATM    6  C2  UNL     1      30.304  56.148  44.772  1.00  0.00     0.124 C
HETATM    7  C3  UNL     1      29.444  56.183  43.526  1.00  0.00     0.059 C
HETATM    8  C4  UNL     1      28.187  55.506  44.078  1.00  0.00     0.188 C
ENDROOT
BRANCH   1   9
HETATM    9  N2  UNL     1      26.934  57.235  47.172  1.00  0.00    -0.248 N
HETATM   10  N1  UNL     1      25.936  57.251  47.947  1.00  0.00    -0.331 N
ATOM     11  H12 UNL     1      25.122  56.699  47.677  1.00  0.00     0.178 HD
ATOM     12  H11 UNL     1      25.915  57.784  48.817  1.00  0.00     0.178 HD
ATOM     13  H2  UNL     1      27.757  57.781  47.428  1.00  0.00     0.207 HD
ENDBRANCH   1   9
BRANCH   8  14
HETATM   14  O1  UNL     1      27.112  55.640  43.236  1.00  0.00    -0.388 OA
ATOM     15  H1  UNL     1      26.278  55.695  43.688  1.00  0.00     0.210 HD
ENDBRANCH   8  14
TORSDOF 2
ENDMDL