MODEL 3
REMARK VINA RESULT: -3.742446644      2.022      2.715
REMARK  1 active torsions:
REMARK  status: ('A' for Active; 'I' for Inactive)
REMARK    1  A    between atoms: C1_2  and  C2_3
ROOT
HETATM    1  C2  UNL     1      29.090  55.332  44.252  1.00  0.00     0.249 C
HETATM    2  C3  UNL     1      28.832  55.830  45.657  1.00  0.00     0.075 C
HETATM    3  C4  UNL     1      27.548  56.617  45.482  1.00  0.00     0.220 C
HETATM    4  N1  UNL     1      26.467  56.203  46.361  1.00  0.00    -0.067 N
ATOM      5  H11 UNL     1      25.774  56.877  46.685  1.00  0.00     0.277 HD
ATOM      6  H12 UNL     1      26.655  55.950  47.331  1.00  0.00     0.277 HD
HETATM    7  C5  UNL     1      26.117  55.200  45.401  1.00  0.00     0.268 C
HETATM    8  C6  UNL     1      26.856  55.965  44.344  1.00  0.00     0.242 C
HETATM    9  N2  UNL     1      27.803  55.114  43.661  1.00  0.00    -0.057 N
ATOM     10  H21 UNL     1      27.526  54.132  43.663  1.00  0.00     0.278 HD
ATOM     11  H22 UNL     1      27.802  55.251  42.651  1.00  0.00     0.278 HD
ENDROOT
BRANCH   1  12
HETATM   12  C1  UNL     1      29.805  56.382  43.487  1.00  0.00     0.264 C
HETATM   13  O1  UNL     1      30.650  56.069  42.669  1.00  0.00    -0.305 OA
ENDBRANCH   1  12
TORSDOF 1
ENDMDL