MODEL 3
REMARK VINA RESULT: -3.726610330      0.921      1.203
REMARK  2 active torsions:
REMARK  status: ('A' for Active; 'I' for Inactive)
REMARK    1  A    between atoms: N2_7  and  C4_9
REMARK    2  A    between atoms: C4_9  and  C5_10
ROOT
HETATM    1  C1  UNL     1      26.578  55.961  45.925  1.00  0.00     0.286 C
HETATM    2  N1  UNL     1      25.979  57.016  46.676  1.00  0.00    -0.065 N
ATOM      3  H11 UNL     1      25.262  56.806  47.370  1.00  0.00     0.277 HD
ATOM      4  H12 UNL     1      25.344  57.671  46.219  1.00  0.00     0.277 HD
HETATM    5  C2  UNL     1      27.297  57.459  47.102  1.00  0.00     0.286 C
HETATM    6  C3  UNL     1      27.934  56.542  46.108  1.00  0.00     0.037 C
HETATM    7  N2  UNL     1      29.092  56.328  45.619  1.00  0.00    -0.371 N
ATOM      8  H2  UNL     1      29.887  56.888  45.924  1.00  0.00     0.164 HD
ENDROOT
BRANCH   7   9
HETATM    9  C4  UNL     1      29.267  55.314  44.655  1.00  0.00     0.095 C
BRANCH   9  10
HETATM   10  C5  UNL     1      29.215  55.780  43.241  1.00  0.00     0.249 A
HETATM   11  C6  UNL     1      27.985  55.862  42.483  1.00  0.00     0.271 A
HETATM   12  N3  UNL     1      28.936  54.707  42.274  1.00  0.00    -0.062 N
ATOM     13  H32 UNL     1      29.420  54.288  41.480  1.00  0.00     0.278 HD
ATOM     14  H31 UNL     1      28.874  53.690  42.301  1.00  0.00     0.278 HD
ENDBRANCH   9  10
ENDBRANCH   7   9
TORSDOF 2
ENDMDL