MODEL 5
REMARK VINA RESULT: -10.168384883      4.463      9.073
REMARK  9 active torsions:
REMARK  status: ('A' for Active; 'I' for Inactive)
REMARK       I    between atoms: C1_2  and  N1_3
REMARK    1  A    between atoms: C1_2  and  C25_33
REMARK    2  A    between atoms: N1_3  and  C2_5
REMARK    3  A    between atoms: C5_8  and  C6_9
REMARK    4  A    between atoms: C6_9  and  O2_10
REMARK    5  A    between atoms: C6_9  and  N2_12
REMARK    6  A    between atoms: N2_12  and  C7_14
REMARK    7  A    between atoms: C10_17  and  C11_18
REMARK    8  A    between atoms: C11_18  and  C12_19
REMARK    9  A    between atoms: C12_19  and  N3_20
ROOT
HETATM    1  C6  UNL     1      27.541  48.456   0.511  1.00  0.00     0.221 C
ENDROOT
BRANCH   1   2
HETATM    2  C5  UNL     1      27.814  49.932   0.444  1.00  0.00     0.034 C
HETATM    3  C4  UNL     1      26.689  50.780   1.013  1.00  0.00     0.011 C
HETATM    4  C3  UNL     1      25.444  50.663   0.146  1.00  0.00     0.026 C
HETATM    5  C2  UNL     1      25.718  51.044  -1.272  1.00  0.00     0.084 C
HETATM    6  C24 UNL     1      26.826  50.134  -1.806  1.00  0.00     0.026 C
HETATM    7  C23 UNL     1      28.053  50.370  -0.976  1.00  0.00     0.011 C
BRANCH   5   8
HETATM    8  N1  UNL     1      24.559  51.030  -2.106  1.00  0.00    -0.356 N
HETATM    9  C1  UNL     1      24.472  51.771  -3.301  1.00  0.00     0.222 C
HETATM   10  O1  UNL     1      25.445  52.474  -3.659  1.00  0.00    -0.273 OA
ATOM     11  H1  UNL     1      23.761  50.460  -1.824  1.00  0.00     0.162 HD
BRANCH   9  12
HETATM   12  C25 UNL     1      23.263  51.727  -4.122  1.00  0.00     0.082 C
HETATM   13  C26 UNL     1      23.395  52.487  -5.429  1.00  0.00     0.019 C
HETATM   14  C27 UNL     1      22.262  53.475  -5.464  1.00  0.00    -0.013 C
HETATM   15  C28 UNL     1      22.599  54.569  -4.484  1.00  0.00     0.005 C
HETATM   16  C31 UNL     1      21.208  52.709  -4.646  1.00  0.00     0.010 C
HETATM   17  C29 UNL     1      22.591  53.834  -3.140  1.00  0.00     0.006 C
HETATM   18  C30 UNL     1      22.106  52.435  -3.452  1.00  0.00    -0.001 C
ENDBRANCH   9  12
ENDBRANCH   5   8
ENDBRANCH   1   2
BRANCH   1  19
HETATM   19  O2  UNL     1      28.014  47.955  -0.732  1.00  0.00    -0.377 OA
ATOM     20  H2  UNL     1      27.925  47.013  -0.654  1.00  0.00     0.212 HD
ENDBRANCH   1  19
BRANCH   1  21
HETATM   21  N2  UNL     1      28.117  47.785   1.589  1.00  0.00    -0.370 N
ATOM     22  H2  UNL     1      27.663  47.896   2.496  1.00  0.00     0.161 HD
BRANCH  21  23
HETATM   23  C7  UNL     1      29.240  46.987   1.549  1.00  0.00    -0.016 C
HETATM   24  C8  UNL     1      30.491  47.688   2.170  1.00  0.00     0.052 C
HETATM   25  C9  UNL     1      31.639  46.815   1.672  1.00  0.00     0.010 C
HETATM   26  C10 UNL     1      31.669  45.639   2.623  1.00  0.00    -0.012 C
HETATM   27  C21 UNL     1      30.260  45.177   2.959  1.00  0.00     0.010 C
HETATM   28  C22 UNL     1      29.271  45.561   1.879  1.00  0.00     0.052 C
BRANCH  26  29
HETATM   29  C11 UNL     1      32.473  44.486   2.159  1.00  0.00     0.035 C
BRANCH  29  30
HETATM   30  C12 UNL     1      31.945  43.133   2.401  1.00  0.00     0.273 C
BRANCH  30  31
HETATM   31  N3  UNL     1      31.539  42.376   1.284  1.00  0.00     0.093 N
HETATM   32  C13 UNL     1      31.953  41.026   1.174  1.00  0.00     0.273 C
HETATM   33  C14 UNL     1      31.220  40.602  -0.113  1.00  0.00     0.037 C
HETATM   34  C15 UNL     1      29.975  41.449  -0.079  1.00  0.00     0.021 C
HETATM   35  C16 UNL     1      28.714  40.711  -0.305  1.00  0.00     0.007 C
HETATM   36  C20 UNL     1      30.075  42.237   1.191  1.00  0.00     0.227 C
HETATM   37  C17 UNL     1      27.735  40.733   0.832  1.00  0.00     0.001 C
HETATM   38  C18 UNL     1      28.502  40.497   2.097  1.00  0.00     0.002 C
HETATM   39  C19 UNL     1      29.488  41.601   2.385  1.00  0.00     0.036 C
ENDBRANCH  30  31
ENDBRANCH  29  30
ENDBRANCH  26  29
ENDBRANCH  21  23
ENDBRANCH   1  21
TORSDOF 9
ENDMDL