MODEL 4
REMARK VINA RESULT: -9.782985700      1.571      2.254
REMARK  9 active torsions:
REMARK  status: ('A' for Active; 'I' for Inactive)
REMARK    1  A    between atoms: C2_2  and  C4_4
REMARK    2  A    between atoms: C4_4  and  C5_5
REMARK    3  A    between atoms: C5_5  and  N1_6
REMARK       I    between atoms: N1_6  and  C6_8
REMARK       I    between atoms: C6_8  and  N2_10
REMARK    4  A    between atoms: N2_10  and  C7_12
REMARK    5  A    between atoms: C7_12  and  C8_13
REMARK    6  A    between atoms: C15_20  and  N3_21
REMARK       I    between atoms: N3_21  and  C16_23
REMARK    7  A    between atoms: C16_23  and  C17_25
REMARK       I    between atoms: N4_28  and  C20_29
REMARK    8  A    between atoms: C20_29  and  O4_31
REMARK    9  A    between atoms: O4_31  and  C21_32
ROOT
HETATM    1  C8  UNL     1      26.463  50.141   0.155  1.00  0.00    -0.005 C
HETATM    2  C9  UNL     1      27.150  51.121   1.001  1.00  0.00     0.019 C
HETATM    3  C10 UNL     1      28.625  50.726   1.178  1.00  0.00    -0.011 C
HETATM    4  C11 UNL     1      29.323  50.682  -0.135  1.00  0.00     0.009 C
HETATM    5  C12 UNL     1      28.603  49.661  -1.004  1.00  0.00    -0.011 C
HETATM    6  C13 UNL     1      27.183  50.068  -1.212  1.00  0.00     0.019 C
HETATM    7  C14 UNL     1      28.729  48.317  -0.340  1.00  0.00     0.035 C
HETATM    8  C15 UNL     1      28.020  48.356   1.022  1.00  0.00     0.034 C
HETATM    9  C27 UNL     1      28.669  49.390   1.892  1.00  0.00     0.035 C
HETATM   10  C28 UNL     1      26.592  48.746   0.770  1.00  0.00     0.046 C
ENDROOT
BRANCH   8  11
HETATM   11  N3  UNL     1      28.059  47.038   1.591  1.00  0.00    -0.351 N
HETATM   12  C16 UNL     1      29.189  46.223   1.761  1.00  0.00     0.222 C
HETATM   13  O2  UNL     1      30.313  46.631   1.398  1.00  0.00    -0.273 OA
ATOM     14  H3  UNL     1      27.168  46.652   1.906  1.00  0.00     0.163 HD
BRANCH  12  15
HETATM   15  C17 UNL     1      29.080  44.861   2.373  1.00  0.00     0.081 C
HETATM   16  C18 UNL     1      30.451  44.259   2.338  1.00  0.00     0.034 C
HETATM   17  C19 UNL     1      30.341  42.759   2.545  1.00  0.00     0.129 C
HETATM   18  N4  UNL     1      29.613  42.181   1.424  1.00  0.00    -0.328 N
HETATM   19  C20 UNL     1      29.916  40.893   0.984  1.00  0.00     0.363 C
HETATM   20  C25 UNL     1      28.582  42.951   0.759  1.00  0.00     0.129 C
HETATM   21  O3  UNL     1      29.299  40.356  -0.001  1.00  0.00    -0.238 OA
HETATM   22  C26 UNL     1      28.094  44.079   1.611  1.00  0.00     0.034 C
BRANCH  19  23
HETATM   23  O4  UNL     1      30.894  40.081   1.550  1.00  0.00    -0.294 OA
BRANCH  23  24
HETATM   24  C21 UNL     1      30.640  39.135   2.556  1.00  0.00     0.061 C
HETATM   25  C22 UNL     1      31.529  37.898   2.348  1.00  0.00     0.046 C
HETATM   26  C23 UNL     1      31.085  39.746   3.880  1.00  0.00     0.046 C
HETATM   27  C24 UNL     1      29.204  38.742   2.701  1.00  0.00     0.046 C
ENDBRANCH  23  24
ENDBRANCH  19  23
ENDBRANCH  12  15
ENDBRANCH   8  11
BRANCH   1  28
HETATM   28  C7  UNL     1      25.022  50.362  -0.128  1.00  0.00     0.075 C
BRANCH  28  29
HETATM   29  N2  UNL     1      24.575  51.516  -0.792  1.00  0.00    -0.322 N
HETATM   30  C6  UNL     1      24.258  51.726  -2.158  1.00  0.00     0.319 C
HETATM   31  N1  UNL     1      23.881  53.012  -2.621  1.00  0.00    -0.343 N
HETATM   32  O1  UNL     1      24.305  50.789  -2.971  1.00  0.00    -0.247 OA
ATOM     33  H1  UNL     1      23.826  53.784  -1.956  1.00  0.00     0.164 HD
ATOM     34  H2  UNL     1      24.460  52.336  -0.195  1.00  0.00     0.169 HD
BRANCH  31  35
HETATM   35  C5  UNL     1      23.576  53.253  -4.002  1.00  0.00     0.125 C
BRANCH  35  36
HETATM   36  C4  UNL     1      22.138  53.548  -4.202  1.00  0.00     0.023 C
BRANCH  36  37
HETATM   37  C2  UNL     1      21.833  54.011  -5.620  1.00  0.00    -0.021 C
HETATM   38  C1  UNL     1      20.944  55.220  -5.578  1.00  0.00     0.009 C
HETATM   39  C3  UNL     1      21.340  52.903  -6.489  1.00  0.00     0.009 C
ENDBRANCH  36  37
ENDBRANCH  35  36
ENDBRANCH  31  35
ENDBRANCH  28  29
ENDBRANCH   1  28
TORSDOF 9
ENDMDL