MODEL 4
REMARK VINA RESULT: -7.966374241      4.325     11.009
REMARK  11 active torsions:
REMARK  status: ('A' for Active; 'I' for Inactive)
REMARK    1  A    between atoms: S1_2  and  C2_3
REMARK    2  A    between atoms: C2_3  and  C3_4
REMARK    3  A    between atoms: C3_4  and  C4_5
REMARK    4  A    between atoms: C4_5  and  C5_6
REMARK    5  A    between atoms: C5_6  and  O1_7
REMARK    6  A    between atoms: C5_6  and  C6_9
REMARK       I    between atoms: C6_9  and  N1_11
REMARK    7  A    between atoms: C17_22  and  C18_23
REMARK       I    between atoms: C18_23  and  N2_25
REMARK    8  A    between atoms: N2_25  and  C19_27
REMARK    9  A    between atoms: C19_27  and  C20_28
REMARK   10  A    between atoms: C20_28  and  C23_31
REMARK   11  A    between atoms: C23_31  and  O4_32
ROOT
HETATM    1  C6  UNL     1      32.898  44.643   2.296  1.00  0.00     0.248 C
HETATM    2  O2  UNL     1      32.674  43.940   3.342  1.00  0.00    -0.270 OA
HETATM    3  N1  UNL     1      31.896  45.537   1.885  1.00  0.00    -0.350 N
HETATM    4  C7  UNL     1      30.665  45.630   2.670  1.00  0.00     0.126 C
HETATM    5  C8  UNL     1      30.238  47.044   2.867  1.00  0.00     0.030 C
HETATM    6  C9  UNL     1      30.142  47.836   1.611  1.00  0.00    -0.033 C
HETATM    7  C10 UNL     1      30.893  49.151   1.819  1.00  0.00     0.016 C
HETATM    8  C11 UNL     1      30.786  47.167   0.446  1.00  0.00     0.012 C
HETATM    9  C12 UNL     1      29.806  46.349  -0.396  1.00  0.00     0.007 C
HETATM   10  C13 UNL     1      28.933  47.365  -1.103  1.00  0.00     0.006 C
HETATM   11  C14 UNL     1      28.681  48.574  -0.216  1.00  0.00    -0.005 C
HETATM   12  C15 UNL     1      27.374  49.169  -0.649  1.00  0.00    -0.004 C
HETATM   13  C16 UNL     1      27.483  50.360  -1.568  1.00  0.00     0.020 C
HETATM   14  C17 UNL     1      26.512  51.093  -0.680  1.00  0.00     0.082 C
HETATM   15  C24 UNL     1      26.693  50.013   0.359  1.00  0.00     0.003 C
HETATM   16  C25 UNL     1      27.664  50.382   1.455  1.00  0.00     0.006 C
HETATM   17  C26 UNL     1      28.016  49.060   2.151  1.00  0.00     0.006 C
HETATM   18  C27 UNL     1      28.692  48.118   1.217  1.00  0.00    -0.001 C
HETATM   19  C28 UNL     1      32.008  46.368   0.731  1.00  0.00     0.131 C
ENDROOT
BRANCH  14  20
HETATM   20  C18 UNL     1      25.133  51.110  -1.277  1.00  0.00     0.222 C
HETATM   21  O3  UNL     1      24.115  51.057  -0.541  1.00  0.00    -0.273 OA
HETATM   22  N2  UNL     1      24.930  51.186  -2.682  1.00  0.00    -0.360 N
ATOM     23  H2  UNL     1      25.737  51.230  -3.305  1.00  0.00     0.162 HD
BRANCH  22  24
HETATM   24  C19 UNL     1      23.607  51.202  -3.236  1.00  0.00     0.133 C
BRANCH  24  25
HETATM   25  C20 UNL     1      23.336  52.353  -4.147  1.00  0.00    -0.010 C
HETATM   26  C21 UNL     1      22.011  53.013  -3.851  1.00  0.00     0.018 C
HETATM   27  C22 UNL     1      24.412  53.405  -3.842  1.00  0.00     0.018 C
BRANCH  25  28
HETATM   28  C23 UNL     1      23.525  51.950  -5.568  1.00  0.00     0.174 C
BRANCH  28  29
HETATM   29  O4  UNL     1      24.647  51.214  -5.846  1.00  0.00    -0.400 OA
ATOM     30  H4  UNL     1      24.514  50.413  -6.339  1.00  0.00     0.209 HD
ENDBRANCH  28  29
ENDBRANCH  25  28
ENDBRANCH  24  25
ENDBRANCH  22  24
ENDBRANCH  14  20
BRANCH   1  31
HETATM   31  C5  UNL     1      34.215  44.452   1.596  1.00  0.00     0.210 C
BRANCH  31  32
HETATM   32  C4  UNL     1      34.086  43.197   0.810  1.00  0.00     0.042 C
BRANCH  32  33
HETATM   33  C3  UNL     1      33.707  43.255  -0.606  1.00  0.00     0.013 C
BRANCH  33  34
HETATM   34  C2  UNL     1      32.305  42.974  -1.000  1.00  0.00     0.073 C
BRANCH  34  35
HETATM   35  S1  UNL     1      31.331  41.959   0.087  1.00  0.00    -0.173 SA
HETATM   36  C1  UNL     1      29.740  42.692   0.545  1.00  0.00     0.089 C
ENDBRANCH  34  35
ENDBRANCH  33  34
ENDBRANCH  32  33
ENDBRANCH  31  32
BRANCH  31  37
HETATM   37  O1  UNL     1      35.293  44.483   2.437  1.00  0.00    -0.386 OA
ATOM     38  H1  UNL     1      35.451  45.328   2.841  1.00  0.00     0.210 HD
ENDBRANCH  31  37
ENDBRANCH   1  31
TORSDOF 11
ENDMDL