MODEL 5
REMARK VINA RESULT: -6.365562674      2.260      7.445
REMARK  9 active torsions:
REMARK  status: ('A' for Active; 'I' for Inactive)
REMARK    1  A    between atoms: C2_2  and  C3_3
REMARK    2  A    between atoms: C3_3  and  O1_4
REMARK    3  A    between atoms: O1_4  and  C4_5
REMARK    4  A    between atoms: C12_13  and  O2_14
REMARK    5  A    between atoms: C20_23  and  C21_24
REMARK       I    between atoms: C21_24  and  N1_26
REMARK    6  A    between atoms: N1_26  and  C22_28
REMARK    7  A    between atoms: C22_28  and  C23_29
REMARK    8  A    between atoms: C22_28  and  C27_33
REMARK    9  A    between atoms: C23_29  and  C24_30
REMARK       I    between atoms: C27_33  and  N2_35
ROOT
HETATM    1  C4  UNL     1      30.788  41.258  -0.457  1.00  0.00     0.154 C
HETATM    2  C5  UNL     1      30.033  42.527  -0.222  1.00  0.00     0.010 C
HETATM    3  C6  UNL     1      30.816  43.499   0.210  1.00  0.00    -0.058 C
HETATM    4  C7  UNL     1      30.446  44.912   0.557  1.00  0.00     0.020 C
HETATM    5  C8  UNL     1      29.267  45.004   1.475  1.00  0.00     0.010 C
HETATM    6  C9  UNL     1      29.279  46.103   2.451  1.00  0.00     0.006 C
HETATM    7  C10 UNL     1      30.203  47.248   2.253  1.00  0.00    -0.004 C
HETATM    8  C11 UNL     1      29.485  48.596   2.163  1.00  0.00     0.037 C
HETATM    9  C12 UNL     1      28.778  48.797   0.879  1.00  0.00     0.118 C
HETATM   10  C13 UNL     1      29.410  48.164  -0.305  1.00  0.00     0.032 C
HETATM   11  C14 UNL     1      30.835  47.747  -0.131  1.00  0.00     0.012 C
HETATM   12  C15 UNL     1      31.206  47.142   1.161  1.00  0.00    -0.036 C
HETATM   13  C16 UNL     1      32.503  47.833   1.638  1.00  0.00     0.016 C
HETATM   14  C17 UNL     1      31.618  45.662   1.089  1.00  0.00     0.002 C
HETATM   15  C18 UNL     1      32.885  45.448   0.342  1.00  0.00     0.007 C
HETATM   16  C19 UNL     1      33.080  44.113  -0.253  1.00  0.00     0.025 C
HETATM   17  C20 UNL     1      32.239  43.022   0.332  1.00  0.00     0.074 C
HETATM   18  C29 UNL     1      32.223  41.775  -0.517  1.00  0.00     0.002 C
HETATM   19  C30 UNL     1      32.538  42.025  -1.968  1.00  0.00     0.019 C
HETATM   20  C31 UNL     1      33.047  40.639   0.051  1.00  0.00     0.019 C
ENDROOT
BRANCH  17  21
HETATM   21  C21 UNL     1      32.591  42.636   1.702  1.00  0.00     0.232 C
HETATM   22  O3  UNL     1      33.830  42.558   1.975  1.00  0.00    -0.272 OA
HETATM   23  N1  UNL     1      31.711  42.349   2.738  1.00  0.00    -0.347 N
ATOM     24  H1  UNL     1      30.715  42.412   2.530  1.00  0.00     0.163 HD
BRANCH  23  25
HETATM   25  C22 UNL     1      32.084  41.965   4.100  1.00  0.00     0.177 C
BRANCH  25  26
HETATM   26  C23 UNL     1      32.092  43.222   4.926  1.00  0.00     0.038 C
BRANCH  26  27
HETATM   27  C24 UNL     1      33.263  43.470   5.781  1.00  0.00    -0.020 C
HETATM   28  C25 UNL     1      34.380  44.186   5.016  1.00  0.00     0.009 C
HETATM   29  C26 UNL     1      32.935  44.420   6.939  1.00  0.00     0.009 C
ENDBRANCH  26  27
ENDBRANCH  25  26
BRANCH  25  30
HETATM   30  C27 UNL     1      31.123  41.009   4.656  1.00  0.00     0.240 C
HETATM   31  O4  UNL     1      30.584  41.383   5.775  1.00  0.00    -0.271 OA
HETATM   32  N2  UNL     1      30.695  39.777   4.181  1.00  0.00    -0.364 N
HETATM   33  C28 UNL     1      29.716  38.983   4.925  1.00  0.00     0.149 C
ATOM     34  H2  UNL     1      31.068  39.420   3.301  1.00  0.00     0.161 HD
ENDBRANCH  25  30
ENDBRANCH  23  25
ENDBRANCH  17  21
BRANCH   1  35
HETATM   35  O1  UNL     1      30.584  40.315   0.517  1.00  0.00    -0.378 OA
BRANCH  35  36
HETATM   36  C3  UNL     1      29.204  40.201   0.728  1.00  0.00     0.195 C
BRANCH  36  37
HETATM   37  C2  UNL     1      28.836  38.879   1.276  1.00  0.00    -0.011 C
HETATM   38  C1  UNL     1      29.697  37.880   1.201  1.00  0.00     0.009 C
ENDBRANCH  36  37
ENDBRANCH  35  36
ENDBRANCH   1  35
BRANCH   9  39
HETATM   39  O2  UNL     1      27.446  48.336   1.002  1.00  0.00    -0.396 OA
ATOM     40  H2  UNL     1      26.901  48.776   0.360  1.00  0.00     0.210 HD
ENDBRANCH   9  39
TORSDOF 9
ENDMDL