MODEL 2
REMARK VINA RESULT: -9.333246078      1.512      2.705
REMARK  12 active torsions:
REMARK  status: ('A' for Active; 'I' for Inactive)
REMARK    1  A    between atoms: C2_2  and  C5_5
REMARK    2  A    between atoms: C5_5  and  C6_6
REMARK    3  A    between atoms: C5_5  and  N1_23
REMARK    4  A    between atoms: C6_6  and  C7_7
REMARK    5  A    between atoms: C7_7  and  C8_8
REMARK    6  A    between atoms: C8_8  and  C11_11
REMARK    7  A    between atoms: C11_11  and  O1_12
REMARK       I    between atoms: N1_23  and  C21_25
REMARK    8  A    between atoms: C21_25  and  C22_27
REMARK       I    between atoms: C22_27  and  N2_29
REMARK    9  A    between atoms: N2_29  and  C23_31
REMARK   10  A    between atoms: C23_31  and  C24_32
REMARK   11  A    between atoms: C24_32  and  C25_33
REMARK   12  A    between atoms: C25_33  and  N3_34
ROOT
HETATM    1  C5  UNL     1      30.160  44.860   1.692  1.00  0.00     0.092 C
ENDROOT
BRANCH   1   2
HETATM    2  C2  UNL     1      31.628  45.047   2.012  1.00  0.00    -0.031 C
HETATM    3  C1  UNL     1      31.907  44.665   3.455  1.00  0.00     0.016 C
HETATM    4  C3  UNL     1      32.649  44.600   1.090  1.00  0.00     0.016 C
HETATM    5  C4  UNL     1      31.784  46.616   2.098  1.00  0.00     0.016 C
ENDBRANCH   1   2
BRANCH   1   6
HETATM    6  C6  UNL     1      29.938  43.700   0.698  1.00  0.00     0.027 C
BRANCH   6   7
HETATM    7  C7  UNL     1      30.198  42.365   1.207  1.00  0.00     0.014 C
BRANCH   7   8
HETATM    8  C8  UNL     1      29.132  41.333   1.285  1.00  0.00    -0.016 C
HETATM    9  C9  UNL     1      28.590  41.255  -0.166  1.00  0.00     0.018 C
HETATM   10  C10 UNL     1      27.966  42.000   2.053  1.00  0.00     0.018 C
BRANCH   8  11
HETATM   11  C11 UNL     1      29.388  39.980   1.727  1.00  0.00     0.072 C
HETATM   12  C12 UNL     1      29.924  39.104   0.540  1.00  0.00     0.040 C
HETATM   13  C13 UNL     1      29.608  37.728   1.165  1.00  0.00     0.007 C
HETATM   14  C14 UNL     1      30.221  37.551   2.268  1.00  0.00    -0.014 C
HETATM   15  C15 UNL     1      30.299  36.531   3.300  1.00  0.00     0.005 C
HETATM   16  C20 UNL     1      31.178  38.711   2.651  1.00  0.00     0.017 C
HETATM   17  C16 UNL     1      29.891  37.517   4.496  1.00  0.00     0.001 C
HETATM   18  C17 UNL     1      29.199  38.751   3.965  1.00  0.00     0.012 C
HETATM   19  C18 UNL     1      30.001  39.676   3.042  1.00  0.00    -0.012 C
HETATM   20  C19 UNL     1      30.627  40.727   3.847  1.00  0.00     0.018 C
BRANCH  11  21
HETATM   21  O1  UNL     1      28.058  39.410   1.837  1.00  0.00    -0.388 OA
ATOM     22  H1  UNL     1      27.993  38.861   1.064  1.00  0.00     0.210 HD
ENDBRANCH  11  21
ENDBRANCH   8  11
ENDBRANCH   7   8
ENDBRANCH   6   7
ENDBRANCH   1   6
BRANCH   1  23
HETATM   23  N1  UNL     1      29.495  46.021   1.235  1.00  0.00    -0.348 N
HETATM   24  C21 UNL     1      28.225  46.372   0.842  1.00  0.00     0.309 C
HETATM   25  O2  UNL     1      27.228  45.654   0.809  1.00  0.00    -0.262 OA
ATOM     26  H1  UNL     1      30.132  46.817   1.183  1.00  0.00     0.163 HD
BRANCH  24  27
HETATM   27  C22 UNL     1      27.980  47.789   0.398  1.00  0.00     0.309 C
HETATM   28  O3  UNL     1      28.413  48.166  -0.725  1.00  0.00    -0.262 OA
HETATM   29  N2  UNL     1      27.290  48.734   1.191  1.00  0.00    -0.353 N
ATOM     30  H2  UNL     1      26.928  48.459   2.104  1.00  0.00     0.162 HD
BRANCH  29  31
HETATM   31  C23 UNL     1      27.092  50.088   0.721  1.00  0.00     0.125 C
BRANCH  31  32
HETATM   32  C24 UNL     1      25.839  50.320  -0.053  1.00  0.00     0.039 C
BRANCH  32  33
HETATM   33  C25 UNL     1      26.182  50.802  -1.473  1.00  0.00     0.123 C
BRANCH  33  34
HETATM   34  N3  UNL     1      25.030  50.994  -2.284  1.00  0.00    -0.393 N
HETATM   35  C26 UNL     1      23.872  51.518  -1.711  1.00  0.00     0.058 C
HETATM   36  C27 UNL     1      23.499  52.938  -2.152  1.00  0.00     0.044 C
HETATM   37  C28 UNL     1      23.480  52.917  -3.673  1.00  0.00     0.007 C
HETATM   38  C29 UNL     1      24.916  52.649  -4.112  1.00  0.00     0.020 C
HETATM   39  C30 UNL     1      25.304  51.247  -3.657  1.00  0.00     0.122 C
ENDBRANCH  33  34
ENDBRANCH  32  33
ENDBRANCH  31  32
ENDBRANCH  29  31
ENDBRANCH  24  27
ENDBRANCH   1  23
TORSDOF 12
ENDMDL