MODEL 4
REMARK VINA RESULT: -9.007687577      3.100      5.286
REMARK  10 active torsions:
REMARK  status: ('A' for Active; 'I' for Inactive)
REMARK       I    between atoms: C2_2  and  N1_4
REMARK    1  A    between atoms: N1_4  and  C3_6
REMARK    2  A    between atoms: C9_12  and  C10_13
REMARK       I    between atoms: C10_13  and  N2_15
REMARK    3  A    between atoms: N2_15  and  C11_17
REMARK    4  A    between atoms: C11_17  and  C12_18
REMARK    5  A    between atoms: C12_18  and  C13_19
REMARK    6  A    between atoms: C13_19  and  C14_20
REMARK    7  A    between atoms: C14_20  and  C15_21
REMARK    8  A    between atoms: C15_21  and  N3_22
REMARK       I    between atoms: N3_22  and  C16_24
REMARK    9  A    between atoms: C16_24  and  O4_26
REMARK   10  A    between atoms: O4_26  and  C17_27
ROOT
HETATM    1  C3  UNL     1      29.745  39.748   2.401  1.00  0.00     0.097 C
HETATM    2  C4  UNL     1      30.458  39.987   3.698  1.00  0.00     0.005 C
HETATM    3  C5  UNL     1      29.881  38.990   4.717  1.00  0.00     0.012 C
HETATM    4  C6  UNL     1      30.160  41.351   4.267  1.00  0.00     0.007 C
HETATM    5  C7  UNL     1      30.128  42.461   3.294  1.00  0.00     0.007 C
HETATM    6  C8  UNL     1      29.493  42.109   1.997  1.00  0.00     0.009 C
HETATM    7  C9  UNL     1      29.682  43.173   0.950  1.00  0.00     0.083 C
HETATM    8  C21 UNL     1      31.112  43.477   0.680  1.00  0.00     0.020 C
HETATM    9  C22 UNL     1      32.017  42.300   0.765  1.00  0.00    -0.004 A
HETATM   10  C23 UNL     1      32.831  42.255  -0.536  1.00  0.00    -0.006 A
HETATM   11  C24 UNL     1      32.144  42.079  -1.840  1.00  0.00     0.010 A
HETATM   12  C25 UNL     1      32.714  40.918  -1.104  1.00  0.00    -0.009 A
HETATM   13  C26 UNL     1      31.839  40.093  -0.201  1.00  0.00     0.011 A
HETATM   14  C27 UNL     1      31.441  40.962   0.977  1.00  0.00     0.001 A
HETATM   15  C28 UNL     1      30.018  40.829   1.365  1.00  0.00    -0.015 C
HETATM   16  C29 UNL     1      29.083  40.501   0.208  1.00  0.00     0.018 C
ENDROOT
BRANCH   7  17
HETATM   17  C10 UNL     1      28.819  44.335   1.204  1.00  0.00     0.222 C
HETATM   18  O2  UNL     1      27.687  44.122   1.690  1.00  0.00    -0.273 OA
HETATM   19  N2  UNL     1      29.226  45.649   0.923  1.00  0.00    -0.361 N
ATOM     20  H2  UNL     1      30.160  45.747   0.525  1.00  0.00     0.162 HD
BRANCH  19  21
HETATM   21  C11 UNL     1      28.512  46.855   1.119  1.00  0.00     0.122 C
BRANCH  21  22
HETATM   22  C12 UNL     1      29.440  47.965   1.557  1.00  0.00     0.020 C
BRANCH  22  23
HETATM   23  C13 UNL     1      28.601  49.143   2.038  1.00  0.00     0.003 C
BRANCH  23  24
HETATM   24  C14 UNL     1      27.398  49.391   1.212  1.00  0.00     0.020 C
BRANCH  24  25
HETATM   25  C15 UNL     1      27.494  50.593   0.296  1.00  0.00     0.125 C
BRANCH  25  26
HETATM   26  N3  UNL     1      26.239  50.725  -0.410  1.00  0.00    -0.337 N
HETATM   27  C16 UNL     1      26.180  50.586  -1.832  1.00  0.00     0.361 C
HETATM   28  O3  UNL     1      27.224  50.360  -2.484  1.00  0.00    -0.238 OA
ATOM     29  H3  UNL     1      25.386  50.919   0.113  1.00  0.00     0.164 HD
BRANCH  27  30
HETATM   30  O4  UNL     1      24.996  50.690  -2.523  1.00  0.00    -0.294 OA
BRANCH  30  31
HETATM   31  C17 UNL     1      24.330  51.862  -2.873  1.00  0.00     0.061 C
HETATM   32  C18 UNL     1      23.196  51.435  -3.817  1.00  0.00     0.046 C
HETATM   33  C19 UNL     1      23.684  52.594  -1.730  1.00  0.00     0.046 C
HETATM   34  C20 UNL     1      25.187  52.836  -3.630  1.00  0.00     0.046 C
ENDBRANCH  30  31
ENDBRANCH  27  30
ENDBRANCH  25  26
ENDBRANCH  24  25
ENDBRANCH  23  24
ENDBRANCH  22  23
ENDBRANCH  21  22
ENDBRANCH  19  21
ENDBRANCH   7  17
BRANCH   1  35
HETATM   35  N1  UNL     1      29.966  38.418   1.951  1.00  0.00    -0.356 N
HETATM   36  C2  UNL     1      28.884  37.508   1.833  1.00  0.00     0.213 C
HETATM   37  C1  UNL     1      29.024  36.095   1.366  1.00  0.00     0.117 C
HETATM   38  O1  UNL     1      27.691  37.860   2.132  1.00  0.00    -0.274 OA
ATOM     39  H1  UNL     1      30.909  38.115   1.710  1.00  0.00     0.162 HD
ENDBRANCH   1  35
TORSDOF 10
ENDMDL