MODEL 2
REMARK VINA RESULT: -8.041431541      1.739      2.393
REMARK  12 active torsions:
REMARK  status: ('A' for Active; 'I' for Inactive)
REMARK    1  A    between atoms: C2_2  and  C3_3
REMARK       I    between atoms: C3_3  and  N1_5
REMARK    2  A    between atoms: N1_5  and  C4_6
REMARK    3  A    between atoms: N1_5  and  C8_10
REMARK    4  A    between atoms: C4_6  and  C5_7
REMARK    5  A    between atoms: C5_7  and  C6_8
REMARK    6  A    between atoms: C8_10  and  O2_11
REMARK    7  A    between atoms: C8_10  and  C9_13
REMARK    8  A    between atoms: C9_13  and  O3_14
REMARK    9  A    between atoms: C17_23  and  O4_24
REMARK   10  A    between atoms: C25_33  and  C26_34
REMARK   11  A    between atoms: C26_34  and  C27_35
REMARK   12  A    between atoms: C27_35  and  C28_36
ROOT
HETATM    1  C9  UNL     1      30.226  46.423   1.214  1.00  0.00     0.123 C
HETATM    2  C10 UNL     1      29.190  45.284   1.329  1.00  0.00     0.052 C
HETATM    3  C11 UNL     1      29.631  44.440   2.459  1.00  0.00     0.002 C
HETATM    4  C12 UNL     1      29.398  42.963   2.254  1.00  0.00    -0.005 C
HETATM    5  C13 UNL     1      27.931  42.633   2.090  1.00  0.00     0.006 C
HETATM    6  C14 UNL     1      27.801  41.121   2.152  1.00  0.00     0.006 C
HETATM    7  C15 UNL     1      29.078  40.409   1.845  1.00  0.00    -0.004 C
HETATM    8  C16 UNL     1      28.764  38.952   1.582  1.00  0.00     0.037 C
HETATM    9  C17 UNL     1      29.949  38.192   1.054  1.00  0.00     0.118 C
HETATM   10  C18 UNL     1      30.616  38.883  -0.100  1.00  0.00     0.032 C
HETATM   11  C19 UNL     1      31.045  40.269   0.333  1.00  0.00     0.012 C
HETATM   12  C20 UNL     1      29.815  41.058   0.702  1.00  0.00    -0.036 C
HETATM   13  C21 UNL     1      28.948  41.163  -0.535  1.00  0.00     0.016 C
HETATM   14  C22 UNL     1      30.228  42.431   1.117  1.00  0.00    -0.002 C
HETATM   15  C23 UNL     1      31.679  42.499   1.610  1.00  0.00     0.006 C
HETATM   16  C24 UNL     1      32.006  43.942   1.778  1.00  0.00     0.010 C
HETATM   17  C25 UNL     1      31.072  44.689   2.717  1.00  0.00    -0.033 C
HETATM   18  C29 UNL     1      31.219  46.147   2.373  1.00  0.00     0.056 C
ENDROOT
BRANCH   1  19
HETATM   19  C8  UNL     1      29.622  47.705   1.519  1.00  0.00     0.156 C
BRANCH  19  20
HETATM   20  N1  UNL     1      29.139  48.772   0.775  1.00  0.00    -0.296 N
HETATM   21  C3  UNL     1      28.440  48.728  -0.414  1.00  0.00     0.248 C
HETATM   22  O1  UNL     1      28.132  47.671  -1.000  1.00  0.00    -0.268 OA
BRANCH  21  23
HETATM   23  C2  UNL     1      28.000  49.974  -1.088  1.00  0.00     0.064 C
HETATM   24  C1  UNL     1      26.697  50.279  -1.130  1.00  0.00     0.017 C
ENDBRANCH  21  23
BRANCH  20  25
HETATM   25  C4  UNL     1      29.366  50.141   1.328  1.00  0.00     0.134 C
BRANCH  25  26
HETATM   26  C5  UNL     1      30.801  50.511   1.346  1.00  0.00     0.020 C
BRANCH  26  27
HETATM   27  C6  UNL     1      31.069  51.603   0.335  1.00  0.00    -0.003 C
HETATM   28  C7  UNL     1      31.750  51.099  -0.910  1.00  0.00     0.005 C
ENDBRANCH  26  27
ENDBRANCH  25  26
ENDBRANCH  20  25
ENDBRANCH  19  20
BRANCH  19  29
HETATM   29  O2  UNL     1      29.500  47.907   2.840  1.00  0.00    -0.347 OA
ATOM     30  H2  UNL     1      30.013  47.292   3.349  1.00  0.00     0.219 HD
ENDBRANCH  19  29
ENDBRANCH   1  19
BRANCH   1  31
HETATM   31  O3  UNL     1      30.873  46.349   0.016  1.00  0.00    -0.381 OA
ATOM     32  H3  UNL     1      30.442  45.826  -0.650  1.00  0.00     0.211 HD
ENDBRANCH   1  31
BRANCH  17  33
HETATM   33  C26 UNL     1      31.466  44.363   4.127  1.00  0.00     0.020 C
BRANCH  33  34
HETATM   34  C27 UNL     1      32.919  44.090   4.354  1.00  0.00     0.114 C
BRANCH  34  35
HETATM   35  C28 UNL     1      33.136  43.974   5.835  1.00  0.00     0.172 C
HETATM   36  O5  UNL     1      32.125  43.974   6.570  1.00  0.00    -0.648 OA
HETATM   37  O6  UNL     1      34.421  43.873   6.320  1.00  0.00    -0.648 OA
ENDBRANCH  34  35
ENDBRANCH  33  34
ENDBRANCH  17  33
BRANCH   9  38
HETATM   38  O4  UNL     1      29.505  36.945   0.615  1.00  0.00    -0.396 OA
ATOM     39  H4  UNL     1      30.207  36.319   0.744  1.00  0.00     0.210 HD
ENDBRANCH   9  38
TORSDOF 12
ENDMDL