MODEL 2
REMARK VINA RESULT: -10.018924792      1.964      3.040
REMARK  10 active torsions:
REMARK  status: ('A' for Active; 'I' for Inactive)
REMARK    1  A    between atoms: C2_2  and  C3_3
REMARK    2  A    between atoms: C3_3  and  N1_4
REMARK       I    between atoms: N1_4  and  C4_6
REMARK    3  A    between atoms: C4_6  and  C5_8
REMARK    4  A    between atoms: C5_8  and  C6_9
REMARK    5  A    between atoms: C6_9  and  C7_10
REMARK    6  A    between atoms: C7_10  and  C8_12
REMARK    7  A    between atoms: C8_12  and  C10_14
REMARK    8  A    between atoms: C10_14  and  C11_15
REMARK    9  A    between atoms: C22_26  and  N2_27
REMARK   10  A    between atoms: C29_35  and  O3_36
ROOT
HETATM    1  C11 UNL     1      30.473  46.316   1.876  1.00  0.00     0.021 C
HETATM    2  C12 UNL     1      30.332  45.759   3.266  1.00  0.00     0.009 C
HETATM    3  C13 UNL     1      31.461  44.721   3.221  1.00  0.00     0.013 C
HETATM    4  C14 UNL     1      31.700  44.419   1.750  1.00  0.00    -0.009 C
HETATM    5  C15 UNL     1      32.902  45.311   1.365  1.00  0.00     0.018 C
HETATM    6  C16 UNL     1      32.135  43.043   1.485  1.00  0.00     0.039 C
HETATM    7  C17 UNL     1      31.611  41.961   2.330  1.00  0.00    -0.021 C
HETATM    8  C18 UNL     1      30.665  41.103   1.935  1.00  0.00    -0.064 C
HETATM    9  C19 UNL     1      30.296  40.073   3.001  1.00  0.00    -0.003 C
HETATM   10  C20 UNL     1      30.334  40.684   4.389  1.00  0.00     0.021 C
HETATM   11  C21 UNL     1      31.422  39.036   2.993  1.00  0.00     0.021 C
HETATM   12  C22 UNL     1      28.941  39.511   2.806  1.00  0.00     0.092 C
HETATM   13  C24 UNL     1      28.395  39.554   1.407  1.00  0.00     0.011 C
HETATM   14  C25 UNL     1      27.715  40.853   1.036  1.00  0.00     0.017 C
HETATM   15  C26 UNL     1      28.794  41.880   0.785  1.00  0.00    -0.027 A
HETATM   16  C27 UNL     1      28.821  43.123   1.595  1.00  0.00     0.013 C
HETATM   17  C28 UNL     1      29.242  44.388   0.934  1.00  0.00     0.040 C
HETATM   18  C29 UNL     1      30.528  45.011   1.091  1.00  0.00     0.069 C
HETATM   19  C30 UNL     1      29.657  41.883  -0.405  1.00  0.00     0.025 A
HETATM   20  C31 UNL     1      29.994  41.039   0.679  1.00  0.00    -0.008 A
HETATM   21  C32 UNL     1      29.553  39.572   0.489  1.00  0.00     0.021 C
ENDROOT
BRANCH   1  22
HETATM   22  C10 UNL     1      29.506  47.322   1.441  1.00  0.00     0.019 C
BRANCH  22  23
HETATM   23  C8  UNL     1      29.645  48.609   2.273  1.00  0.00     0.052 C
HETATM   24  C9  UNL     1      30.767  49.460   1.795  1.00  0.00     0.018 C
BRANCH  23  25
HETATM   25  C7  UNL     1      28.367  49.396   2.074  1.00  0.00     0.131 C
HETATM   26  O2  UNL     1      27.482  49.368   2.900  1.00  0.00    -0.298 OA
BRANCH  25  27
HETATM   27  C6  UNL     1      28.179  50.221   0.854  1.00  0.00     0.088 C
BRANCH  27  28
HETATM   28  C5  UNL     1      26.832  50.036   0.212  1.00  0.00     0.110 C
BRANCH  28  29
HETATM   29  C4  UNL     1      26.771  50.395  -1.210  1.00  0.00     0.217 C
HETATM   30  N1  UNL     1      25.581  50.955  -1.735  1.00  0.00    -0.361 N
ATOM     31  H1  UNL     1      24.782  51.102  -1.118  1.00  0.00     0.162 HD
HETATM   32  O1  UNL     1      27.748  50.217  -1.964  1.00  0.00    -0.274 OA
BRANCH  30  33
HETATM   33  C3  UNL     1      25.478  51.322  -3.132  1.00  0.00     0.122 C
BRANCH  33  34
HETATM   34  C2  UNL     1      24.704  52.619  -3.299  1.00  0.00     0.015 C
HETATM   35  C1  UNL     1      23.551  52.715  -2.351  1.00  0.00     0.006 C
ENDBRANCH  33  34
ENDBRANCH  30  33
ENDBRANCH  28  29
ENDBRANCH  27  28
ENDBRANCH  25  27
ENDBRANCH  23  25
ENDBRANCH  22  23
ENDBRANCH   1  22
BRANCH  18  36
HETATM   36  O3  UNL     1      30.943  45.462  -0.197  1.00  0.00    -0.389 OA
ATOM     37  H3  UNL     1      30.240  46.058  -0.430  1.00  0.00     0.210 HD
ENDBRANCH  18  36
BRANCH  12  38
HETATM   38  N2  UNL     1      28.859  38.145   3.229  1.00  0.00    -0.420 N
HETATM   39  C23 UNL     1      27.698  37.413   2.911  1.00  0.00     0.140 C
ATOM     40  H2  UNL     1      29.623  37.712   3.747  1.00  0.00     0.153 HD
ENDBRANCH  12  38
TORSDOF 10
ENDMDL