MODEL 3
REMARK VINA RESULT: -8.127668795      1.777      9.448
REMARK  12 active torsions:
REMARK  status: ('A' for Active; 'I' for Inactive)
REMARK    1  A    between atoms: C10_10  and  O1_11
REMARK    2  A    between atoms: C10_10  and  C11_13
REMARK    3  A    between atoms: C11_13  and  O2_14
REMARK    4  A    between atoms: C11_13  and  N1_16
REMARK    5  A    between atoms: N1_16  and  C12_17
REMARK    6  A    between atoms: N1_16  and  C14_19
REMARK    7  A    between atoms: C14_19  and  C15_20
REMARK    8  A    between atoms: C15_20  and  O3_21
REMARK    9  A    between atoms: C25_32  and  C26_33
REMARK   10  A    between atoms: C26_33  and  C28_35
REMARK   11  A    between atoms: C28_35  and  C29_36
REMARK   12  A    between atoms: C29_36  and  C30_37
ROOT
HETATM    1  C1  UNL     1      33.329  46.819   0.351  1.00  0.00     0.015 C
HETATM    2  C2  UNL     1      32.139  46.417   0.489  1.00  0.00    -0.084 C
HETATM    3  C3  UNL     1      31.612  45.157  -0.203  1.00  0.00     0.039 C
HETATM    4  C4  UNL     1      31.290  44.484   1.090  1.00  0.00     0.003 C
HETATM    5  C5  UNL     1      30.936  43.091   1.131  1.00  0.00    -0.005 C
HETATM    6  C6  UNL     1      30.244  42.421   0.009  1.00  0.00     0.006 C
HETATM    7  C7  UNL     1      29.324  41.386   0.605  1.00  0.00     0.006 C
HETATM    8  C8  UNL     1      30.004  40.540   1.690  1.00  0.00    -0.003 C
HETATM    9  C9  UNL     1      28.942  39.555   2.074  1.00  0.00     0.052 C
HETATM   10  C10 UNL     1      29.250  38.697   3.271  1.00  0.00     0.122 C
HETATM   11  C16 UNL     1      30.057  39.488   4.300  1.00  0.00     0.047 C
HETATM   12  C17 UNL     1      29.701  40.950   4.058  1.00  0.00     0.013 C
HETATM   13  C18 UNL     1      30.529  41.382   2.836  1.00  0.00    -0.036 C
HETATM   14  C19 UNL     1      31.952  41.115   3.193  1.00  0.00     0.016 C
HETATM   15  C20 UNL     1      30.250  42.817   2.472  1.00  0.00    -0.002 C
HETATM   16  C21 UNL     1      30.782  43.746   3.523  1.00  0.00     0.006 C
HETATM   17  C22 UNL     1      30.492  45.211   3.211  1.00  0.00     0.010 C
HETATM   18  C23 UNL     1      30.392  45.508   1.771  1.00  0.00    -0.032 C
HETATM   19  C24 UNL     1      28.943  45.399   1.367  1.00  0.00     0.016 C
HETATM   20  C25 UNL     1      30.931  46.796   1.235  1.00  0.00     0.026 C
ENDROOT
BRANCH  10  21
HETATM   21  O1  UNL     1      28.051  38.429   3.887  1.00  0.00    -0.381 OA
ATOM     22  H1  UNL     1      27.493  38.021   3.236  1.00  0.00     0.211 HD
ENDBRANCH  10  21
BRANCH  10  23
HETATM   23  C11 UNL     1      29.947  37.452   2.901  1.00  0.00     0.149 C
BRANCH  23  24
HETATM   24  O2  UNL     1      30.619  36.852   3.861  1.00  0.00    -0.347 OA
ATOM     25  H2  UNL     1      31.429  37.268   4.132  1.00  0.00     0.219 HD
ENDBRANCH  23  24
BRANCH  23  26
HETATM   26  N1  UNL     1      30.024  36.777   1.680  1.00  0.00    -0.361 N
BRANCH  26  27
HETATM   27  C12 UNL     1      31.210  37.081   0.818  1.00  0.00     0.120 C
HETATM   28  C13 UNL     1      30.653  37.532  -0.498  1.00  0.00     0.026 C
ENDBRANCH  26  27
BRANCH  26  29
HETATM   29  C14 UNL     1      29.076  35.859   1.139  1.00  0.00     0.150 C
BRANCH  29  30
HETATM   30  C15 UNL     1      27.909  35.553   2.033  1.00  0.00     0.183 C
BRANCH  30  31
HETATM   31  O3  UNL     1      26.875  36.460   1.985  1.00  0.00    -0.399 OA
ATOM     32  H3  UNL     1      26.956  37.202   2.572  1.00  0.00     0.209 HD
ENDBRANCH  30  31
ENDBRANCH  29  30
ENDBRANCH  26  29
ENDBRANCH  23  26
ENDBRANCH  10  23
BRANCH  20  33
HETATM   33  C26 UNL     1      30.998  48.002   2.080  1.00  0.00    -0.006 C
HETATM   34  C27 UNL     1      31.604  49.123   1.192  1.00  0.00     0.011 C
BRANCH  33  35
HETATM   35  C28 UNL     1      29.617  48.492   2.430  1.00  0.00     0.037 C
BRANCH  35  36
HETATM   36  C29 UNL     1      28.959  49.416   1.478  1.00  0.00     0.044 C
BRANCH  36  37
HETATM   37  C30 UNL     1      27.825  49.102   0.689  1.00  0.00     0.250 C
HETATM   38  N2  UNL     1      28.020  48.353  -0.540  1.00  0.00    -0.058 NA
HETATM   39  O4  UNL     1      26.645  49.406   0.925  1.00  0.00    -0.272 OA
ENDBRANCH  36  37
ENDBRANCH  35  36
ENDBRANCH  33  35
ENDBRANCH  20  33
TORSDOF 12
ENDMDL