MODEL 4
REMARK VINA RESULT: -10.533291545      1.994      3.149
REMARK  8 active torsions:
REMARK  status: ('A' for Active; 'I' for Inactive)
REMARK    1  A    between atoms: C2_2  and  C3_3
REMARK    2  A    between atoms: C3_3  and  C4_4
REMARK    3  A    between atoms: C3_3  and  N1_6
REMARK    4  A    between atoms: C3_3  and  C14_17
REMARK       I    between atoms: N1_6  and  C6_8
REMARK    5  A    between atoms: C6_8  and  C7_10
REMARK    6  A    between atoms: C7_10  and  C8_11
REMARK    7  A    between atoms: C14_17  and  C15_19
REMARK       I    between atoms: C15_19  and  N2_21
REMARK    8  A    between atoms: N2_21  and  C16_23
ROOT
HETATM    1  C15 UNL     1      31.436  45.930   2.035  1.00  0.00     0.290 C
HETATM    2  O3  UNL     1      30.261  45.948   2.471  1.00  0.00    -0.264 OA
HETATM    3  N2  UNL     1      32.202  44.781   2.390  1.00  0.00    -0.349 N
ATOM      4  H2  UNL     1      33.165  44.720   2.058  1.00  0.00     0.163 HD
ENDROOT
BRANCH   1   5
HETATM    5  C14 UNL     1      32.047  46.965   1.223  1.00  0.00     0.244 C
HETATM    6  O2  UNL     1      33.172  47.409   1.595  1.00  0.00    -0.284 OA
BRANCH   5   7
HETATM    7  C3  UNL     1      31.434  47.520   0.006  1.00  0.00     0.102 C
BRANCH   7   8
HETATM    8  C2  UNL     1      31.281  46.472  -1.049  1.00  0.00     0.035 C
HETATM    9  C1  UNL     1      32.578  46.320  -1.860  1.00  0.00     0.008 C
ENDBRANCH   7   8
BRANCH   7  10
HETATM   10  C4  UNL     1      32.345  48.647  -0.525  1.00  0.00     0.035 C
HETATM   11  C5  UNL     1      31.752  49.967  -0.148  1.00  0.00     0.008 C
ENDBRANCH   7  10
BRANCH   7  12
HETATM   12  N1  UNL     1      30.160  48.130   0.356  1.00  0.00    -0.344 N
HETATM   13  C6  UNL     1      28.921  47.804  -0.255  1.00  0.00     0.218 C
HETATM   14  O1  UNL     1      28.843  46.947  -1.156  1.00  0.00    -0.274 OA
ATOM     15  H1  UNL     1      30.157  48.840   1.089  1.00  0.00     0.163 HD
BRANCH  13  16
HETATM   16  C7  UNL     1      27.692  48.494   0.185  1.00  0.00     0.107 C
BRANCH  16  17
HETATM   17  C8  UNL     1      27.696  49.906  -0.290  1.00  0.00    -0.006 C
HETATM   18  C9  UNL     1      26.875  50.814   0.608  1.00  0.00     0.005 C
HETATM   19  C10 UNL     1      25.394  50.562   0.445  1.00  0.00     0.000 C
HETATM   20  C11 UNL     1      25.017  50.862  -0.981  1.00  0.00     0.000 C
HETATM   21  C12 UNL     1      26.203  51.066  -1.867  1.00  0.00     0.000 C
HETATM   22  C13 UNL     1      27.220  49.958  -1.715  1.00  0.00     0.005 C
ENDBRANCH  16  17
ENDBRANCH  13  16
ENDBRANCH   7  12
ENDBRANCH   5   7
ENDBRANCH   1   5
BRANCH   3  23
HETATM   23  C16 UNL     1      31.688  43.702   3.194  1.00  0.00     0.089 C
HETATM   24  C17 UNL     1      32.294  43.623   4.548  1.00  0.00     0.029 C
HETATM   25  C18 UNL     1      31.646  42.591   5.411  1.00  0.00     0.036 C
HETATM   26  C19 UNL     1      30.971  41.531   4.637  1.00  0.00    -0.076 C
HETATM   27  C20 UNL     1      31.095  41.399   3.329  1.00  0.00    -0.065 C
HETATM   28  C29 UNL     1      30.113  40.577   5.427  1.00  0.00     0.036 C
HETATM   29  C21 UNL     1      31.941  42.329   2.542  1.00  0.00     0.060 C
HETATM   30  C22 UNL     1      30.342  40.268   2.693  1.00  0.00     0.001 C
HETATM   31  C23 UNL     1      30.245  40.574   1.198  1.00  0.00     0.022 C
HETATM   32  C24 UNL     1      31.042  38.971   2.865  1.00  0.00     0.025 C
HETATM   33  C27 UNL     1      28.937  40.305   3.224  1.00  0.00     0.097 C
HETATM   34  C25 UNL     1      30.167  37.798   3.133  1.00  0.00     0.104 C
HETATM   35  C26 UNL     1      28.791  37.941   2.588  1.00  0.00     0.217 C
HETATM   36  O4  UNL     1      28.148  36.960   2.098  1.00  0.00    -0.274 OA
HETATM   37  N3  UNL     1      28.187  39.221   2.622  1.00  0.00    -0.355 N
ATOM     38  H3  UNL     1      27.256  39.375   2.235  1.00  0.00     0.162 HD
HETATM   39  C28 UNL     1      28.843  40.210   4.705  1.00  0.00     0.030 C
ENDBRANCH   3  23
TORSDOF 8
ENDMDL