MODEL 4
REMARK VINA RESULT: -6.499347247      2.165      5.707
REMARK  16 active torsions:
REMARK  status: ('A' for Active; 'I' for Inactive)
REMARK    1  A    between atoms: C2_2  and  C4_4
REMARK    2  A    between atoms: C4_4  and  O1_5
REMARK    3  A    between atoms: C4_4  and  C5_7
REMARK    4  A    between atoms: C5_7  and  C6_8
REMARK    5  A    between atoms: C5_7  and  N4_16
REMARK    6  A    between atoms: C6_8  and  N1_9
REMARK    7  A    between atoms: N1_9  and  N2_11
REMARK    8  A    between atoms: N4_16  and  C8_18
REMARK    9  A    between atoms: C8_18  and  C9_19
REMARK   10  A    between atoms: C9_19  and  C10_20
REMARK   11  A    between atoms: C10_20  and  C11_21
REMARK   12  A    between atoms: C11_21  and  C12_22
REMARK   13  A    between atoms: C12_22  and  C13_23
REMARK   14  A    between atoms: C13_23  and  N5_24
REMARK   15  A    between atoms: C14_28  and  O2_29
REMARK   16  A    between atoms: C14_28  and  N6_31
ROOT
HETATM    1  C8  UNL     1      -4.446   5.939  11.702  1.00  0.00     0.086 C
HETATM    2  C14 UNL     1      -4.702   4.609  12.175  1.00  0.00     0.174 C
ENDROOT
BRANCH   1   3
HETATM    3  N4  UNL     1      -3.055   6.308  11.549  1.00  0.00    -0.347 N
HETATM    4  C7  UNL     1      -2.670   7.595  11.980  1.00  0.00     0.156 C
BRANCH   3   5
HETATM    5  C5  UNL     1      -2.383   5.901  10.387  1.00  0.00     0.064 C
BRANCH   5   6
HETATM    6  C4  UNL     1      -2.925   5.449   9.155  1.00  0.00     0.091 C
BRANCH   6   7
HETATM    7  C2  UNL     1      -3.405   6.025   8.096  1.00  0.00    -0.052 C
HETATM    8  C1  UNL     1      -3.916   5.370   6.877  1.00  0.00     0.046 C
HETATM    9  C3  UNL     1      -3.470   7.545   8.027  1.00  0.00     0.046 C
ENDBRANCH   6   7
BRANCH   6  10
HETATM   10  O1  UNL     1      -2.965   4.005   9.015  1.00  0.00    -0.358 OA
ATOM     11  H1  UNL     1      -3.555   3.753   8.314  1.00  0.00     0.217 HD
ENDBRANCH   6  10
ENDBRANCH   5   6
BRANCH   5  12
HETATM   12  C6  UNL     1      -1.132   5.051  10.688  1.00  0.00     0.201 C
BRANCH  12  13
HETATM   13  N1  UNL     1      -1.407   3.947  11.548  1.00  0.00    -0.317 N
ATOM     14  H1  UNL     1      -2.114   3.271  11.256  1.00  0.00     0.182 HD
BRANCH  13  15
HETATM   15  N2  UNL     1      -0.761   3.742  12.766  1.00  0.00    -0.254 N
HETATM   16  N3  UNL     1      -1.174   4.274  13.834  1.00  0.00    -0.331 N
ATOM     17  H32 UNL     1      -2.004   4.866  13.787  1.00  0.00     0.178 HD
ATOM     18  H31 UNL     1      -0.701   4.125  14.725  1.00  0.00     0.178 HD
ATOM     19  H2  UNL     1       0.068   3.148  12.795  1.00  0.00     0.207 HD
ENDBRANCH  13  15
ENDBRANCH  12  13
ENDBRANCH   5  12
ENDBRANCH   3   5
ENDBRANCH   1   3
BRANCH   1  20
HETATM   20  C9  UNL     1      -5.320   6.972  12.295  1.00  0.00     0.030 C
BRANCH  20  21
HETATM   21  C10 UNL     1      -6.548   7.452  11.625  1.00  0.00    -0.024 C
BRANCH  21  22
HETATM   22  C11 UNL     1      -6.547   8.504  10.605  1.00  0.00     0.029 C
BRANCH  22  23
HETATM   23  C12 UNL     1      -7.293   8.034   9.323  1.00  0.00     0.031 C
BRANCH  23  24
HETATM   24  C13 UNL     1      -6.980   6.614   8.997  1.00  0.00     0.230 C
BRANCH  24  25
HETATM   25  N5  UNL     1      -7.368   6.358   7.616  1.00  0.00    -0.079 N
ATOM     26  H53 UNL     1      -7.645   7.207   7.123  1.00  0.00     0.274 HD
ATOM     27  H52 UNL     1      -6.574   6.106   7.027  1.00  0.00     0.274 HD
ATOM     28  H51 UNL     1      -8.100   5.647   7.610  1.00  0.00     0.274 HD
ENDBRANCH  24  25
ENDBRANCH  23  24
ENDBRANCH  22  23
ENDBRANCH  21  22
ENDBRANCH  20  21
ENDBRANCH   1  20
BRANCH   2  29
HETATM   29  O2  UNL     1      -5.190   3.859  11.178  1.00  0.00    -0.344 OA
ATOM     30  H2  UNL     1      -4.492   3.345  10.790  1.00  0.00     0.219 HD
ENDBRANCH   2  29
BRANCH   2  31
HETATM   31  N6  UNL     1      -4.600   3.869  13.325  1.00  0.00    -0.269 N
HETATM   32  C15 UNL     1      -5.000   4.389  14.669  1.00  0.00     0.367 C
HETATM   33  N7  UNL     1      -5.818   3.263  15.113  1.00  0.00    -0.046 N
HETATM   34  C16 UNL     1      -4.916   2.142  14.862  1.00  0.00     0.275 C
ATOM     35  H72 UNL     1      -6.176   3.332  16.065  1.00  0.00     0.280 HD
ATOM     36  H71 UNL     1      -6.737   3.191  14.675  1.00  0.00     0.280 HD
HETATM   37  C17 UNL     1      -4.015   1.909  16.057  1.00  0.00     0.050 C
HETATM   38  C18 UNL     1      -4.141   2.594  13.678  1.00  0.00     0.258 C
HETATM   39  O3  UNL     1      -3.250   1.937  13.124  1.00  0.00    -0.271 OA
ENDBRANCH   2  31
TORSDOF 16
ENDMDL