MODEL 3
REMARK VINA RESULT: -6.602806106      3.810      6.914
REMARK  11 active torsions:
REMARK  status: ('A' for Active; 'I' for Inactive)
REMARK    1  A    between atoms: C2_2  and  C3_3
REMARK    2  A    between atoms: C3_3  and  N1_4
REMARK    3  A    between atoms: N1_4  and  C4_5
REMARK    4  A    between atoms: N1_4  and  C9_22
REMARK    5  A    between atoms: C4_5  and  C5_6
REMARK       I    between atoms: C5_6  and  N2_8
REMARK    6  A    between atoms: N4_15  and  N5_17
REMARK    7  A    between atoms: C9_22  and  C10_23
REMARK    8  A    between atoms: C12_25  and  O3_26
REMARK    9  A    between atoms: O3_26  and  C13_27
REMARK   10  A    between atoms: C13_27  and  C14_28
REMARK   11  A    between atoms: C14_28  and  N7_29
ROOT
HETATM    1  N1  UNL     1      -4.812   5.480  13.804  1.00  0.00    -0.356 N
ENDROOT
BRANCH   1   2
HETATM    2  C3  UNL     1      -5.507   6.621  13.398  1.00  0.00     0.090 C
BRANCH   2   3
HETATM    3  C2  UNL     1      -5.508   6.975  11.978  1.00  0.00     0.007 C
HETATM    4  C1  UNL     1      -6.446   7.770  11.485  1.00  0.00     0.012 C
ENDBRANCH   2   3
ENDBRANCH   1   2
BRANCH   1   5
HETATM    5  C4  UNL     1      -5.508   4.252  13.906  1.00  0.00     0.231 C
BRANCH   5   6
HETATM    6  C5  UNL     1      -5.747   3.796  15.290  1.00  0.00     0.256 C
HETATM    7  O1  UNL     1      -6.313   4.555  16.110  1.00  0.00    -0.271 OA
HETATM    8  N2  UNL     1      -5.351   2.498  15.746  1.00  0.00    -0.139 N
HETATM    9  C6  UNL     1      -5.550   2.001  17.086  1.00  0.00     0.254 C
HETATM   10  C8  UNL     1      -4.708   1.472  15.008  1.00  0.00     0.706 C
HETATM   11  C7  UNL     1      -5.599   0.546  16.879  1.00  0.00     0.254 C
HETATM   12  O2  UNL     1      -6.188  -0.278  17.604  1.00  0.00    -0.271 OA
HETATM   13  N3  UNL     1      -4.846   0.239  15.689  1.00  0.00    -0.157 N
ATOM     14  H3  UNL     1      -4.489  -0.671  15.400  1.00  0.00     0.187 HD
HETATM   15  N4  UNL     1      -4.103   1.637  13.900  1.00  0.00    -0.117 N
ATOM     16  H4  UNL     1      -4.087   2.585  13.525  1.00  0.00     0.207 HD
BRANCH  15  17
HETATM   17  N5  UNL     1      -3.470   0.667  13.156  1.00  0.00    -0.235 N
HETATM   18  N6  UNL     1      -4.158  -0.118  12.445  1.00  0.00    -0.330 N
ATOM     19  H62 UNL     1      -5.174  -0.021  12.433  1.00  0.00     0.178 HD
ATOM     20  H61 UNL     1      -3.689  -0.836  11.894  1.00  0.00     0.178 HD
ATOM     21  H5  UNL     1      -2.454   0.583  13.180  1.00  0.00     0.208 HD
ENDBRANCH  15  17
ENDBRANCH   5   6
ENDBRANCH   1   5
BRANCH   1  22
HETATM   22  C9  UNL     1      -3.521   5.549  14.347  1.00  0.00     0.121 C
BRANCH  22  23
HETATM   23  C10 UNL     1      -2.480   4.926  13.535  1.00  0.00     0.067 A
HETATM   24  C11 UNL     1      -2.256   5.187  12.201  1.00  0.00     0.089 A
HETATM   25  C12 UNL     1      -1.174   4.420  11.778  1.00  0.00     0.159 A
HETATM   26  N8  UNL     1      -0.800   3.737  12.872  1.00  0.00    -0.280 N
HETATM   27  N9  UNL     1      -1.557   4.022  13.914  1.00  0.00    -0.297 N
ATOM     28  H8  UNL     1      -0.023   3.076  12.895  1.00  0.00     0.189 HD
ATOM     29  H9  UNL     1      -1.459   3.625  14.849  1.00  0.00     0.187 HD
BRANCH  25  30
HETATM   30  O3  UNL     1      -0.640   4.403  10.494  1.00  0.00    -0.333 OA
BRANCH  30  31
HETATM   31  C13 UNL     1       0.577   5.044  10.253  1.00  0.00     0.207 C
BRANCH  31  32
HETATM   32  C14 UNL     1       1.751   4.078  10.328  1.00  0.00     0.298 C
BRANCH  32  33
HETATM   33  N7  UNL     1       2.477   4.112   9.088  1.00  0.00     0.082 N
HETATM   34  C15 UNL     1       3.756   4.765   9.301  1.00  0.00     0.309 C
HETATM   35  C16 UNL     1       2.631   2.793   8.527  1.00  0.00     0.309 C
ENDBRANCH  32  33
ENDBRANCH  31  32
ENDBRANCH  30  31
ENDBRANCH  25  30
ENDBRANCH  22  23
ENDBRANCH   1  22
TORSDOF 11
ENDMDL