MODEL 3
REMARK VINA RESULT: -6.513908824      1.412      3.008
REMARK  14 active torsions:
REMARK  status: ('A' for Active; 'I' for Inactive)
REMARK    1  A    between atoms: C2_2  and  C3_3
REMARK    2  A    between atoms: C2_2  and  N1_6
REMARK    3  A    between atoms: C3_3  and  O1_4
REMARK       I    between atoms: N1_6  and  C4_8
REMARK    4  A    between atoms: C4_8  and  C5_10
REMARK    5  A    between atoms: C5_10  and  C6_11
REMARK    6  A    between atoms: C5_10  and  C12_18
REMARK    7  A    between atoms: C7_12  and  C8_13
REMARK    8  A    between atoms: C8_13  and  N2_14
REMARK       I    between atoms: C12_18  and  N3_20
REMARK    9  A    between atoms: N3_20  and  C13_22
REMARK   10  A    between atoms: C13_22  and  C14_23
REMARK   11  A    between atoms: C13_22  and  C16_27
REMARK   12  A    between atoms: C14_23  and  C15_24
REMARK   13  A    between atoms: C16_27  and  O6_28
REMARK   14  A    between atoms: C16_27  and  C17_30
ROOT
HETATM    1  C5  UNL     1      -4.575   5.540  14.141  1.00  0.00     0.192 C
ENDROOT
BRANCH   1   2
HETATM    2  C4  UNL     1      -3.283   5.595  13.437  1.00  0.00     0.234 C
HETATM    3  N1  UNL     1      -3.081   4.899  12.228  1.00  0.00    -0.354 N
ATOM      4  H1  UNL     1      -3.853   4.351  11.846  1.00  0.00     0.162 HD
HETATM    5  O2  UNL     1      -2.356   6.268  13.916  1.00  0.00    -0.272 OA
BRANCH   3   6
HETATM    6  C2  UNL     1      -1.827   4.926  11.501  1.00  0.00     0.104 C
HETATM    7  C1  UNL     1      -2.124   4.783  10.028  1.00  0.00     0.034 C
BRANCH   6   8
HETATM    8  C3  UNL     1      -0.869   3.854  11.904  1.00  0.00     0.189 C
BRANCH   8   9
HETATM    9  O1  UNL     1      -1.513   2.742  12.458  1.00  0.00    -0.399 OA
ATOM     10  H1  UNL     1      -1.167   1.922  12.129  1.00  0.00     0.209 HD
ENDBRANCH   8   9
ENDBRANCH   6   8
ENDBRANCH   3   6
ENDBRANCH   1   2
BRANCH   1  11
HETATM   11  C6  UNL     1      -5.534   6.426  13.418  1.00  0.00    -0.006 C
HETATM   12  C7  UNL     1      -5.385   6.884  12.193  1.00  0.00    -0.002 C
BRANCH  12  13
HETATM   13  C8  UNL     1      -6.390   7.759  11.560  1.00  0.00     0.263 C
BRANCH  13  14
HETATM   14  N2  UNL     1      -6.230   7.828  10.120  1.00  0.00    -0.075 N
HETATM   15  C9  UNL     1      -7.576   8.063   9.574  1.00  0.00     0.272 C
HETATM   16  C10 UNL     1      -5.773   6.574   9.566  1.00  0.00     0.272 C
HETATM   17  C11 UNL     1      -5.419   8.939   9.704  1.00  0.00     0.272 C
ENDBRANCH  13  14
ENDBRANCH  12  13
ENDBRANCH   1  11
BRANCH   1  18
HETATM   18  C12 UNL     1      -5.092   4.155  14.237  1.00  0.00     0.235 C
HETATM   19  O3  UNL     1      -6.351   3.923  14.219  1.00  0.00    -0.272 OA
HETATM   20  N3  UNL     1      -4.244   3.046  14.350  1.00  0.00    -0.349 N
ATOM     21  H3  UNL     1      -3.233   3.181  14.372  1.00  0.00     0.163 HD
BRANCH  20  22
HETATM   22  C13 UNL     1      -4.809   1.667  14.440  1.00  0.00     0.154 C
BRANCH  22  23
HETATM   23  C14 UNL     1      -4.211   0.896  13.348  1.00  0.00     0.145 C
BRANCH  23  24
HETATM   24  C15 UNL     1      -4.577   1.225  11.972  1.00  0.00     0.174 C
HETATM   25  O4  UNL     1      -4.217   2.285  11.431  1.00  0.00    -0.648 OA
HETATM   26  O5  UNL     1      -5.347   0.328  11.254  1.00  0.00    -0.648 OA
ENDBRANCH  23  24
ENDBRANCH  22  23
BRANCH  22  27
HETATM   27  C16 UNL     1      -4.612   1.236  15.832  1.00  0.00     0.104 C
BRANCH  27  28
HETATM   28  O6  UNL     1      -3.351   1.191  16.209  1.00  0.00    -0.360 OA
ATOM     29  H6  UNL     1      -3.156   1.713  16.978  1.00  0.00     0.217 HD
ENDBRANCH  27  28
BRANCH  27  30
HETATM   30  C17 UNL     1      -5.525   0.854  16.845  1.00  0.00     0.292 C
HETATM   31  O7  UNL     1      -6.017  -0.254  17.068  1.00  0.00    -0.300 OA
ENDBRANCH  27  30
ENDBRANCH  22  27
ENDBRANCH  20  22
ENDBRANCH   1  18
TORSDOF 14
ENDMDL