MODEL 5
REMARK VINA RESULT: -5.892519586      2.129      2.678
REMARK  14 active torsions:
REMARK  status: ('A' for Active; 'I' for Inactive)
REMARK    1  A    between atoms: C2_2  and  N1_3
REMARK    2  A    between atoms: N1_3  and  C3_4
REMARK    3  A    between atoms: N1_3  and  C8_12
REMARK       I    between atoms: N1_3  and  C16_26
REMARK    4  A    between atoms: C3_4  and  C4_5
REMARK    5  A    between atoms: C4_5  and  N2_6
REMARK    6  A    between atoms: N2_6  and  C5_9
REMARK    7  A    between atoms: C8_12  and  C9_13
REMARK    8  A    between atoms: C9_13  and  S1_14
REMARK    9  A    between atoms: S1_14  and  C10_16
REMARK   10  A    between atoms: C10_16  and  C11_17
REMARK   11  A    between atoms: C14_21  and  C15_22
REMARK   12  A    between atoms: C15_22  and  O2_23
REMARK   13  A    between atoms: C16_26  and  C17_28
REMARK   14  A    between atoms: C17_28  and  O5_29
ROOT
HETATM    1  N1  UNL     1      -4.232   2.853  14.730  1.00  0.00    -0.001 N
HETATM    2  C16 UNL     1      -4.176   1.805  15.636  1.00  0.00     0.341 C
HETATM    3  O4  UNL     1      -3.123   1.663  16.295  1.00  0.00    -0.263 OA
ENDROOT
BRANCH   1   4
HETATM    4  C2  UNL     1      -5.419   3.616  14.605  1.00  0.00     0.243 C
HETATM    5  C1  UNL     1      -6.278   3.848  15.780  1.00  0.00     0.035 C
ENDBRANCH   1   4
BRANCH   1   6
HETATM    6  C3  UNL     1      -3.169   3.811  15.104  1.00  0.00     0.274 C
BRANCH   6   7
HETATM    7  C4  UNL     1      -3.354   5.176  14.552  1.00  0.00     0.261 C
BRANCH   7   8
HETATM    8  N2  UNL     1      -2.152   5.620  13.864  1.00  0.00    -0.070 N
ATOM      9  H22 UNL     1      -1.312   5.300  14.347  1.00  0.00     0.277 HD
ATOM     10  H21 UNL     1      -2.030   5.126  12.980  1.00  0.00     0.277 HD
BRANCH   8  11
HETATM   11  C5  UNL     1      -2.126   7.045  13.669  1.00  0.00     0.177 C
HETATM   12  C6  UNL     1      -2.526   7.831  14.872  1.00  0.00     0.039 C
HETATM   13  C7  UNL     1      -0.782   7.537  13.200  1.00  0.00     0.039 C
ENDBRANCH   8  11
ENDBRANCH   7   8
ENDBRANCH   6   7
ENDBRANCH   1   6
BRANCH   1  14
HETATM   14  C8  UNL     1      -3.776   2.440  13.379  1.00  0.00     0.260 C
BRANCH  14  15
HETATM   15  C9  UNL     1      -4.721   2.692  12.287  1.00  0.00     0.137 C
BRANCH  15  16
HETATM   16  S1  UNL     1      -3.881   3.764  11.107  1.00  0.00     0.019 S
HETATM   17  O1  UNL     1      -2.253   3.618  11.336  1.00  0.00    -0.258 OA
BRANCH  16  18
HETATM   18  C10 UNL     1      -4.494   5.417  11.240  1.00  0.00     0.142 C
BRANCH  18  19
HETATM   19  C11 UNL     1      -5.141   5.906   9.983  1.00  0.00     0.164 C
HETATM   20  C12 UNL     1      -4.477   7.086   9.361  1.00  0.00     0.307 C
HETATM   21  N3  UNL     1      -5.557   7.986   9.097  1.00  0.00     0.117 N
HETATM   22  C13 UNL     1      -5.794   8.236   7.706  1.00  0.00     0.313 C
HETATM   23  C14 UNL     1      -6.694   7.495   9.796  1.00  0.00     0.382 C
HETATM   24  O3  UNL     1      -6.452   6.223  10.226  1.00  0.00    -0.347 OA
BRANCH  23  25
HETATM   25  C15 UNL     1      -7.037   8.375  10.981  1.00  0.00     0.228 C
BRANCH  25  26
HETATM   26  O2  UNL     1      -7.548   7.580  12.005  1.00  0.00    -0.396 OA
ATOM     27  H2  UNL     1      -7.609   6.683  11.698  1.00  0.00     0.209 HD
ENDBRANCH  25  26
ENDBRANCH  23  25
ENDBRANCH  18  19
ENDBRANCH  16  18
ENDBRANCH  15  16
ENDBRANCH  14  15
ENDBRANCH   1  14
BRANCH   2  28
HETATM   28  C17 UNL     1      -5.178   0.778  15.980  1.00  0.00     0.275 C
BRANCH  28  29
HETATM   29  O5  UNL     1      -4.850  -0.500  15.448  1.00  0.00    -0.392 OA
ATOM     30  H5  UNL     1      -5.093  -1.208  16.032  1.00  0.00     0.210 HD
ENDBRANCH  28  29
ENDBRANCH   2  28
TORSDOF 14
ENDMDL