MODEL 4
REMARK VINA RESULT: -6.321717343      3.568      4.496
REMARK  15 active torsions:
REMARK  status: ('A' for Active; 'I' for Inactive)
REMARK    1  A    between atoms: N1_1  and  N2_4
REMARK    2  A    between atoms: N2_4  and  C1_6
REMARK    3  A    between atoms: N3_7  and  C2_9
REMARK    4  A    between atoms: C2_9  and  C3_10
REMARK    5  A    between atoms: C3_10  and  C4_11
REMARK    6  A    between atoms: C4_11  and  C5_12
REMARK    7  A    between atoms: C5_12  and  C6_13
REMARK    8  A    between atoms: C5_12  and  N4_15
REMARK       I    between atoms: N4_15  and  C7_17
REMARK    9  A    between atoms: C7_17  and  C8_19
REMARK       I    between atoms: N5_23  and  C12_24
REMARK   10  A    between atoms: C12_24  and  C13_26
REMARK   11  A    between atoms: C13_26  and  C14_28
REMARK   12  A    between atoms: C14_28  and  C15_29
REMARK   13  A    between atoms: C15_29  and  C16_30
REMARK   14  A    between atoms: C16_30  and  O5_31
REMARK   15  A    between atoms: C16_30  and  O6_33
ROOT
HETATM    1  N4  UNL     1      -2.691   7.328  13.909  1.00  0.00    -0.348 N
ATOM      2  H4  UNL     1      -3.483   7.887  13.589  1.00  0.00     0.163 HD
HETATM    3  C7  UNL     1      -2.753   5.921  13.801  1.00  0.00     0.241 C
HETATM    4  O2  UNL     1      -1.784   5.242  14.197  1.00  0.00    -0.271 OA
ENDROOT
BRANCH   3   5
HETATM    5  C8  UNL     1      -3.926   5.218  13.235  1.00  0.00     0.179 C
HETATM    6  C9  UNL     1      -5.145   6.062  13.079  1.00  0.00     0.037 C
HETATM    7  C10 UNL     1      -6.001   5.763  14.264  1.00  0.00     0.022 C
HETATM    8  C11 UNL     1      -5.186   4.780  15.122  1.00  0.00     0.127 C
HETATM    9  N5  UNL     1      -4.364   4.149  14.125  1.00  0.00    -0.332 N
HETATM   10  C12 UNL     1      -3.994   2.795  13.952  1.00  0.00     0.290 C
HETATM   11  O3  UNL     1      -3.248   2.501  12.952  1.00  0.00    -0.264 OA
BRANCH  10  12
HETATM   12  C13 UNL     1      -4.366   1.681  14.789  1.00  0.00     0.216 C
HETATM   13  O4  UNL     1      -4.713   0.582  14.247  1.00  0.00    -0.287 OA
BRANCH  12  14
HETATM   14  C14 UNL     1      -4.358   1.774  16.257  1.00  0.00     0.094 C
BRANCH  14  15
HETATM   15  C15 UNL     1      -5.668   2.029  16.908  1.00  0.00     0.068 C
BRANCH  15  16
HETATM   16  C16 UNL     1      -6.410   0.812  17.380  1.00  0.00     0.254 C
BRANCH  16  17
HETATM   17  O5  UNL     1      -5.769  -0.339  16.933  1.00  0.00    -0.371 OA
ATOM     18  H5  UNL     1      -6.053  -1.088  17.444  1.00  0.00     0.212 HD
ENDBRANCH  16  17
BRANCH  16  19
HETATM   19  O6  UNL     1      -7.755   0.861  16.968  1.00  0.00    -0.371 OA
ATOM     20  H6  UNL     1      -8.160   0.006  17.047  1.00  0.00     0.212 HD
ENDBRANCH  16  19
ENDBRANCH  15  16
ENDBRANCH  14  15
ENDBRANCH  12  14
ENDBRANCH  10  12
ENDBRANCH   3   5
BRANCH   1  21
HETATM   21  C5  UNL     1      -1.529   8.000  14.462  1.00  0.00     0.146 C
BRANCH  21  22
HETATM   22  C4  UNL     1      -0.835   8.852  13.428  1.00  0.00     0.034 C
BRANCH  22  23
HETATM   23  C3  UNL     1       0.463   8.247  13.022  1.00  0.00     0.022 C
BRANCH  23  24
HETATM   24  C2  UNL     1       0.411   7.405  11.786  1.00  0.00     0.120 C
BRANCH  24  25
HETATM   25  N3  UNL     1       0.540   6.030  12.221  1.00  0.00    -0.385 N
HETATM   26  C1  UNL     1       0.479   5.103  11.360  1.00  0.00     0.192 C
ATOM     27  H3  UNL     1       0.679   5.811  13.207  1.00  0.00     0.160 HD
BRANCH  26  28
HETATM   28  N2  UNL     1       0.595   3.724  11.699  1.00  0.00    -0.303 N
ATOM     29  H2  UNL     1       1.385   3.138  11.430  1.00  0.00     0.187 HD
BRANCH  28  30
HETATM   30  N1  UNL     1      -0.494   3.269  12.439  1.00  0.00    -0.344 N
ATOM     31  H12 UNL     1      -1.288   3.861  12.683  1.00  0.00     0.176 HD
ATOM     32  H11 UNL     1      -0.400   2.287  12.701  1.00  0.00     0.176 HD
ENDBRANCH  28  30
ENDBRANCH  26  28
ENDBRANCH  24  25
ENDBRANCH  23  24
ENDBRANCH  22  23
ENDBRANCH  21  22
BRANCH  21  33
HETATM   33  C6  UNL     1      -1.876   8.753  15.700  1.00  0.00     0.256 C
HETATM   34  O1  UNL     1      -1.517   9.892  15.933  1.00  0.00    -0.305 OA
ENDBRANCH  21  33
ENDBRANCH   1  21
TORSDOF 15
ENDMDL