MODEL 4
REMARK VINA RESULT: -6.176274203      2.478      3.135
REMARK  14 active torsions:
REMARK  status: ('A' for Active; 'I' for Inactive)
REMARK    1  A    between atoms: C3_5  and  C4_6
REMARK    2  A    between atoms: C4_6  and  O2_7
REMARK    3  A    between atoms: C5_10  and  C6_11
REMARK    4  A    between atoms: C6_11  and  N2_12
REMARK    5  A    between atoms: N2_12  and  C8_14
REMARK    6  A    between atoms: C8_14  and  C9_15
REMARK    7  A    between atoms: C8_14  and  C12_22
REMARK    8  A    between atoms: C9_15  and  C10_16
REMARK    9  A    between atoms: C10_16  and  C11_17
REMARK   10  A    between atoms: C11_17  and  N3_18
REMARK   11  A    between atoms: C12_22  and  C13_23
REMARK   12  A    between atoms: C13_23  and  C14_24
REMARK   13  A    between atoms: C14_24  and  C15_25
REMARK   14  A    between atoms: C15_25  and  N4_26
ROOT
HETATM    1  C8  UNL     1      -4.986   5.898  12.986  1.00  0.00     0.078 C
ENDROOT
BRANCH   1   2
HETATM    2  N2  UNL     1      -4.779   5.624  14.333  1.00  0.00    -0.409 N
HETATM    3  C7  UNL     1      -3.910   6.383  15.123  1.00  0.00     0.143 C
BRANCH   2   4
HETATM    4  C6  UNL     1      -5.895   5.038  14.991  1.00  0.00     0.158 C
BRANCH   4   5
HETATM    5  C5  UNL     1      -6.066   3.536  14.839  1.00  0.00     0.232 C
HETATM    6  O3  UNL     1      -4.913   3.152  14.211  1.00  0.00    -0.358 OA
HETATM    7  C3  UNL     1      -4.157   2.149  14.593  1.00  0.00     0.238 C
HETATM    8  C2  UNL     1      -4.474   1.407  15.803  1.00  0.00     0.257 C
HETATM    9  N1  UNL     1      -5.703   1.678  16.477  1.00  0.00    -0.288 N
HETATM   10  O1  UNL     1      -3.678   0.548  16.241  1.00  0.00    -0.270 OA
HETATM   11  C1  UNL     1      -6.276   0.756  17.435  1.00  0.00     0.162 C
HETATM   12  C17 UNL     1      -6.312   2.918  16.138  1.00  0.00     0.256 C
HETATM   13  O4  UNL     1      -7.060   3.480  16.958  1.00  0.00    -0.270 OA
BRANCH   7  14
HETATM   14  C4  UNL     1      -4.090   1.127  13.446  1.00  0.00     0.205 C
BRANCH  14  15
HETATM   15  O2  UNL     1      -3.002   1.359  12.622  1.00  0.00    -0.398 OA
ATOM     16  H2  UNL     1      -3.213   1.192  11.711  1.00  0.00     0.209 HD
ENDBRANCH  14  15
ENDBRANCH   7  14
ENDBRANCH   4   5
ENDBRANCH   2   4
ENDBRANCH   1   2
BRANCH   1  17
HETATM   17  C9  UNL     1      -3.747   6.037  12.141  1.00  0.00     0.026 C
BRANCH  17  18
HETATM   18  C10 UNL     1      -2.988   4.825  11.814  1.00  0.00     0.029 C
BRANCH  18  19
HETATM   19  C11 UNL     1      -1.580   5.009  12.439  1.00  0.00     0.230 C
BRANCH  19  20
HETATM   20  N3  UNL     1      -1.402   4.015  13.499  1.00  0.00    -0.079 N
ATOM     21  H33 UNL     1      -2.290   3.676  13.868  1.00  0.00     0.274 HD
ATOM     22  H32 UNL     1      -1.048   3.127  13.144  1.00  0.00     0.274 HD
ATOM     23  H31 UNL     1      -0.805   4.413  14.224  1.00  0.00     0.274 HD
ENDBRANCH  19  20
ENDBRANCH  18  19
ENDBRANCH  17  18
ENDBRANCH   1  17
BRANCH   1  24
HETATM   24  C12 UNL     1      -5.957   6.972  12.592  1.00  0.00     0.025 C
BRANCH  24  25
HETATM   25  C13 UNL     1      -5.793   7.549  11.224  1.00  0.00     0.007 C
BRANCH  25  26
HETATM   26  C14 UNL     1      -7.146   8.181  10.780  1.00  0.00     0.044 C
BRANCH  26  27
HETATM   27  C15 UNL     1      -7.501   7.708   9.407  1.00  0.00     0.063 C
BRANCH  27  28
HETATM   28  N4  UNL     1      -8.579   8.335   8.775  1.00  0.00    -0.347 N
HETATM   29  C16 UNL     1      -8.629   9.149   7.807  1.00  0.00     0.200 C
HETATM   30  N5  UNL     1      -7.502   9.635   7.094  1.00  0.00    -0.067 NA
HETATM   31  N6  UNL     1      -9.903   9.672   7.342  1.00  0.00    -0.067 NA
ATOM     32  H4  UNL     1      -9.489   8.095   9.166  1.00  0.00     0.167 HD
ENDBRANCH  27  28
ENDBRANCH  26  27
ENDBRANCH  25  26
ENDBRANCH  24  25
ENDBRANCH   1  24
TORSDOF 14
ENDMDL