MODEL 4
REMARK VINA RESULT: -6.399002303      5.055      8.035
REMARK  12 active torsions:
REMARK  status: ('A' for Active; 'I' for Inactive)
REMARK    1  A    between atoms: N3_4  and  C2_6
REMARK    2  A    between atoms: C2_6  and  C3_7
REMARK    3  A    between atoms: C3_7  and  C4_8
REMARK    4  A    between atoms: C4_8  and  C5_9
REMARK    5  A    between atoms: C5_9  and  C6_10
REMARK    6  A    between atoms: C6_10  and  C7_11
REMARK       I    between atoms: C7_11  and  N4_13
REMARK       I    between atoms: N5_16  and  C10_17
REMARK    7  A    between atoms: C10_17  and  C11_19
REMARK    8  A    between atoms: C11_19  and  N6_20
REMARK    9  A    between atoms: C11_19  and  C12_24
REMARK   10  A    between atoms: C12_24  and  C13_25
REMARK   11  A    between atoms: C13_25  and  C14_26
REMARK   12  A    between atoms: C14_26  and  N7_27
ROOT
HETATM    1  C7  UNL     1      -4.375   6.330  13.935  1.00  0.00     0.221 C
HETATM    2  O1  UNL     1      -3.306   6.410  14.627  1.00  0.00    -0.273 OA
HETATM    3  N4  UNL     1      -4.413   6.782  12.595  1.00  0.00    -0.334 N
HETATM    4  C8  UNL     1      -3.332   7.362  11.854  1.00  0.00     0.147 C
HETATM    5  C9  UNL     1      -3.537   6.718  10.498  1.00  0.00     0.147 C
HETATM    6  N5  UNL     1      -5.004   6.768  10.381  1.00  0.00    -0.332 N
HETATM    7  C10 UNL     1      -5.706   6.827   9.160  1.00  0.00     0.251 C
HETATM    8  O2  UNL     1      -5.027   6.841   8.070  1.00  0.00    -0.271 OA
HETATM    9  C16 UNL     1      -5.556   6.745  11.719  1.00  0.00     0.255 C
ENDROOT
BRANCH   7  10
HETATM   10  C11 UNL     1      -7.179   6.875   9.035  1.00  0.00     0.275 C
BRANCH  10  11
HETATM   11  N6  UNL     1      -7.719   6.225   7.889  1.00  0.00    -0.067 N
ATOM     12  H63 UNL     1      -7.974   5.265   8.120  1.00  0.00     0.275 HD
ATOM     13  H62 UNL     1      -8.639   6.608   7.671  1.00  0.00     0.275 HD
ATOM     14  H61 UNL     1      -7.130   6.240   7.056  1.00  0.00     0.275 HD
ENDBRANCH  10  11
BRANCH  10  15
HETATM   15  C12 UNL     1      -7.684   8.315   9.021  1.00  0.00     0.044 C
BRANCH  15  16
HETATM   16  C13 UNL     1      -8.119   8.683   7.629  1.00  0.00     0.022 C
BRANCH  16  17
HETATM   17  C14 UNL     1      -9.326   9.598   7.639  1.00  0.00     0.122 C
BRANCH  17  18
HETATM   18  N7  UNL     1      -8.943  10.982   7.725  1.00  0.00    -0.367 N
HETATM   19  C15 UNL     1      -9.774  11.951   7.936  1.00  0.00     0.196 C
HETATM   20  N8  UNL     1      -9.266  13.278   7.997  1.00  0.00    -0.067 NA
HETATM   21  N9  UNL     1     -11.177  11.685   8.103  1.00  0.00    -0.067 NA
ATOM     22  H7  UNL     1      -7.956  11.214   7.612  1.00  0.00     0.161 HD
ENDBRANCH  17  18
ENDBRANCH  16  17
ENDBRANCH  15  16
ENDBRANCH  10  15
ENDBRANCH   7  10
BRANCH   1  23
HETATM   23  C6  UNL     1      -5.569   5.746  14.593  1.00  0.00     0.103 C
BRANCH  23  24
HETATM   24  C5  UNL     1      -5.143   4.351  15.122  1.00  0.00     0.009 C
BRANCH  24  25
HETATM   25  C4  UNL     1      -6.386   3.543  15.218  1.00  0.00     0.002 C
BRANCH  25  26
HETATM   26  C3  UNL     1      -6.788   3.168  16.583  1.00  0.00     0.020 C
BRANCH  26  27
HETATM   27  C2  UNL     1      -5.970   2.112  17.251  1.00  0.00     0.122 C
BRANCH  27  28
HETATM   28  N3  UNL     1      -5.777   0.987  16.407  1.00  0.00    -0.367 N
HETATM   29  C1  UNL     1      -4.660   0.582  15.936  1.00  0.00     0.196 C
HETATM   30  N1  UNL     1      -3.467   1.267  16.243  1.00  0.00    -0.067 NA
HETATM   31  N2  UNL     1      -4.623  -0.556  15.107  1.00  0.00    -0.067 NA
ATOM     32  H3  UNL     1      -6.607   0.452  16.152  1.00  0.00     0.161 HD
ENDBRANCH  27  28
ENDBRANCH  26  27
ENDBRANCH  25  26
ENDBRANCH  24  25
ENDBRANCH  23  24
ENDBRANCH   1  23
TORSDOF 12
ENDMDL