MODEL 4
REMARK VINA RESULT: -6.548071908      1.499      3.363
REMARK  11 active torsions:
REMARK  status: ('A' for Active; 'I' for Inactive)
REMARK    1  A    between atoms: C2_2  and  N2_8
REMARK    2  A    between atoms: C3_3  and  N1_4
REMARK    3  A    between atoms: N1_4  and  C4_6
REMARK    4  A    between atoms: N2_8  and  C6_10
REMARK    5  A    between atoms: C6_10  and  C7_11
REMARK    6  A    between atoms: C6_10  and  C10_16
REMARK    7  A    between atoms: C7_11  and  N3_12
REMARK    8  A    between atoms: N3_12  and  C9_14
REMARK       I    between atoms: C10_16  and  N4_18
REMARK    9  A    between atoms: C14_22  and  C15_23
REMARK       I    between atoms: C15_23  and  N5_25
REMARK   10  A    between atoms: N5_25  and  C16_27
REMARK   11  A    between atoms: C16_27  and  C17_28
ROOT
HETATM    1  C6  UNL     1      -2.870   5.606  14.032  1.00  0.00     0.098 C
ENDROOT
BRANCH   1   2
HETATM    2  N2  UNL     1      -3.570   5.775  12.842  1.00  0.00    -0.351 N
HETATM    3  C5  UNL     1      -4.370   6.965  12.762  1.00  0.00     0.156 C
BRANCH   2   4
HETATM    4  C2  UNL     1      -3.200   5.122  11.694  1.00  0.00     0.023 C
HETATM    5  C1  UNL     1      -2.046   5.956  10.972  1.00  0.00     0.070 C
HETATM    6  C3  UNL     1      -3.975   4.494  10.649  1.00  0.00     0.115 C
BRANCH   6   7
HETATM    7  N1  UNL     1      -4.642   5.217   9.620  1.00  0.00    -0.342 N
ATOM      8  H1  UNL     1      -4.443   4.864   8.684  1.00  0.00     0.167 HD
BRANCH   7   9
HETATM    9  C4  UNL     1      -5.509   6.306   9.624  1.00  0.00     0.352 C
HETATM   10  O1  UNL     1      -6.716   6.366   9.923  1.00  0.00    -0.283 OA
ENDBRANCH   7   9
ENDBRANCH   6   7
ENDBRANCH   2   4
ENDBRANCH   1   2
BRANCH   1  11
HETATM   11  C7  UNL     1      -1.651   6.332  14.371  1.00  0.00     0.187 C
BRANCH  11  12
HETATM   12  N3  UNL     1      -1.646   7.749  14.494  1.00  0.00    -0.358 N
HETATM   13  C8  UNL     1      -0.946   8.490  13.436  1.00  0.00     0.152 C
BRANCH  12  14
HETATM   14  C9  UNL     1      -2.237   8.532  15.507  1.00  0.00     0.350 C
HETATM   15  O2  UNL     1      -1.721   9.593  15.889  1.00  0.00    -0.284 OA
ENDBRANCH  12  14
ENDBRANCH  11  12
ENDBRANCH   1  11
BRANCH   1  16
HETATM   16  C10 UNL     1      -3.045   4.284  14.715  1.00  0.00     0.268 C
HETATM   17  O3  UNL     1      -1.995   3.619  15.049  1.00  0.00    -0.266 OA
HETATM   18  N4  UNL     1      -4.267   3.667  15.046  1.00  0.00    -0.334 N
HETATM   19  C11 UNL     1      -5.647   4.058  14.881  1.00  0.00     0.127 C
HETATM   20  C14 UNL     1      -4.351   2.346  15.695  1.00  0.00     0.179 C
HETATM   21  C12 UNL     1      -6.395   3.414  16.013  1.00  0.00     0.022 C
HETATM   22  C13 UNL     1      -5.454   2.472  16.691  1.00  0.00     0.037 C
BRANCH  20  23
HETATM   23  C15 UNL     1      -4.499   1.261  14.719  1.00  0.00     0.241 C
HETATM   24  O4  UNL     1      -4.941   0.138  15.108  1.00  0.00    -0.271 OA
HETATM   25  N5  UNL     1      -4.182   1.362  13.341  1.00  0.00    -0.349 N
ATOM     26  H5  UNL     1      -3.824   2.252  12.996  1.00  0.00     0.163 HD
BRANCH  25  27
HETATM   27  C16 UNL     1      -4.333   0.290  12.403  1.00  0.00     0.235 C
BRANCH  27  28
HETATM   28  C17 UNL     1      -5.041   0.806  11.205  1.00  0.00     0.191 C
HETATM   29  O5  UNL     1      -4.896   0.310  10.063  1.00  0.00    -0.647 OA
HETATM   30  O6  UNL     1      -5.925   1.894  11.284  1.00  0.00    -0.647 OA
ENDBRANCH  27  28
ENDBRANCH  25  27
ENDBRANCH  20  23
ENDBRANCH   1  16
TORSDOF 11
ENDMDL