MODEL 1
REMARK VINA RESULT: -7.725167119      0.000      0.000
REMARK  11 active torsions:
REMARK  status: ('A' for Active; 'I' for Inactive)
REMARK    1  A    between atoms: C2_2  and  N1_3
REMARK    2  A    between atoms: C2_2  and  C13_24
REMARK       I    between atoms: N1_3  and  C3_5
REMARK    3  A    between atoms: C3_5  and  C4_7
REMARK    4  A    between atoms: C4_7  and  C5_9
REMARK    5  A    between atoms: C5_9  and  C6_10
REMARK    6  A    between atoms: C5_9  and  N5_18
REMARK    7  A    between atoms: C6_10  and  C7_11
REMARK    8  A    between atoms: C7_11  and  C8_12
REMARK    9  A    between atoms: C8_12  and  N2_13
REMARK   10  A    between atoms: N5_18  and  C10_19
REMARK   11  A    between atoms: N5_18  and  C11_21
REMARK       I    between atoms: C13_24  and  N7_26
ROOT
HETATM    1  C11 UNL     1      -4.114   0.299  12.759  1.00  0.00     0.188 C
HETATM    2  C12 UNL     1      -4.363  -0.122  14.111  1.00  0.00     0.105 C
HETATM    3  N6  UNL     1      -4.568  -0.441  15.198  1.00  0.00    -0.191 NA
ENDROOT
BRANCH   1   4
HETATM    4  N5  UNL     1      -4.353   1.689  12.481  1.00  0.00    -0.313 N
BRANCH   4   5
HETATM    5  C5  UNL     1      -3.802   2.725  13.337  1.00  0.00     0.172 C
BRANCH   5   6
HETATM    6  C4  UNL     1      -2.639   3.347  12.574  1.00  0.00     0.239 C
HETATM    7  O2  UNL     1      -1.564   2.687  12.411  1.00  0.00    -0.285 OA
BRANCH   6   8
HETATM    8  C3  UNL     1      -2.703   4.675  12.019  1.00  0.00     0.290 C
HETATM    9  N1  UNL     1      -3.097   4.890  10.681  1.00  0.00    -0.342 N
ATOM     10  H1  UNL     1      -3.336   4.077  10.113  1.00  0.00     0.163 HD
HETATM   11  O1  UNL     1      -2.413   5.697  12.696  1.00  0.00    -0.264 OA
BRANCH   9  12
HETATM   12  C2  UNL     1      -3.180   6.196  10.073  1.00  0.00     0.173 C
HETATM   13  C1  UNL     1      -2.075   6.271   9.020  1.00  0.00     0.042 C
BRANCH  12  14
HETATM   14  C13 UNL     1      -4.482   6.353   9.418  1.00  0.00     0.242 C
HETATM   15  O4  UNL     1      -4.535   6.058   8.172  1.00  0.00    -0.271 OA
HETATM   16  N7  UNL     1      -5.653   6.804  10.077  1.00  0.00    -0.350 N
HETATM   17  C14 UNL     1      -5.822   7.184  11.449  1.00  0.00     0.126 C
HETATM   18  C17 UNL     1      -6.940   6.966   9.448  1.00  0.00     0.126 C
HETATM   19  C15 UNL     1      -7.034   8.124  11.483  1.00  0.00     0.021 C
HETATM   20  C16 UNL     1      -7.369   8.327  10.010  1.00  0.00     0.021 C
ENDBRANCH  12  14
ENDBRANCH   9  12
ENDBRANCH   6   8
ENDBRANCH   5   6
BRANCH   5  21
HETATM   21  C6  UNL     1      -4.773   3.814  13.624  1.00  0.00     0.039 C
BRANCH  21  22
HETATM   22  C7  UNL     1      -5.099   4.045  15.066  1.00  0.00     0.047 C
BRANCH  22  23
HETATM   23  C8  UNL     1      -6.079   3.012  15.521  1.00  0.00     0.063 C
BRANCH  23  24
HETATM   24  N2  UNL     1      -5.706   2.210  16.619  1.00  0.00    -0.347 N
HETATM   25  C9  UNL     1      -6.286   1.253  17.187  1.00  0.00     0.200 C
HETATM   26  N3  UNL     1      -5.605   0.650  18.304  1.00  0.00    -0.067 NA
HETATM   27  N4  UNL     1      -7.545   0.689  16.858  1.00  0.00    -0.067 NA
ATOM     28  H2  UNL     1      -4.802   2.451  17.025  1.00  0.00     0.167 HD
ENDBRANCH  23  24
ENDBRANCH  22  23
ENDBRANCH  21  22
ENDBRANCH   5  21
ENDBRANCH   4   5
BRANCH   4  29
HETATM   29  C10 UNL     1      -5.098   2.055  11.351  1.00  0.00     0.356 C
HETATM   30  O3  UNL     1      -4.569   2.055  10.220  1.00  0.00    -0.283 OA
ENDBRANCH   4  29
ENDBRANCH   1   4
TORSDOF 11
ENDMDL