MODEL 5
REMARK VINA RESULT: -5.983853187      2.291      4.641
REMARK  15 active torsions:
REMARK  status: ('A' for Active; 'I' for Inactive)
REMARK    1  A    between atoms: N1_2  and  C3_4
REMARK    2  A    between atoms: N1_2  and  C5_8
REMARK    3  A    between atoms: C3_4  and  C4_5
REMARK    4  A    between atoms: C4_5  and  O1_6
REMARK    5  A    between atoms: C5_8  and  C6_9
REMARK    6  A    between atoms: C6_9  and  C7_10
REMARK    7  A    between atoms: C7_10  and  C8_11
REMARK    8  A    between atoms: C8_11  and  O2_12
REMARK    9  A    between atoms: O2_12  and  C9_13
REMARK   10  A    between atoms: C11_15  and  O3_16
REMARK   11  A    between atoms: C13_19  and  C14_20
REMARK   12  A    between atoms: C14_20  and  O4_21
REMARK   13  A    between atoms: C14_20  and  C15_23
REMARK   14  A    between atoms: C15_23  and  O5_24
REMARK   15  A    between atoms: O5_24  and  C16_25
ROOT
HETATM    1  C9  UNL     1      -3.827   4.371  14.721  1.00  0.00     0.262 C
HETATM    2  C10 UNL     1      -4.708   5.397  15.398  1.00  0.00     0.092 C
HETATM    3  C11 UNL     1      -6.137   4.937  15.210  1.00  0.00     0.125 C
HETATM    4  C12 UNL     1      -6.202   3.417  15.062  1.00  0.00     0.066 C
HETATM    5  C13 UNL     1      -5.112   2.859  15.942  1.00  0.00     0.158 C
HETATM    6  O6  UNL     1      -3.848   3.192  15.460  1.00  0.00    -0.353 OA
ENDROOT
BRANCH   1   7
HETATM    7  O2  UNL     1      -2.528   4.781  14.580  1.00  0.00    -0.361 OA
BRANCH   7   8
HETATM    8  C8  UNL     1      -2.317   5.990  13.986  1.00  0.00     0.171 C
BRANCH   8   9
HETATM    9  C7  UNL     1      -2.561   5.958  12.466  1.00  0.00     0.028 C
BRANCH   9  10
HETATM   10  C6  UNL     1      -3.621   6.955  12.140  1.00  0.00     0.030 C
BRANCH  10  11
HETATM   11  C5  UNL     1      -4.748   6.373  11.393  1.00  0.00     0.236 C
BRANCH  11  12
HETATM   12  N1  UNL     1      -5.586   7.231  10.628  1.00  0.00    -0.073 N
HETATM   13  C1  UNL     1      -6.778   7.695  11.246  1.00  0.00     0.272 C
HETATM   14  C2  UNL     1      -4.751   8.433  10.366  1.00  0.00     0.272 C
BRANCH  12  15
HETATM   15  C3  UNL     1      -5.844   6.587   9.353  1.00  0.00     0.262 C
BRANCH  15  16
HETATM   16  C4  UNL     1      -7.183   6.882   8.776  1.00  0.00     0.192 C
BRANCH  16  17
HETATM   17  O1  UNL     1      -7.470   6.155   7.631  1.00  0.00    -0.399 OA
ATOM     18  H1  UNL     1      -7.737   6.691   6.893  1.00  0.00     0.209 HD
ENDBRANCH  16  17
ENDBRANCH  15  16
ENDBRANCH  12  15
ENDBRANCH  11  12
ENDBRANCH  10  11
ENDBRANCH   9  10
ENDBRANCH   8   9
ENDBRANCH   7   8
ENDBRANCH   1   7
BRANCH   3  19
HETATM   19  O3  UNL     1      -6.713   5.465  14.052  1.00  0.00    -0.395 OA
ATOM     20  H3  UNL     1      -7.084   4.790  13.496  1.00  0.00     0.210 HD
ENDBRANCH   3  19
BRANCH   5  21
HETATM   21  C14 UNL     1      -5.167   1.350  16.054  1.00  0.00     0.171 C
BRANCH  21  22
HETATM   22  O4  UNL     1      -5.027   1.019  17.380  1.00  0.00    -0.391 OA
ATOM     23  H4  UNL     1      -4.982   0.072  17.443  1.00  0.00     0.210 HD
ENDBRANCH  21  22
BRANCH  21  24
HETATM   24  C15 UNL     1      -4.178   0.677  15.135  1.00  0.00     0.204 C
BRANCH  24  25
HETATM   25  O5  UNL     1      -4.753   0.238  13.964  1.00  0.00    -0.356 OA
BRANCH  25  26
HETATM   26  C16 UNL     1      -4.084   0.446  12.821  1.00  0.00     0.320 C
HETATM   27  C17 UNL     1      -4.893   0.537  11.562  1.00  0.00     0.063 C
HETATM   28  C18 UNL     1      -5.159   2.031  11.489  1.00  0.00     0.032 C
HETATM   29  C19 UNL     1      -3.819   2.586  11.926  1.00  0.00     0.235 C
HETATM   30  N2  UNL     1      -3.246   1.652  12.843  1.00  0.00    -0.049 N
ATOM     31  H22 UNL     1      -3.126   2.037  13.781  1.00  0.00     0.280 HD
ATOM     32  H21 UNL     1      -2.263   1.458  12.653  1.00  0.00     0.280 HD
ENDBRANCH  25  26
ENDBRANCH  24  25
ENDBRANCH  21  24
ENDBRANCH   5  21
TORSDOF 15
ENDMDL