MODEL 1
REMARK VINA RESULT: -6.792226693      0.000      0.000
REMARK  11 active torsions:
REMARK  status: ('A' for Active; 'I' for Inactive)
REMARK    1  A    between atoms: C2_2  and  C3_3
REMARK    2  A    between atoms: C2_2  and  N2_16
REMARK    3  A    between atoms: C4_4  and  C5_5
REMARK       I    between atoms: C5_5  and  N1_7
REMARK    4  A    between atoms: N1_7  and  C6_9
REMARK    5  A    between atoms: C6_9  and  C7_10
REMARK    6  A    between atoms: C6_9  and  C8_13
REMARK    7  A    between atoms: C7_10  and  O2_11
REMARK    8  A    between atoms: C8_13  and  C9_14
REMARK    9  A    between atoms: N2_16  and  C10_19
REMARK   10  A    between atoms: C10_19  and  C11_20
REMARK   11  A    between atoms: C12_21  and  C13_22
REMARK       I    between atoms: C13_22  and  N3_24
ROOT
HETATM    1  C1  UNL     1      -7.075   3.262  17.212  1.00  0.00     0.044 C
HETATM    2  C2  UNL     1      -6.217   2.841  16.064  1.00  0.00     0.205 C
ENDROOT
BRANCH   2   3
HETATM    3  C3  UNL     1      -4.873   2.449  16.533  1.00  0.00     0.011 C
HETATM    4  C4  UNL     1      -4.123   1.514  16.072  1.00  0.00     0.072 C
BRANCH   4   5
HETATM    5  C5  UNL     1      -4.450   0.626  14.970  1.00  0.00     0.241 C
HETATM    6  O1  UNL     1      -4.911  -0.515  15.121  1.00  0.00    -0.269 OA
HETATM    7  N1  UNL     1      -4.242   1.057  13.619  1.00  0.00    -0.351 N
ATOM      8  H1  UNL     1      -3.872   1.992  13.450  1.00  0.00     0.163 HD
BRANCH   7   9
HETATM    9  C6  UNL     1      -4.536   0.221  12.509  1.00  0.00     0.114 C
BRANCH   9  10
HETATM   10  C7  UNL     1      -4.770   0.971  11.210  1.00  0.00     0.189 C
BRANCH  10  11
HETATM   11  O2  UNL     1      -5.830   1.878  11.349  1.00  0.00    -0.399 OA
ATOM     12  H2  UNL     1      -6.191   2.102  10.500  1.00  0.00     0.209 HD
ENDBRANCH  10  11
ENDBRANCH   9  10
BRANCH   9  13
HETATM   13  C8  UNL     1      -3.520  -0.881  12.356  1.00  0.00     0.096 C
BRANCH  13  14
HETATM   14  C9  UNL     1      -4.121  -2.040  11.640  1.00  0.00     0.233 C
HETATM   15  O3  UNL     1      -3.459  -3.061  11.549  1.00  0.00    -0.307 OA
ENDBRANCH  13  14
ENDBRANCH   9  13
ENDBRANCH   7   9
ENDBRANCH   4   5
ENDBRANCH   2   3
BRANCH   2  16
HETATM   16  N2  UNL     1      -6.121   3.804  15.014  1.00  0.00    -0.065 N
ATOM     17  H22 UNL     1      -5.291   3.631  14.447  1.00  0.00     0.278 HD
ATOM     18  H21 UNL     1      -6.846   3.641  14.315  1.00  0.00     0.278 HD
BRANCH  16  19
HETATM   19  C10 UNL     1      -6.148   5.149  15.448  1.00  0.00     0.260 C
BRANCH  19  20
HETATM   20  C11 UNL     1      -4.906   5.820  14.920  1.00  0.00     0.006 C
HETATM   21  C12 UNL     1      -4.363   5.362  13.826  1.00  0.00     0.072 C
BRANCH  21  22
HETATM   22  C13 UNL     1      -3.160   6.006  13.307  1.00  0.00     0.244 C
HETATM   23  O4  UNL     1      -2.969   7.251  13.539  1.00  0.00    -0.268 OA
HETATM   24  N3  UNL     1      -2.245   5.247  12.569  1.00  0.00    -0.316 N
HETATM   25  C14 UNL     1      -0.981   5.563  11.925  1.00  0.00     0.165 C
HETATM   26  C16 UNL     1      -2.122   3.897  12.137  1.00  0.00     0.322 A
HETATM   27  C15 UNL     1      -0.704   4.101  11.674  1.00  0.00     0.256 A
HETATM   28  N4  UNL     1      -1.024   3.141  12.708  1.00  0.00    -0.042 N
ATOM     29  H42 UNL     1      -0.842   2.144  12.822  1.00  0.00     0.280 HD
ATOM     30  H41 UNL     1      -0.691   3.000  13.662  1.00  0.00     0.280 HD
ENDBRANCH  21  22
ENDBRANCH  19  20
ENDBRANCH  16  19
ENDBRANCH   2  16
TORSDOF 11
ENDMDL