MODEL 3
REMARK VINA RESULT: -5.875115010      2.120      3.236
REMARK  13 active torsions:
REMARK  status: ('A' for Active; 'I' for Inactive)
REMARK    1  A    between atoms: C2_2  and  C3_3
REMARK    2  A    between atoms: C3_3  and  N1_4
REMARK    3  A    between atoms: N1_4  and  C5_6
REMARK    4  A    between atoms: N1_4  and  C7_8
REMARK    5  A    between atoms: C7_8  and  C8_9
REMARK    6  A    between atoms: C8_9  and  C9_10
REMARK    7  A    between atoms: C9_10  and  S1_11
REMARK    8  A    between atoms: S1_11  and  C10_12
REMARK    9  A    between atoms: S1_11  and  O4_26
REMARK   10  A    between atoms: C10_12  and  C11_13
REMARK   11  A    between atoms: C12_17  and  O1_18
REMARK   12  A    between atoms: C13_20  and  O2_21
REMARK   13  A    between atoms: C14_23  and  O3_24
ROOT
HETATM    1  C10 UNL     1      -4.361   3.422  14.762  1.00  0.00     0.127 C
ENDROOT
BRANCH   1   2
HETATM    2  S1  UNL     1      -3.724   2.951  13.184  1.00  0.00    -0.088 SA
BRANCH   2   3
HETATM    3  C9  UNL     1      -2.330   3.943  12.712  1.00  0.00     0.093 C
BRANCH   3   4
HETATM    4  C8  UNL     1      -2.048   4.888  13.884  1.00  0.00     0.039 C
BRANCH   4   5
HETATM    5  C7  UNL     1      -1.729   6.230  13.285  1.00  0.00     0.238 C
BRANCH   5   6
HETATM    6  N1  UNL     1      -2.745   7.220  13.526  1.00  0.00    -0.068 N
HETATM    7  C4  UNL     1      -3.555   6.870  14.694  1.00  0.00     0.272 C
BRANCH   6   8
HETATM    8  C3  UNL     1      -3.596   7.455  12.383  1.00  0.00     0.263 C
BRANCH   8   9
HETATM    9  C2  UNL     1      -4.894   6.798  12.437  1.00  0.00    -0.009 C
HETATM   10  C1  UNL     1      -5.886   7.285  11.702  1.00  0.00     0.008 C
ENDBRANCH   8   9
ENDBRANCH   6   8
BRANCH   6  11
HETATM   11  C5  UNL     1      -2.113   8.480  13.842  1.00  0.00     0.233 C
HETATM   12  C6  UNL     1      -1.978   8.727  15.320  1.00  0.00     0.035 C
ENDBRANCH   6  11
ENDBRANCH   5   6
ENDBRANCH   4   5
ENDBRANCH   3   4
ENDBRANCH   2   3
BRANCH   2  13
HETATM   13  O4  UNL     1      -4.864   3.006  11.978  1.00  0.00    -0.337 OA
HETATM   14  C15 UNL     1      -5.109   1.788  11.381  1.00  0.00     0.219 C
ENDBRANCH   2  13
ENDBRANCH   1   2
BRANCH   1  15
HETATM   15  C11 UNL     1      -5.088   2.241  15.348  1.00  0.00     0.230 C
HETATM   16  N2  UNL     1      -6.438   2.613  15.641  1.00  0.00    -0.039 N
HETATM   17  C12 UNL     1      -6.767   2.107  16.954  1.00  0.00     0.350 C
ATOM     18  H22 UNL     1      -6.597   3.618  15.555  1.00  0.00     0.281 HD
ATOM     19  H21 UNL     1      -7.095   2.308  14.924  1.00  0.00     0.281 HD
HETATM   20  C13 UNL     1      -5.677   1.112  17.321  1.00  0.00     0.205 C
HETATM   21  C14 UNL     1      -4.464   1.771  16.652  1.00  0.00     0.182 C
BRANCH  17  22
HETATM   22  O1  UNL     1      -8.011   1.515  16.976  1.00  0.00    -0.368 OA
ATOM     23  H1  UNL     1      -8.704   2.146  16.819  1.00  0.00     0.212 HD
ENDBRANCH  17  22
BRANCH  20  24
HETATM   24  O2  UNL     1      -5.935  -0.055  16.635  1.00  0.00    -0.389 OA
ATOM     25  H2  UNL     1      -5.138  -0.572  16.644  1.00  0.00     0.210 HD
ENDBRANCH  20  24
BRANCH  21  26
HETATM   26  O3  UNL     1      -3.488   0.840  16.338  1.00  0.00    -0.391 OA
ATOM     27  H3  UNL     1      -2.654   1.188  16.630  1.00  0.00     0.210 HD
ENDBRANCH  21  26
ENDBRANCH   1  15
TORSDOF 13
ENDMDL