MODEL 3
REMARK VINA RESULT: -6.215570391      1.314      1.599
REMARK  12 active torsions:
REMARK  status: ('A' for Active; 'I' for Inactive)
REMARK    1  A    between atoms: N1_1  and  C1_5
REMARK    2  A    between atoms: C1_5  and  O1_6
REMARK    3  A    between atoms: C1_5  and  C2_8
REMARK    4  A    between atoms: C2_8  and  N2_9
REMARK    5  A    between atoms: N2_9  and  C3_10
REMARK    6  A    between atoms: N2_9  and  N3_22
REMARK    7  A    between atoms: C3_10  and  C4_11
REMARK    8  A    between atoms: C4_11  and  O2_12
REMARK    9  A    between atoms: C4_11  and  C5_14
REMARK   10  A    between atoms: C4_11  and  C10_19
REMARK   11  A    between atoms: C5_14  and  C6_15
REMARK   12  A    between atoms: N4_25  and  C15_26
ROOT
HETATM    1  N2  UNL     1      -3.354   2.879  13.875  1.00  0.00    -0.218 NA
ENDROOT
BRANCH   1   2
HETATM    2  C2  UNL     1      -3.378   1.926  12.740  1.00  0.00     0.174 C
BRANCH   2   3
HETATM    3  C1  UNL     1      -4.368   2.360  11.694  1.00  0.00     0.331 C
BRANCH   3   4
HETATM    4  N1  UNL     1      -5.226   1.210  11.405  1.00  0.00    -0.052 N
ATOM      5  H13 UNL     1      -5.893   1.398  10.657  1.00  0.00     0.277 HD
ATOM      6  H12 UNL     1      -4.720   0.448  10.953  1.00  0.00     0.277 HD
ATOM      7  H11 UNL     1      -5.679   0.920  12.272  1.00  0.00     0.277 HD
ENDBRANCH   3   4
BRANCH   3   8
HETATM    8  O1  UNL     1      -3.661   2.690  10.531  1.00  0.00    -0.369 OA
ATOM      9  H1  UNL     1      -3.469   3.621  10.549  1.00  0.00     0.212 HD
ENDBRANCH   3   8
ENDBRANCH   2   3
ENDBRANCH   1   2
BRANCH   1  10
HETATM   10  C3  UNL     1      -3.500   4.204  13.383  1.00  0.00     0.152 C
BRANCH  10  11
HETATM   11  C4  UNL     1      -2.185   5.017  13.513  1.00  0.00     0.075 C
BRANCH  11  12
HETATM   12  O2  UNL     1      -1.422   4.646  14.578  1.00  0.00    -0.388 OA
ATOM     13  H2  UNL     1      -1.529   5.211  15.334  1.00  0.00     0.210 HD
ENDBRANCH  11  12
BRANCH  11  14
HETATM   14  C5  UNL     1      -2.745   6.414  13.861  1.00  0.00     0.044 C
BRANCH  14  15
HETATM   15  C6  UNL     1      -1.814   7.321  14.544  1.00  0.00    -0.012 C
HETATM   16  C7  UNL     1      -2.381   8.356  15.500  1.00  0.00     0.005 C
HETATM   17  C8  UNL     1      -1.356   9.322  14.912  1.00  0.00     0.001 C
HETATM   18  C9  UNL     1      -1.528   8.528  13.619  1.00  0.00     0.005 C
ENDBRANCH  14  15
ENDBRANCH  11  14
BRANCH  11  19
HETATM   19  C10 UNL     1      -1.546   5.093  12.177  1.00  0.00     0.021 A
HETATM   20  C11 UNL     1      -0.080   5.448  11.983  1.00  0.00     0.008 A
HETATM   21  C12 UNL     1      -0.629   4.115  11.594  1.00  0.00     0.008 A
ENDBRANCH  11  19
ENDBRANCH  10  11
ENDBRANCH   1  10
BRANCH   1  22
HETATM   22  N3  UNL     1      -4.463   2.462  14.672  1.00  0.00    -0.260 N
HETATM   23  C13 UNL     1      -5.828   2.934  14.611  1.00  0.00     0.168 C
HETATM   24  C14 UNL     1      -6.221   2.950  16.096  1.00  0.00     0.157 C
HETATM   25  N4  UNL     1      -5.576   1.764  16.588  1.00  0.00    -0.275 N
HETATM   26  C16 UNL     1      -4.487   1.494  15.719  1.00  0.00     0.341 C
HETATM   27  O4  UNL     1      -3.658   0.537  15.847  1.00  0.00    -0.245 OA
BRANCH  25  28
HETATM   28  C15 UNL     1      -5.940   1.017  17.733  1.00  0.00     0.359 C
HETATM   29  O3  UNL     1      -6.222  -0.198  17.651  1.00  0.00    -0.283 OA
ENDBRANCH  25  28
ENDBRANCH   1  22
TORSDOF 12
ENDMDL