MODEL 3
REMARK VINA RESULT: -5.792168619      2.071      3.604
REMARK  12 active torsions:
REMARK  status: ('A' for Active; 'I' for Inactive)
REMARK    1  A    between atoms: N1_2  and  C3_4
REMARK    2  A    between atoms: C3_4  and  C4_5
REMARK    3  A    between atoms: C4_5  and  C5_6
REMARK    4  A    between atoms: C5_6  and  N2_7
REMARK    5  A    between atoms: N5_14  and  C9_15
REMARK    6  A    between atoms: C9_15  and  C10_16
REMARK    7  A    between atoms: C10_16  and  C11_17
REMARK    8  A    between atoms: C11_17  and  C12_18
REMARK    9  A    between atoms: C12_18  and  O1_19
REMARK   10  A    between atoms: C13_21  and  C14_22
REMARK   11  A    between atoms: C14_22  and  C15_23
REMARK   12  A    between atoms: C15_23  and  O2_24
ROOT
HETATM    1  N2  UNL     1      -1.948   5.562  13.221  1.00  0.00    -0.373 N
ATOM      2  H2  UNL     1      -1.993   6.529  13.543  1.00  0.00     0.161 HD
HETATM    3  C6  UNL     1      -2.966   4.987  13.644  1.00  0.00     0.148 A
HETATM    4  C7  UNL     1      -3.882   5.742  14.416  1.00  0.00     0.177 A
HETATM    5  N3  UNL     1      -3.578   7.124  14.672  1.00  0.00    -0.077 NA
HETATM    6  N4  UNL     1      -5.006   5.208  14.903  1.00  0.00    -0.277 N
HETATM    7  C8  UNL     1      -5.915   6.022  15.718  1.00  0.00     0.179 C
HETATM    8  N5  UNL     1      -5.292   3.940  14.671  1.00  0.00    -0.277 N
HETATM    9  C13 UNL     1      -4.410   3.204  13.928  1.00  0.00     0.103 A
HETATM   10  N6  UNL     1      -3.265   3.700  13.416  1.00  0.00    -0.323 N
HETATM   11  C16 UNL     1      -2.359   2.842  12.637  1.00  0.00     0.159 C
ENDROOT
BRANCH   1  12
HETATM   12  C5  UNL     1      -0.796   5.431  12.503  1.00  0.00     0.123 C
BRANCH  12  13
HETATM   13  C4  UNL     1      -0.943   6.129  11.122  1.00  0.00     0.050 C
BRANCH  13  14
HETATM   14  C3  UNL     1      -0.963   5.032  10.066  1.00  0.00     0.273 C
BRANCH  14  15
HETATM   15  N1  UNL     1      -2.088   5.339   9.173  1.00  0.00     0.080 N
HETATM   16  C1  UNL     1      -1.811   4.809   7.852  1.00  0.00     0.309 C
HETATM   17  C2  UNL     1      -3.290   4.748   9.677  1.00  0.00     0.309 C
ENDBRANCH  14  15
ENDBRANCH  13  14
ENDBRANCH  12  13
ENDBRANCH   1  12
BRANCH   9  18
HETATM   18  C14 UNL     1      -4.729   1.790  13.709  1.00  0.00     0.104 C
BRANCH  18  19
HETATM   19  C15 UNL     1      -4.192   0.878  14.809  1.00  0.00     0.171 C
BRANCH  19  20
HETATM   20  O2  UNL     1      -4.856  -0.364  14.747  1.00  0.00    -0.400 OA
ATOM     21  H2  UNL     1      -5.737  -0.265  15.091  1.00  0.00     0.209 HD
ENDBRANCH  19  20
ENDBRANCH  18  19
ENDBRANCH   9  18
BRANCH   8  22
HETATM   22  C9  UNL     1      -6.505   3.395  15.180  1.00  0.00     0.151 C
BRANCH  22  23
HETATM   23  C10 UNL     1      -6.493   3.084  16.664  1.00  0.00     0.024 C
BRANCH  23  24
HETATM   24  C11 UNL     1      -7.226   1.756  16.922  1.00  0.00     0.028 C
BRANCH  24  25
HETATM   25  C12 UNL     1      -6.285   0.943  17.798  1.00  0.00     0.164 C
BRANCH  25  26
HETATM   26  O1  UNL     1      -6.122  -0.344  17.345  1.00  0.00    -0.401 OA
ATOM     27  H1  UNL     1      -5.613  -0.879  17.942  1.00  0.00     0.209 HD
ENDBRANCH  25  26
ENDBRANCH  24  25
ENDBRANCH  23  24
ENDBRANCH  22  23
ENDBRANCH   8  22
TORSDOF 12
ENDMDL