MODEL 1
REMARK VINA RESULT: -7.464553474      0.000      0.000
REMARK  9 active torsions:
REMARK  status: ('A' for Active; 'I' for Inactive)
REMARK    1  A    between atoms: C4_4  and  C5_5
REMARK    2  A    between atoms: C5_5  and  C6_6
REMARK    3  A    between atoms: C10_11  and  C11_12
REMARK    4  A    between atoms: C10_11  and  C12_14
REMARK    5  A    between atoms: C12_14  and  N2_15
REMARK    6  A    between atoms: C12_14  and  C16_23
REMARK       I    between atoms: N2_15  and  C13_17
REMARK    7  A    between atoms: C13_17  and  C14_19
REMARK    8  A    between atoms: C14_19  and  N3_20
REMARK    9  A    between atoms: N3_20  and  C15_21
ROOT
HETATM    1  C6  UNL     1      -4.728   5.857  12.983  1.00  0.00     0.085 C
HETATM    2  C7  UNL     1      -4.061   6.203  14.386  1.00  0.00     0.027 C
HETATM    3  C8  UNL     1      -2.644   6.384  13.906  1.00  0.00     0.022 C
HETATM    4  C9  UNL     1      -2.549   5.584  12.635  1.00  0.00     0.123 C
HETATM    5  N1  UNL     1      -3.835   4.861  12.681  1.00  0.00    -0.375 N
HETATM    6  C10 UNL     1      -3.950   3.854  11.772  1.00  0.00     0.077 C
ENDROOT
BRANCH   6   7
HETATM    7  C11 UNL     1      -3.698   3.988  10.362  1.00  0.00     0.286 C
HETATM    8  O1  UNL     1      -2.705   3.682   9.735  1.00  0.00    -0.300 OA
ENDBRANCH   6   7
BRANCH   6   9
HETATM    9  C12 UNL     1      -3.827   2.429  12.233  1.00  0.00     0.227 C
BRANCH   9  10
HETATM   10  N2  UNL     1      -3.602   2.204  13.594  1.00  0.00    -0.337 N
HETATM   11  C13 UNL     1      -4.491   2.384  14.678  1.00  0.00     0.271 C
HETATM   12  O2  UNL     1      -5.645   2.807  14.534  1.00  0.00    -0.266 OA
ATOM     13  H2  UNL     1      -2.672   1.863  13.837  1.00  0.00     0.164 HD
BRANCH  11  14
HETATM   14  C14 UNL     1      -4.014   2.044  16.083  1.00  0.00     0.259 C
BRANCH  14  15
HETATM   15  N3  UNL     1      -4.941   1.354  16.835  1.00  0.00    -0.386 NA
BRANCH  15  16
HETATM   16  C15 UNL     1      -5.853   0.669  17.573  1.00  0.00     0.440 C
HETATM   17  O3  UNL     1      -6.245  -0.486  17.643  1.00  0.00    -0.268 OA
ENDBRANCH  15  16
ENDBRANCH  14  15
ENDBRANCH  11  14
ENDBRANCH   9  10
BRANCH   9  18
HETATM   18  C16 UNL     1      -4.897   1.573  11.669  1.00  0.00     0.260 C
HETATM   19  N4  UNL     1      -4.828   0.200  11.528  1.00  0.00    -0.060 NA
HETATM   20  O4  UNL     1      -5.954   2.169  11.278  1.00  0.00    -0.274 OA
ENDBRANCH   9  18
ENDBRANCH   6   9
BRANCH   1  21
HETATM   21  C5  UNL     1      -4.908   7.176  12.419  1.00  0.00     0.030 C
BRANCH  21  22
HETATM   22  C4  UNL     1      -5.410   7.345  11.039  1.00  0.00    -0.009 A
HETATM   23  C2  UNL     1      -6.643   8.269  11.007  1.00  0.00    -0.014 A
HETATM   24  C1  UNL     1      -7.786   7.848  10.130  1.00  0.00     0.010 C
HETATM   25  C3  UNL     1      -5.428   8.714  10.368  1.00  0.00     0.010 A
ENDBRANCH  21  22
ENDBRANCH   1  21
TORSDOF 9
ENDMDL