MODEL 5
REMARK VINA RESULT: -7.077178183      1.295      3.895
REMARK  12 active torsions:
REMARK  status: ('A' for Active; 'I' for Inactive)
REMARK       I    between atoms: N1_2  and  C3_4
REMARK    1  A    between atoms: C3_4  and  C4_6
REMARK    2  A    between atoms: C4_6  and  N2_7
REMARK    3  A    between atoms: C4_6  and  C7_16
REMARK       I    between atoms: N2_7  and  C5_9
REMARK    4  A    between atoms: C5_9  and  C6_11
REMARK    5  A    between atoms: C6_11  and  N3_12
REMARK    6  A    between atoms: N3_12  and  N4_13
REMARK    7  A    between atoms: C7_16  and  O3_17
REMARK    8  A    between atoms: C7_16  and  C8_19
REMARK    9  A    between atoms: C8_19  and  C9_20
REMARK   10  A    between atoms: C9_20  and  C10_21
REMARK   11  A    between atoms: C9_20  and  N5_23
REMARK       I    between atoms: N5_23  and  C11_24
REMARK   12  A    between atoms: C11_24  and  C12_26
ROOT
HETATM    1  C4  UNL     1      -3.047   3.992  12.431  1.00  0.00     0.205 C
ENDROOT
BRANCH   1   2
HETATM    2  C3  UNL     1      -3.922   3.161  11.527  1.00  0.00     0.244 C
HETATM    3  N1  UNL     1      -4.254   1.800  11.796  1.00  0.00    -0.359 N
HETATM    4  C1  UNL     1      -5.108   1.094  10.858  1.00  0.00     0.152 C
HETATM    5  C2  UNL     1      -3.804   1.041  12.923  1.00  0.00     0.152 C
HETATM    6  O1  UNL     1      -4.338   3.765  10.506  1.00  0.00    -0.271 OA
ENDBRANCH   1   2
BRANCH   1   7
HETATM    7  N2  UNL     1      -1.946   4.483  11.668  1.00  0.00    -0.340 N
HETATM    8  C5  UNL     1      -0.671   3.782  11.650  1.00  0.00     0.273 C
HETATM    9  O2  UNL     1      -0.570   2.745  12.303  1.00  0.00    -0.266 OA
ATOM     10  H2  UNL     1      -2.054   5.340  11.126  1.00  0.00     0.163 HD
BRANCH   8  11
HETATM   11  C6  UNL     1       0.433   4.327  10.871  1.00  0.00     0.282 C
BRANCH  11  12
HETATM   12  N3  UNL     1       1.493   4.686  11.435  1.00  0.00    -0.340 NA
BRANCH  12  13
HETATM   13  N4  UNL     1       2.468   4.721  12.215  1.00  0.00    -0.281 N
ATOM     14  H42 UNL     1       2.947   5.487  11.741  1.00  0.00     0.191 HD
ATOM     15  H41 UNL     1       3.097   4.509  12.988  1.00  0.00     0.191 HD
ENDBRANCH  12  13
ENDBRANCH  11  12
ENDBRANCH   8  11
ENDBRANCH   1   7
BRANCH   1  16
HETATM   16  C7  UNL     1      -3.845   4.914  13.288  1.00  0.00     0.153 C
BRANCH  16  17
HETATM   17  O3  UNL     1      -5.111   5.159  12.686  1.00  0.00    -0.393 OA
ATOM     18  H3  UNL     1      -5.727   4.481  12.942  1.00  0.00     0.210 HD
ENDBRANCH  16  17
BRANCH  16  19
HETATM   19  C8  UNL     1      -4.137   4.507  14.674  1.00  0.00     0.081 C
BRANCH  19  20
HETATM   20  C9  UNL     1      -5.357   3.614  14.919  1.00  0.00     0.230 C
BRANCH  20  21
HETATM   21  C10 UNL     1      -6.292   4.541  15.684  1.00  0.00     0.270 C
HETATM   22  O4  UNL     1      -6.247   5.686  15.721  1.00  0.00    -0.303 OA
ENDBRANCH  20  21
BRANCH  20  23
HETATM   23  N5  UNL     1      -5.035   2.516  15.735  1.00  0.00    -0.402 NA
HETATM   24  C11 UNL     1      -4.726   1.458  16.523  1.00  0.00     0.291 C
HETATM   25  O5  UNL     1      -3.706   0.770  16.474  1.00  0.00    -0.257 OA
BRANCH  24  26
HETATM   26  C12 UNL     1      -5.697   1.011  17.622  1.00  0.00     0.093 A
HETATM   27  C13 UNL     1      -7.148   1.141  17.204  1.00  0.00     0.016 A
HETATM   28  C14 UNL     1      -6.595   2.052  18.236  1.00  0.00     0.016 A
ENDBRANCH  24  26
ENDBRANCH  20  23
ENDBRANCH  19  20
ENDBRANCH  16  19
ENDBRANCH   1  16
TORSDOF 12
ENDMDL