MODEL 5
REMARK VINA RESULT: -6.093780326      2.638      3.305
REMARK  12 active torsions:
REMARK  status: ('A' for Active; 'I' for Inactive)
REMARK    1  A    between atoms: O1_2  and  C2_3
REMARK    2  A    between atoms: N1_6  and  C5_7
REMARK    3  A    between atoms: C5_7  and  C6_8
REMARK    4  A    between atoms: C5_7  and  C10_17
REMARK    5  A    between atoms: C6_8  and  C7_9
REMARK    6  A    between atoms: C8_10  and  C9_11
REMARK    7  A    between atoms: C9_11  and  N2_12
REMARK    8  A    between atoms: C10_17  and  C11_19
REMARK    9  A    between atoms: C11_19  and  N4_21
REMARK   10  A    between atoms: N4_21  and  C13_23
REMARK   11  A    between atoms: C14_25  and  C15_26
REMARK   12  A    between atoms: C15_26  and  O4_27
ROOT
HETATM    1  C5  UNL     1      -3.439   3.905  13.650  1.00  0.00     0.155 C
ENDROOT
BRANCH   1   2
HETATM    2  N1  UNL     1      -4.282   3.366  14.622  1.00  0.00    -0.392 N
HETATM    3  C4  UNL     1      -5.018   4.395  15.306  1.00  0.00     0.121 C
HETATM    4  C3  UNL     1      -6.359   3.691  15.601  1.00  0.00     0.053 C
HETATM    5  C2  UNL     1      -5.763   2.331  15.940  1.00  0.00     0.146 C
HETATM    6  C14 UNL     1      -4.850   2.140  14.708  1.00  0.00     0.132 C
BRANCH   5   7
HETATM    7  O1  UNL     1      -6.661   1.364  16.165  1.00  0.00    -0.389 OA
HETATM    8  C1  UNL     1      -7.098   1.441  17.500  1.00  0.00     0.202 C
ENDBRANCH   5   7
BRANCH   6   9
HETATM    9  C15 UNL     1      -4.064   0.921  15.054  1.00  0.00     0.191 C
BRANCH   9  10
HETATM   10  O4  UNL     1      -3.651   1.022  16.408  1.00  0.00    -0.399 OA
ATOM     11  H4  UNL     1      -3.353   0.167  16.697  1.00  0.00     0.209 HD
ENDBRANCH   9  10
ENDBRANCH   6   9
ENDBRANCH   1   2
BRANCH   1  12
HETATM   12  C6  UNL     1      -2.099   4.371  14.199  1.00  0.00     0.059 C
BRANCH  12  13
HETATM   13  C7  UNL     1      -1.758   5.739  13.813  1.00  0.00    -0.027 C
HETATM   14  C8  UNL     1      -2.465   6.766  14.258  1.00  0.00    -0.010 C
BRANCH  14  15
HETATM   15  C9  UNL     1      -2.168   8.183  13.899  1.00  0.00     0.166 C
BRANCH  15  16
HETATM   16  N2  UNL     1      -2.187   8.946  15.114  1.00  0.00    -0.339 N
HETATM   17  N3  UNL     1      -1.157   8.969  15.796  1.00  0.00    -0.349 N
ATOM     18  H32 UNL     1      -0.329   8.456  15.491  1.00  0.00     0.176 HD
ATOM     19  H31 UNL     1      -1.170   9.511  16.660  1.00  0.00     0.176 HD
ATOM     20  H2  UNL     1      -3.023   9.453  15.405  1.00  0.00     0.179 HD
ENDBRANCH  15  16
ENDBRANCH  14  15
ENDBRANCH  12  13
ENDBRANCH   1  12
BRANCH   1  21
HETATM   21  C10 UNL     1      -3.218   3.148  12.419  1.00  0.00     0.171 C
HETATM   22  O2  UNL     1      -2.313   2.290  12.466  1.00  0.00    -0.293 OA
BRANCH  21  23
HETATM   23  C11 UNL     1      -3.892   3.235  11.135  1.00  0.00     0.151 C
HETATM   24  C12 UNL     1      -4.426   4.668  10.935  1.00  0.00     0.040 C
BRANCH  23  25
HETATM   25  N4  UNL     1      -5.124   2.427  11.193  1.00  0.00    -0.357 N
ATOM     26  H4  UNL     1      -6.026   2.898  11.261  1.00  0.00     0.162 HD
BRANCH  25  27
HETATM   27  C13 UNL     1      -5.082   1.023  11.156  1.00  0.00     0.349 C
HETATM   28  O3  UNL     1      -4.796   0.378  10.109  1.00  0.00    -0.284 OA
ENDBRANCH  25  27
ENDBRANCH  23  25
ENDBRANCH  21  23
ENDBRANCH   1  21
TORSDOF 12
ENDMDL