MODEL 5
REMARK VINA RESULT: -6.821328163      3.435      4.463
REMARK  10 active torsions:
REMARK  status: ('A' for Active; 'I' for Inactive)
REMARK    1  A    between atoms: C2_2  and  C3_3
REMARK    2  A    between atoms: C2_2  and  N3_15
REMARK    3  A    between atoms: C3_3  and  C4_4
REMARK    4  A    between atoms: C4_4  and  C5_5
REMARK    5  A    between atoms: C4_4  and  N1_8
REMARK    6  A    between atoms: N1_8  and  C6_9
REMARK    7  A    between atoms: N1_8  and  C7_13
REMARK    8  A    between atoms: N3_15  and  C8_18
REMARK    9  A    between atoms: C8_18  and  C9_19
REMARK       I    between atoms: C9_19  and  N4_21
REMARK   10  A    between atoms: N4_21  and  C10_23
ROOT
HETATM    1  N3  UNL     1      -4.713   5.427  14.720  1.00  0.00    -0.060 N
ATOM      2  H31 UNL     1      -4.758   5.828  15.657  1.00  0.00     0.278 HD
ATOM      3  H32 UNL     1      -5.259   6.127  14.219  1.00  0.00     0.278 HD
ENDROOT
BRANCH   1   4
HETATM    4  C2  UNL     1      -5.362   4.111  14.673  1.00  0.00     0.207 C
HETATM    5  C1  UNL     1      -6.361   4.067  15.747  1.00  0.00     0.044 C
BRANCH   4   6
HETATM    6  C3  UNL     1      -4.375   3.065  14.481  1.00  0.00     0.042 C
BRANCH   6   7
HETATM    7  C4  UNL     1      -4.695   1.647  14.268  1.00  0.00     0.117 C
BRANCH   7   8
HETATM    8  C5  UNL     1      -4.443   0.739  15.398  1.00  0.00     0.227 C
HETATM    9  O1  UNL     1      -5.030  -0.326  15.613  1.00  0.00    -0.643 OA
HETATM   10  O2  UNL     1      -3.449   1.114  16.311  1.00  0.00    -0.643 OA
ENDBRANCH   7   8
BRANCH   7  11
HETATM   11  N1  UNL     1      -4.439   1.056  12.979  1.00  0.00    -0.280 N
BRANCH  11  12
HETATM   12  C6  UNL     1      -4.032  -0.273  12.738  1.00  0.00     0.184 C
HETATM   13  N2  UNL     1      -4.497  -0.891  11.691  1.00  0.00    -0.395 N
ATOM     14  H22 UNL     1      -5.143  -0.408  11.066  1.00  0.00     0.156 HD
ATOM     15  H21 UNL     1      -4.203  -1.852  11.517  1.00  0.00     0.156 HD
ENDBRANCH  11  12
BRANCH  11  16
HETATM   16  C7  UNL     1      -4.666   1.856  11.826  1.00  0.00     0.361 C
HETATM   17  O3  UNL     1      -5.791   1.884  11.298  1.00  0.00    -0.283 OA
ENDBRANCH  11  16
ENDBRANCH   7  11
ENDBRANCH   6   7
ENDBRANCH   4   6
ENDBRANCH   1   4
BRANCH   1  18
HETATM   18  C8  UNL     1      -3.357   5.376  14.237  1.00  0.00     0.335 C
BRANCH  18  19
HETATM   19  C9  UNL     1      -2.997   6.778  13.847  1.00  0.00     0.243 C
HETATM   20  O4  UNL     1      -3.679   7.327  12.947  1.00  0.00    -0.272 OA
HETATM   21  N4  UNL     1      -1.942   7.493  14.440  1.00  0.00    -0.353 N
ATOM     22  H4  UNL     1      -1.385   7.051  15.172  1.00  0.00     0.163 HD
BRANCH  21  23
HETATM   23  C10 UNL     1      -1.638   8.820  14.036  1.00  0.00     0.118 C
HETATM   24  C11 UNL     1      -0.169   8.990  13.644  1.00  0.00     0.297 C
HETATM   25  N5  UNL     1       0.250  10.238  14.301  1.00  0.00     0.090 N
HETATM   26  C12 UNL     1      -0.558  11.316  13.775  1.00  0.00     0.273 C
HETATM   27  C15 UNL     1      -0.381  10.009  15.614  1.00  0.00     0.279 C
HETATM   28  C13 UNL     1      -1.940  11.203  14.407  1.00  0.00     0.038 C
HETATM   29  C14 UNL     1      -1.816   9.857  15.088  1.00  0.00     0.040 C
ENDBRANCH  21  23
ENDBRANCH  18  19
ENDBRANCH   1  18
TORSDOF 10
ENDMDL