MODEL 5
REMARK VINA RESULT: -6.219640204      2.339      5.586
REMARK  12 active torsions:
REMARK  status: ('A' for Active; 'I' for Inactive)
REMARK    1  A    between atoms: C2_2  and  C4_4
REMARK    2  A    between atoms: C4_4  and  C5_5
REMARK    3  A    between atoms: C4_4  and  N1_8
REMARK    4  A    between atoms: C5_5  and  O1_6
REMARK       I    between atoms: N1_8  and  C6_10
REMARK    5  A    between atoms: C6_10  and  C7_12
REMARK    6  A    between atoms: C7_12  and  C8_13
REMARK    7  A    between atoms: C7_12  and  N2_17
REMARK    8  A    between atoms: C8_13  and  C9_14
REMARK       I    between atoms: N2_17  and  C12_19
REMARK    9  A    between atoms: C12_19  and  C13_21
REMARK   10  A    between atoms: C13_21  and  C14_23
REMARK   11  A    between atoms: C14_23  and  N3_24
REMARK   12  A    between atoms: N3_24  and  C16_26
ROOT
HETATM    1  C7  UNL     1      -4.235   5.003  13.524  1.00  0.00     0.100 C
ENDROOT
BRANCH   1   2
HETATM    2  C6  UNL     1      -4.893   3.713  13.858  1.00  0.00     0.268 C
HETATM    3  N1  UNL     1      -4.801   3.270  15.210  1.00  0.00    -0.349 N
ATOM      4  H1  UNL     1      -4.295   3.848  15.881  1.00  0.00     0.163 HD
HETATM    5  O2  UNL     1      -5.513   2.995  13.054  1.00  0.00    -0.266 OA
BRANCH   3   6
HETATM    6  C4  UNL     1      -5.394   2.039  15.666  1.00  0.00     0.111 C
BRANCH   6   7
HETATM    7  C2  UNL     1      -6.183   2.238  16.944  1.00  0.00     0.002 C
HETATM    8  C1  UNL     1      -7.071   1.078  17.281  1.00  0.00     0.011 C
HETATM    9  C3  UNL     1      -7.001   3.512  16.884  1.00  0.00     0.011 C
ENDBRANCH   6   7
BRANCH   6  10
HETATM   10  C5  UNL     1      -4.366   0.964  15.787  1.00  0.00     0.189 C
BRANCH  10  11
HETATM   11  O1  UNL     1      -3.221   1.353  16.438  1.00  0.00    -0.399 OA
ATOM     12  H1  UNL     1      -2.592   0.653  16.567  1.00  0.00     0.209 HD
ENDBRANCH  10  11
ENDBRANCH   6  10
ENDBRANCH   3   6
ENDBRANCH   1   2
BRANCH   1  13
HETATM   13  C8  UNL     1      -4.013   5.915  14.653  1.00  0.00     0.013 C
BRANCH  13  14
HETATM   14  C9  UNL     1      -3.342   7.206  14.491  1.00  0.00     0.010 A
HETATM   15  C10 UNL     1      -1.886   7.447  14.500  1.00  0.00     0.009 A
HETATM   16  C11 UNL     1      -2.826   8.068  15.577  1.00  0.00     0.009 A
ENDBRANCH  13  14
ENDBRANCH   1  13
BRANCH   1  17
HETATM   17  N2  UNL     1      -3.156   4.850  12.589  1.00  0.00    -0.316 N
HETATM   18  C12 UNL     1      -1.932   4.192  12.905  1.00  0.00     0.293 C
HETATM   19  O3  UNL     1      -1.744   3.699  14.071  1.00  0.00    -0.264 OA
ATOM     20  H2  UNL     1      -3.271   5.233  11.651  1.00  0.00     0.169 HD
BRANCH  18  21
HETATM   21  C13 UNL     1      -0.857   4.050  11.944  1.00  0.00     0.234 C
HETATM   22  O4  UNL     1      -0.219   2.980  11.865  1.00  0.00    -0.285 OA
BRANCH  21  23
HETATM   23  C14 UNL     1      -0.511   5.170  11.052  1.00  0.00     0.213 C
BRANCH  23  24
HETATM   24  N3  UNL     1      -0.795   4.914   9.676  1.00  0.00    -0.356 N
HETATM   25  C15 UNL     1       0.310   4.717   8.760  1.00  0.00     0.152 C
BRANCH  24  26
HETATM   26  C16 UNL     1      -2.151   4.860   9.235  1.00  0.00     0.350 C
HETATM   27  O5  UNL     1      -2.821   3.835   9.447  1.00  0.00    -0.284 OA
ENDBRANCH  24  26
ENDBRANCH  23  24
ENDBRANCH  21  23
ENDBRANCH  18  21
ENDBRANCH   1  17
TORSDOF 12
ENDMDL