MODEL 3
REMARK VINA RESULT: -5.808795687      2.850      5.330
REMARK  10 active torsions:
REMARK  status: ('A' for Active; 'I' for Inactive)
REMARK    1  A    between atoms: C2_2  and  C4_4
REMARK    2  A    between atoms: C4_4  and  C5_5
REMARK    3  A    between atoms: C5_5  and  N1_6
REMARK    4  A    between atoms: C5_5  and  C10_14
REMARK       I    between atoms: N1_6  and  C6_8
REMARK    5  A    between atoms: C6_8  and  C7_10
REMARK    6  A    between atoms: C7_10  and  N2_11
REMARK       I    between atoms: C10_14  and  N3_16
REMARK    7  A    between atoms: N3_16  and  C11_18
REMARK    8  A    between atoms: C11_18  and  C12_19
REMARK    9  A    between atoms: C11_18  and  C13_21
REMARK   10  A    between atoms: C13_21  and  S1_22
ROOT
HETATM    1  C5  UNL     1      -4.146   5.521  14.405  1.00  0.00     0.177 C
ENDROOT
BRANCH   1   2
HETATM    2  C4  UNL     1      -3.852   6.886  14.869  1.00  0.00     0.038 C
BRANCH   2   3
HETATM    3  C2  UNL     1      -2.570   7.529  14.488  1.00  0.00    -0.020 C
HETATM    4  C1  UNL     1      -2.536   8.187  13.168  1.00  0.00     0.009 C
HETATM    5  C3  UNL     1      -2.227   8.548  15.600  1.00  0.00     0.009 C
ENDBRANCH   2   3
ENDBRANCH   1   2
BRANCH   1   6
HETATM    6  N1  UNL     1      -5.193   4.974  15.294  1.00  0.00    -0.346 N
HETATM    7  C6  UNL     1      -5.529   3.630  15.369  1.00  0.00     0.246 C
HETATM    8  O1  UNL     1      -4.967   2.757  14.681  1.00  0.00    -0.272 OA
ATOM      9  H1  UNL     1      -5.701   5.627  15.891  1.00  0.00     0.163 HD
BRANCH   7  10
HETATM   10  C7  UNL     1      -6.623   3.214  16.324  1.00  0.00     0.374 C
BRANCH  10  11
HETATM   11  N2  UNL     1      -6.430   1.842  16.671  1.00  0.00     0.100 N
HETATM   12  C8  UNL     1      -7.460   1.081  17.302  1.00  0.00     0.303 A
HETATM   13  C9  UNL     1      -6.336   1.576  18.091  1.00  0.00     0.303 A
ENDBRANCH  10  11
ENDBRANCH   7  10
ENDBRANCH   1   6
BRANCH   1  14
HETATM   14  C10 UNL     1      -4.457   5.250  13.020  1.00  0.00     0.241 C
HETATM   15  O2  UNL     1      -5.276   5.931  12.303  1.00  0.00    -0.271 OA
HETATM   16  N3  UNL     1      -3.844   4.142  12.337  1.00  0.00    -0.348 N
ATOM     17  H3  UNL     1      -3.174   3.563  12.843  1.00  0.00     0.163 HD
BRANCH  16  18
HETATM   18  C11 UNL     1      -4.144   3.817  10.952  1.00  0.00     0.157 C
BRANCH  18  19
HETATM   19  C12 UNL     1      -4.635   2.411  10.841  1.00  0.00     0.257 C
HETATM   20  O3  UNL     1      -5.736   2.122  11.254  1.00  0.00    -0.305 OA
ENDBRANCH  18  19
BRANCH  18  21
HETATM   21  C13 UNL     1      -2.939   4.061  10.111  1.00  0.00     0.140 C
BRANCH  21  22
HETATM   22  S1  UNL     1      -1.482   4.353  11.092  1.00  0.00     0.013 S
HETATM   23  C14 UNL     1      -0.117   4.789  10.069  1.00  0.00     0.127 C
HETATM   24  O4  UNL     1      -1.149   3.049  12.090  1.00  0.00    -0.258 OA
ENDBRANCH  21  22
ENDBRANCH  18  21
ENDBRANCH  16  18
ENDBRANCH   1  14
TORSDOF 10
ENDMDL