MODEL 1
REMARK VINA RESULT: -6.789782263      0.000      0.000
REMARK  15 active torsions:
REMARK  status: ('A' for Active; 'I' for Inactive)
REMARK    1  A    between atoms: C2_2  and  C3_3
REMARK    2  A    between atoms: C3_3  and  N4_24
REMARK    3  A    between atoms: C4_4  and  O1_5
REMARK    4  A    between atoms: C4_4  and  N1_7
REMARK    5  A    between atoms: C8_11  and  C9_12
REMARK       I    between atoms: C9_12  and  N2_14
REMARK    6  A    between atoms: N2_14  and  C10_16
REMARK    7  A    between atoms: C10_16  and  C11_17
REMARK    8  A    between atoms: C10_16  and  C12_19
REMARK    9  A    between atoms: C12_19  and  C13_20
REMARK   10  A    between atoms: C13_20  and  C14_21
REMARK       I    between atoms: N4_24  and  C15_25
REMARK   11  A    between atoms: N4_24  and  C20_34
REMARK   12  A    between atoms: C15_25  and  C16_27
REMARK   13  A    between atoms: C16_27  and  N5_28
REMARK   14  A    between atoms: N5_28  and  C18_30
REMARK   15  A    between atoms: C18_30  and  C19_31
ROOT
HETATM    1  C3  UNL     1      -5.506   7.197  10.417  1.00  0.00     0.065 C
HETATM    2  C4  UNL     1      -5.077   5.985  11.035  1.00  0.00     0.162 C
ENDROOT
BRANCH   2   3
HETATM    3  O1  UNL     1      -5.134   4.892  10.238  1.00  0.00    -0.345 OA
ATOM      4  H1  UNL     1      -5.387   4.090  10.681  1.00  0.00     0.219 HD
ENDBRANCH   2   3
BRANCH   2   5
HETATM    5  N1  UNL     1      -4.602   5.642  12.274  1.00  0.00    -0.347 N
HETATM    6  C5  UNL     1      -3.172   5.261  12.494  1.00  0.00     0.126 C
HETATM    7  C6  UNL     1      -2.884   5.497  13.938  1.00  0.00     0.022 C
HETATM    8  C7  UNL     1      -4.073   6.361  14.377  1.00  0.00     0.037 C
HETATM    9  C8  UNL     1      -5.166   5.591  13.564  1.00  0.00     0.178 C
BRANCH   9  10
HETATM   10  C9  UNL     1      -5.198   4.274  14.241  1.00  0.00     0.241 C
HETATM   11  O2  UNL     1      -5.935   4.249  15.291  1.00  0.00    -0.271 OA
HETATM   12  N2  UNL     1      -4.547   3.103  13.879  1.00  0.00    -0.348 N
ATOM     13  H2  UNL     1      -3.962   3.106  13.044  1.00  0.00     0.163 HD
BRANCH  12  14
HETATM   14  C10 UNL     1      -4.666   1.878  14.638  1.00  0.00     0.146 C
BRANCH  14  15
HETATM   15  C11 UNL     1      -3.801   1.884  15.823  1.00  0.00     0.256 C
HETATM   16  O3  UNL     1      -3.679   0.881  16.531  1.00  0.00    -0.305 OA
ENDBRANCH  14  15
BRANCH  14  17
HETATM   17  C12 UNL     1      -4.469   0.655  13.768  1.00  0.00     0.041 C
BRANCH  17  18
HETATM   18  C13 UNL     1      -3.872   1.043  12.439  1.00  0.00     0.102 C
BRANCH  18  19
HETATM   19  C14 UNL     1      -4.911   1.168  11.385  1.00  0.00     0.231 C
HETATM   20  N3  UNL     1      -4.973   0.238  10.313  1.00  0.00    -0.062 NA
HETATM   21  O4  UNL     1      -5.765   2.110  11.420  1.00  0.00    -0.277 OA
ENDBRANCH  18  19
ENDBRANCH  17  18
ENDBRANCH  14  17
ENDBRANCH  12  14
ENDBRANCH   9  10
ENDBRANCH   2   5
BRANCH   1  22
HETATM   22  C2  UNL     1      -5.765   8.427  11.191  1.00  0.00     0.057 C
HETATM   23  C1  UNL     1      -7.210   8.409  11.704  1.00  0.00     0.011 C
ENDBRANCH   1  22
BRANCH   1  24
HETATM   24  N4  UNL     1      -4.888   7.501   9.146  1.00  0.00    -0.312 N
HETATM   25  C15 UNL     1      -3.504   7.643   8.905  1.00  0.00     0.253 C
HETATM   26  O5  UNL     1      -3.146   7.931   7.711  1.00  0.00    -0.271 OA
BRANCH  25  27
HETATM   27  C16 UNL     1      -2.493   7.469   9.973  1.00  0.00     0.375 C
BRANCH  27  28
HETATM   28  N5  UNL     1      -1.251   7.005   9.360  1.00  0.00     0.103 N
HETATM   29  C17 UNL     1      -0.120   7.771   9.851  1.00  0.00     0.311 C
BRANCH  28  30
HETATM   30  C18 UNL     1      -1.037   5.630   9.798  1.00  0.00     0.385 C
BRANCH  30  31
HETATM   31  C19 UNL     1      -1.690   4.703   8.855  1.00  0.00     0.202 C
HETATM   32  O6  UNL     1      -1.311   4.649   7.654  1.00  0.00    -0.647 OA
HETATM   33  O7  UNL     1      -2.726   3.863   9.225  1.00  0.00    -0.647 OA
ENDBRANCH  30  31
ENDBRANCH  28  30
ENDBRANCH  27  28
ENDBRANCH  25  27
BRANCH  24  34
HETATM   34  C20 UNL     1      -5.763   7.685   7.985  1.00  0.00     0.085 C
HETATM   35  C21 UNL     1      -6.978   6.792   8.083  1.00  0.00     0.032 C
HETATM   36  C22 UNL     1      -6.267   9.126   7.943  1.00  0.00     0.032 C
ENDBRANCH  24  34
ENDBRANCH   1  24
TORSDOF 15
ENDMDL