MODEL 1
REMARK VINA RESULT: -7.844435390      0.000      0.000
REMARK  15 active torsions:
REMARK  status: ('A' for Active; 'I' for Inactive)
REMARK    1  A    between atoms: C2_2  and  C3_3
REMARK    2  A    between atoms: C3_3  and  C5_5
REMARK    3  A    between atoms: C5_5  and  N1_6
REMARK    4  A    between atoms: C5_5  and  C23_34
REMARK       I    between atoms: N1_6  and  C6_8
REMARK    5  A    between atoms: C6_8  and  C7_10
REMARK    6  A    between atoms: C7_10  and  N2_11
REMARK    7  A    between atoms: N2_11  and  C8_12
REMARK    8  A    between atoms: C8_12  and  C9_13
REMARK    9  A    between atoms: C8_12  and  C13_17
REMARK   10  A    between atoms: C9_13  and  C10_14
REMARK       I    between atoms: C13_17  and  N3_19
REMARK   11  A    between atoms: C17_23  and  C18_24
REMARK   12  A    between atoms: C18_24  and  C19_26
REMARK   13  A    between atoms: C19_26  and  C20_27
REMARK   14  A    between atoms: C20_27  and  C21_28
REMARK   15  A    between atoms: C21_28  and  N4_29
ROOT
HETATM    1  C8  UNL     1      -2.661   7.796  13.857  1.00  0.00     0.254 C
ENDROOT
BRANCH   1   2
HETATM    2  N2  UNL     1      -2.640   6.479  14.313  1.00  0.00    -0.440 NA
BRANCH   2   3
HETATM    3  C7  UNL     1      -2.620   5.395  14.715  1.00  0.00     0.249 C
BRANCH   3   4
HETATM    4  C6  UNL     1      -3.658   4.355  14.515  1.00  0.00     0.270 C
HETATM    5  N1  UNL     1      -3.852   3.281  15.388  1.00  0.00    -0.342 N
ATOM      6  H1  UNL     1      -3.252   3.202  16.210  1.00  0.00     0.163 HD
HETATM    7  O1  UNL     1      -4.371   4.482  13.504  1.00  0.00    -0.266 OA
BRANCH   5   8
HETATM    8  C5  UNL     1      -4.868   2.278  15.171  1.00  0.00     0.177 C
BRANCH   8   9
HETATM    9  C3  UNL     1      -6.161   2.540  15.853  1.00  0.00     0.013 C
HETATM   10  C4  UNL     1      -6.443   4.012  15.876  1.00  0.00     0.012 C
BRANCH   9  11
HETATM   11  C2  UNL     1      -6.135   1.944  17.248  1.00  0.00     0.002 C
HETATM   12  C1  UNL     1      -7.375   1.065  17.392  1.00  0.00     0.005 C
ENDBRANCH   9  11
ENDBRANCH   8   9
BRANCH   8  13
HETATM   13  C23 UNL     1      -4.343   0.928  15.628  1.00  0.00     0.254 C
HETATM   14  N7  UNL     1      -4.862  -0.269  15.082  1.00  0.00    -0.060 NA
HETATM   15  O4  UNL     1      -3.450   0.873  16.491  1.00  0.00    -0.275 OA
ENDBRANCH   8  13
ENDBRANCH   5   8
ENDBRANCH   3   4
ENDBRANCH   2   3
ENDBRANCH   1   2
BRANCH   1  16
HETATM   16  C9  UNL     1      -1.482   8.534  14.380  1.00  0.00     0.053 C
BRANCH  16  17
HETATM   17  C10 UNL     1      -1.628   9.888  14.924  1.00  0.00    -0.019 C
HETATM   18  C11 UNL     1      -0.261  10.215  15.585  1.00  0.00     0.009 C
HETATM   19  C12 UNL     1      -1.925  11.014  14.030  1.00  0.00     0.009 C
ENDBRANCH  16  17
ENDBRANCH   1  16
BRANCH   1  20
HETATM   20  C13 UNL     1      -2.841   7.762  12.389  1.00  0.00     0.256 C
HETATM   21  O2  UNL     1      -1.782   7.869  11.671  1.00  0.00    -0.270 OA
HETATM   22  N3  UNL     1      -4.062   7.633  11.676  1.00  0.00    -0.338 N
HETATM   23  C14 UNL     1      -5.370   7.278  12.132  1.00  0.00     0.127 C
HETATM   24  C17 UNL     1      -4.186   7.982  10.287  1.00  0.00     0.157 C
HETATM   25  C15 UNL     1      -6.290   8.203  11.372  1.00  0.00     0.022 C
HETATM   26  C16 UNL     1      -5.506   8.666  10.200  1.00  0.00     0.035 C
BRANCH  24  27
HETATM   27  C18 UNL     1      -3.941   6.945   9.302  1.00  0.00     0.149 C
HETATM   28  O3  UNL     1      -4.967   6.633   8.631  1.00  0.00    -0.296 OA
BRANCH  27  29
HETATM   29  C19 UNL     1      -2.745   6.206   8.944  1.00  0.00     0.082 C
BRANCH  29  30
HETATM   30  C20 UNL     1      -2.831   4.708   9.080  1.00  0.00     0.027 C
BRANCH  30  31
HETATM   31  C21 UNL     1      -3.041   4.223  10.468  1.00  0.00     0.122 C
BRANCH  31  32
HETATM   32  N4  UNL     1      -4.316   3.510  10.554  1.00  0.00    -0.367 N
HETATM   33  C22 UNL     1      -4.408   2.401  11.174  1.00  0.00     0.196 C
HETATM   34  N5  UNL     1      -5.612   1.677  11.284  1.00  0.00    -0.067 NA
HETATM   35  N6  UNL     1      -3.242   1.854  11.790  1.00  0.00    -0.067 NA
ATOM     36  H4  UNL     1      -5.145   3.908  10.111  1.00  0.00     0.161 HD
ENDBRANCH  31  32
ENDBRANCH  30  31
ENDBRANCH  29  30
ENDBRANCH  27  29
ENDBRANCH  24  27
ENDBRANCH   1  20
TORSDOF 15
ENDMDL