MODEL 4
REMARK VINA RESULT: -6.356024863      1.655      4.105
REMARK  14 active torsions:
REMARK  status: ('A' for Active; 'I' for Inactive)
REMARK    1  A    between atoms: C2_2  and  C3_3
REMARK    2  A    between atoms: C3_3  and  C6_6
REMARK       I    between atoms: C6_6  and  N1_8
REMARK    3  A    between atoms: N1_8  and  C7_9
REMARK    4  A    between atoms: N1_8  and  C17_27
REMARK    5  A    between atoms: C7_9  and  C8_10
REMARK       I    between atoms: C8_10  and  N2_12
REMARK    6  A    between atoms: N2_12  and  C9_14
REMARK    7  A    between atoms: C9_14  and  C11_16
REMARK       I    between atoms: C11_16  and  N3_18
REMARK    8  A    between atoms: N3_18  and  C12_20
REMARK    9  A    between atoms: C12_20  and  C13_21
REMARK   10  A    between atoms: C12_20  and  C14_24
REMARK   11  A    between atoms: C17_27  and  C18_28
REMARK   12  A    between atoms: C17_27  and  C19_30
REMARK   13  A    between atoms: C19_30  and  C20_31
REMARK   14  A    between atoms: C19_30  and  C21_34
ROOT
HETATM    1  C6  UNL     1      -5.483   6.993  10.542  1.00  0.00     0.229 C
HETATM    2  O1  UNL     1      -6.099   6.470  11.550  1.00  0.00    -0.272 OA
HETATM    3  N1  UNL     1      -4.444   6.173   9.996  1.00  0.00    -0.328 N
ENDROOT
BRANCH   3   4
HETATM    4  C7  UNL     1      -4.292   4.881  10.645  1.00  0.00     0.229 C
BRANCH   4   5
HETATM    5  C8  UNL     1      -3.422   4.872  11.818  1.00  0.00     0.236 C
HETATM    6  O2  UNL     1      -2.183   4.562  11.817  1.00  0.00    -0.272 OA
HETATM    7  N2  UNL     1      -3.978   5.233  13.074  1.00  0.00    -0.347 N
ATOM      8  H2  UNL     1      -4.963   5.490  13.131  1.00  0.00     0.163 HD
BRANCH   7   9
HETATM    9  C9  UNL     1      -3.183   5.243  14.259  1.00  0.00     0.172 C
HETATM   10  C10 UNL     1      -3.528   6.388  15.191  1.00  0.00     0.042 C
BRANCH   9  11
HETATM   11  C11 UNL     1      -3.360   3.987  15.055  1.00  0.00     0.240 C
HETATM   12  O3  UNL     1      -2.386   3.544  15.714  1.00  0.00    -0.271 OA
HETATM   13  N3  UNL     1      -4.585   3.291  15.085  1.00  0.00    -0.346 N
ATOM     14  H3  UNL     1      -5.379   3.646  14.551  1.00  0.00     0.163 HD
BRANCH  13  15
HETATM   15  C12 UNL     1      -4.731   2.088  15.856  1.00  0.00     0.177 C
BRANCH  15  16
HETATM   16  C13 UNL     1      -4.619   0.920  14.955  1.00  0.00     0.254 C
HETATM   17  N4  UNL     1      -4.288   1.071  13.581  1.00  0.00    -0.060 NA
HETATM   18  O4  UNL     1      -4.830  -0.229  15.450  1.00  0.00    -0.275 OA
ENDBRANCH  15  16
BRANCH  15  19
HETATM   19  C14 UNL     1      -6.078   2.033  16.547  1.00  0.00     0.009 C
HETATM   20  C15 UNL     1      -6.008   1.658  17.999  1.00  0.00     0.012 C
HETATM   21  C16 UNL     1      -6.806   3.360  16.440  1.00  0.00     0.012 C
ENDBRANCH  15  19
ENDBRANCH  13  15
ENDBRANCH   9  11
ENDBRANCH   7   9
ENDBRANCH   4   5
ENDBRANCH   3   4
BRANCH   3  22
HETATM   22  C17 UNL     1      -3.569   6.642   8.945  1.00  0.00     0.184 C
BRANCH  22  23
HETATM   23  C18 UNL     1      -2.259   7.042   9.581  1.00  0.00     0.261 C
HETATM   24  O5  UNL     1      -1.783   8.142   9.552  1.00  0.00    -0.304 OA
ENDBRANCH  22  23
BRANCH  22  25
HETATM   25  C19 UNL     1      -3.386   5.802   7.745  1.00  0.00     0.018 C
BRANCH  25  26
HETATM   26  C20 UNL     1      -2.196   5.042   7.517  1.00  0.00     0.259 C
HETATM   27  N5  UNL     1      -1.291   5.367   6.471  1.00  0.00    -0.058 NA
HETATM   28  O6  UNL     1      -1.858   4.058   8.201  1.00  0.00    -0.272 OA
ENDBRANCH  25  26
BRANCH  25  29
HETATM   29  C21 UNL     1      -3.884   6.570   6.528  1.00  0.00     0.022 A
HETATM   30  C22 UNL     1      -3.869   8.062   6.512  1.00  0.00     0.010 A
HETATM   31  C23 UNL     1      -5.176   7.275   6.499  1.00  0.00     0.010 A
ENDBRANCH  25  29
ENDBRANCH  22  25
ENDBRANCH   3  22
BRANCH   1  32
HETATM   32  C3  UNL     1      -5.956   8.301  10.152  1.00  0.00     0.033 C
HETATM   33  C4  UNL     1      -6.919   8.833  11.239  1.00  0.00     0.025 C
HETATM   34  C5  UNL     1      -4.952   9.375   9.942  1.00  0.00     0.025 C
BRANCH  32  35
HETATM   35  C2  UNL     1      -6.855   8.158   8.922  1.00  0.00     0.014 C
HETATM   36  C1  UNL     1      -8.310   8.159   9.306  1.00  0.00     0.006 C
ENDBRANCH  32  35
ENDBRANCH   1  32
TORSDOF 14
ENDMDL