MODEL 1
REMARK VINA RESULT: -6.783341898      0.000      0.000
REMARK  14 active torsions:
REMARK  status: ('A' for Active; 'I' for Inactive)
REMARK    1  A    between atoms: C4_4  and  C5_5
REMARK    2  A    between atoms: C5_5  and  N1_6
REMARK    3  A    between atoms: C5_5  and  C7_10
REMARK    4  A    between atoms: N1_6  and  C6_8
REMARK       I    between atoms: C7_10  and  N2_12
REMARK    5  A    between atoms: N2_12  and  C8_14
REMARK    6  A    between atoms: C8_14  and  C9_15
REMARK    7  A    between atoms: C8_14  and  C10_17
REMARK       I    between atoms: C10_17  and  N3_19
REMARK    8  A    between atoms: C14_23  and  C15_24
REMARK       I    between atoms: C15_24  and  N4_26
REMARK    9  A    between atoms: N4_26  and  C16_28
REMARK   10  A    between atoms: C16_28  and  C17_29
REMARK   11  A    between atoms: C16_28  and  C21_33
REMARK   12  A    between atoms: C17_29  and  C18_30
REMARK   13  A    between atoms: C18_30  and  C19_31
REMARK       I    between atoms: C21_33  and  N5_35
REMARK   14  A    between atoms: N5_35  and  C22_37
ROOT
HETATM    1  C1  UNL     1      -9.073   7.956   8.725  1.00  0.00     0.017 C
HETATM    2  C2  UNL     1      -7.954   8.328   8.416  1.00  0.00    -0.090 C
HETATM    3  C3  UNL     1      -6.616   8.786   8.083  1.00  0.00     0.062 C
HETATM    4  C4  UNL     1      -5.622   8.396   8.834  1.00  0.00     0.016 C
ENDROOT
BRANCH   4   5
HETATM    5  C5  UNL     1      -4.195   8.756   8.646  1.00  0.00     0.200 C
BRANCH   5   6
HETATM    6  N1  UNL     1      -3.884  10.040   9.149  1.00  0.00    -0.352 N
ATOM      7  H1  UNL     1      -3.556  10.759   8.503  1.00  0.00     0.163 HD
BRANCH   6   8
HETATM    8  C6  UNL     1      -4.015  10.363  10.544  1.00  0.00     0.349 C
HETATM    9  O1  UNL     1      -4.614  11.404  10.905  1.00  0.00    -0.284 OA
ENDBRANCH   6   8
ENDBRANCH   5   6
BRANCH   5  10
HETATM   10  C7  UNL     1      -3.321   7.640   9.100  1.00  0.00     0.245 C
HETATM   11  O2  UNL     1      -2.156   7.544   8.748  1.00  0.00    -0.271 OA
HETATM   12  N2  UNL     1      -3.848   6.646   9.973  1.00  0.00    -0.340 N
ATOM     13  H2  UNL     1      -4.817   6.739  10.279  1.00  0.00     0.163 HD
BRANCH  12  14
HETATM   14  C8  UNL     1      -3.090   5.516  10.450  1.00  0.00     0.238 C
BRANCH  14  15
HETATM   15  C9  UNL     1      -3.402   4.319   9.642  1.00  0.00     0.266 C
HETATM   16  O3  UNL     1      -2.656   4.011   8.677  1.00  0.00    -0.304 OA
ENDBRANCH  14  15
BRANCH  14  17
HETATM   17  C10 UNL     1      -3.511   5.237  11.876  1.00  0.00     0.250 C
HETATM   18  O4  UNL     1      -4.339   4.310  12.038  1.00  0.00    -0.271 OA
HETATM   19  N3  UNL     1      -3.037   5.946  13.003  1.00  0.00    -0.337 N
HETATM   20  C11 UNL     1      -2.091   7.023  12.928  1.00  0.00     0.127 C
HETATM   21  C14 UNL     1      -3.413   5.743  14.357  1.00  0.00     0.179 C
HETATM   22  C12 UNL     1      -2.486   7.922  14.083  1.00  0.00     0.022 C
HETATM   23  C13 UNL     1      -2.699   6.847  15.156  1.00  0.00     0.037 C
BRANCH  21  24
HETATM   24  C15 UNL     1      -3.172   4.429  14.944  1.00  0.00     0.241 C
HETATM   25  O5  UNL     1      -2.056   4.075  15.352  1.00  0.00    -0.271 OA
HETATM   26  N4  UNL     1      -4.228   3.491  15.070  1.00  0.00    -0.346 N
ATOM     27  H4  UNL     1      -5.162   3.766  14.765  1.00  0.00     0.163 HD
BRANCH  26  28
HETATM   28  C16 UNL     1      -4.039   2.137  15.621  1.00  0.00     0.176 C
BRANCH  28  29
HETATM   29  C17 UNL     1      -5.096   2.016  16.739  1.00  0.00     0.035 C
BRANCH  29  30
HETATM   30  C18 UNL     1      -6.298   2.856  16.493  1.00  0.00     0.002 C
BRANCH  30  31
HETATM   31  C19 UNL     1      -7.584   2.195  16.964  1.00  0.00    -0.004 C
HETATM   32  C20 UNL     1      -7.229   0.786  17.374  1.00  0.00     0.005 C
ENDBRANCH  30  31
ENDBRANCH  29  30
ENDBRANCH  28  29
BRANCH  28  33
HETATM   33  C21 UNL     1      -4.389   1.188  14.562  1.00  0.00     0.240 C
HETATM   34  O6  UNL     1      -4.928   0.071  14.884  1.00  0.00    -0.271 OA
HETATM   35  N5  UNL     1      -4.187   1.377  13.162  1.00  0.00    -0.355 N
ATOM     36  H5  UNL     1      -3.778   2.250  12.827  1.00  0.00     0.162 HD
BRANCH  35  37
HETATM   37  C22 UNL     1      -4.553   0.346  12.207  1.00  0.00     0.076 C
HETATM   38  C23 UNL     1      -4.854   0.966  10.889  1.00  0.00     0.032 C
HETATM   39  C24 UNL     1      -3.409  -0.645  12.152  1.00  0.00     0.032 C
ENDBRANCH  35  37
ENDBRANCH  28  33
ENDBRANCH  26  28
ENDBRANCH  21  24
ENDBRANCH  14  17
ENDBRANCH  12  14
ENDBRANCH   5  10
ENDBRANCH   4   5
TORSDOF 14
ENDMDL