MODEL 3
REMARK VINA RESULT: -7.637877028      1.631      2.984
REMARK  13 active torsions:
REMARK  status: ('A' for Active; 'I' for Inactive)
REMARK    1  A    between atoms: C2_2  and  C3_4
REMARK    2  A    between atoms: C3_4  and  C4_5
REMARK    3  A    between atoms: C3_4  and  N4_13
REMARK    4  A    between atoms: C4_5  and  N1_6
REMARK    5  A    between atoms: N1_6  and  N2_8
REMARK       I    between atoms: N4_13  and  C5_15
REMARK    6  A    between atoms: C5_15  and  C6_17
REMARK    7  A    between atoms: C6_17  and  C7_18
REMARK    8  A    between atoms: C6_17  and  N5_22
REMARK    9  A    between atoms: C7_18  and  C8_19
REMARK       I    between atoms: N5_22  and  C11_24
REMARK   10  A    between atoms: C11_24  and  C12_26
REMARK   11  A    between atoms: C12_26  and  C13_27
REMARK   12  A    between atoms: C13_27  and  C14_28
REMARK   13  A    between atoms: C13_27  and  N6_31
REMARK       I    between atoms: N7_35  and  C20_36
ROOT
HETATM    1  C6  UNL     1      -4.719   2.424  15.655  1.00  0.00     0.177 C
ENDROOT
BRANCH   1   2
HETATM    2  C5  UNL     1      -4.680   1.214  14.715  1.00  0.00     0.245 C
HETATM    3  N4  UNL     1      -4.562   1.451  13.351  1.00  0.00    -0.321 N
ATOM      4  H4  UNL     1      -4.506   2.439  13.105  1.00  0.00     0.169 HD
HETATM    5  O2  UNL     1      -4.753   0.068  15.190  1.00  0.00    -0.271 OA
BRANCH   3   6
HETATM    6  C3  UNL     1      -4.504   0.577  12.234  1.00  0.00     0.097 C
BRANCH   6   7
HETATM    7  C2  UNL     1      -4.645   1.213  10.905  1.00  0.00     0.173 C
HETATM    8  C1  UNL     1      -4.639   2.683  10.690  1.00  0.00     0.098 C
HETATM    9  O1  UNL     1      -4.770   0.449   9.944  1.00  0.00    -0.291 OA
ENDBRANCH   6   7
BRANCH   6  10
HETATM   10  C4  UNL     1      -3.416  -0.443  12.346  1.00  0.00     0.141 C
BRANCH  10  11
HETATM   11  N1  UNL     1      -3.664  -1.716  11.811  1.00  0.00    -0.296 N
ATOM     12  H1  UNL     1      -4.637  -1.970  11.637  1.00  0.00     0.187 HD
BRANCH  11  13
HETATM   13  N2  UNL     1      -2.686  -2.665  11.495  1.00  0.00    -0.250 N
HETATM   14  N3  UNL     1      -2.913  -3.921  11.528  1.00  0.00    -0.331 N
ATOM     15  H32 UNL     1      -3.848  -4.227  11.797  1.00  0.00     0.178 HD
ATOM     16  H31 UNL     1      -2.200  -4.613  11.297  1.00  0.00     0.178 HD
ATOM     17  H2  UNL     1      -1.757  -2.342  11.228  1.00  0.00     0.207 HD
ENDBRANCH  11  13
ENDBRANCH  10  11
ENDBRANCH   6  10
ENDBRANCH   3   6
ENDBRANCH   1   2
BRANCH   1  18
HETATM   18  C7  UNL     1      -5.001   1.892  17.021  1.00  0.00     0.038 C
BRANCH  18  19
HETATM   19  C8  UNL     1      -6.350   2.145  17.579  1.00  0.00    -0.020 C
HETATM   20  C9  UNL     1      -6.995   3.432  17.152  1.00  0.00     0.009 C
HETATM   21  C10 UNL     1      -7.303   0.986  17.355  1.00  0.00     0.009 C
ENDBRANCH  18  19
ENDBRANCH   1  18
BRANCH   1  22
HETATM   22  N5  UNL     1      -3.428   3.030  15.536  1.00  0.00    -0.344 N
HETATM   23  C11 UNL     1      -3.211   4.219  14.705  1.00  0.00     0.240 C
HETATM   24  O3  UNL     1      -4.213   4.624  14.148  1.00  0.00    -0.269 OA
ATOM     25  H5  UNL     1      -2.641   2.625  16.041  1.00  0.00     0.163 HD
BRANCH  23  26
HETATM   26  C12 UNL     1      -1.881   4.790  14.617  1.00  0.00     0.083 C
BRANCH  26  27
HETATM   27  C13 UNL     1      -1.217   5.132  13.353  1.00  0.00     0.254 C
BRANCH  27  28
HETATM   28  C14 UNL     1      -1.627   4.209  12.233  1.00  0.00     0.014 C
HETATM   29  C15 UNL     1      -0.791   2.937  12.235  1.00  0.00     0.012 C
HETATM   30  C16 UNL     1      -1.896   4.741  10.895  1.00  0.00     0.012 C
ENDBRANCH  27  28
BRANCH  27  31
HETATM   31  N6  UNL     1      -1.183   6.506  12.954  1.00  0.00     0.098 N
HETATM   32  C17 UNL     1       0.025   7.199  12.790  1.00  0.00     0.275 C
HETATM   33  C18 UNL     1      -0.042   8.154  11.552  1.00  0.00     0.050 C
HETATM   34  C19 UNL     1      -0.838   9.383  11.918  1.00  0.00     0.127 C
HETATM   35  N7  UNL     1      -2.173   8.923  12.239  1.00  0.00    -0.351 N
HETATM   36  C20 UNL     1      -3.155   8.883  11.197  1.00  0.00     0.215 C
HETATM   37  C22 UNL     1      -2.562   8.498  13.565  1.00  0.00     0.156 C
HETATM   38  C21 UNL     1      -4.529   8.424  11.473  1.00  0.00     0.117 C
HETATM   39  O4  UNL     1      -2.872   9.237  10.020  1.00  0.00    -0.274 OA
HETATM   40  C23 UNL     1      -1.922   7.238  14.005  1.00  0.00     0.293 C
ENDBRANCH  27  31
ENDBRANCH  26  27
ENDBRANCH  23  26
ENDBRANCH   1  22
TORSDOF 13
ENDMDL