MODEL 2
REMARK VINA RESULT: -7.702155767      1.728      2.286
REMARK  17 active torsions:
REMARK  status: ('A' for Active; 'I' for Inactive)
REMARK    1  A    between atoms: C2_2  and  C3_3
REMARK    2  A    between atoms: C3_3  and  N1_4
REMARK    3  A    between atoms: N1_4  and  C4_5
REMARK       I    between atoms: N1_4  and  C5_7
REMARK    4  A    between atoms: C5_7  and  C6_9
REMARK    5  A    between atoms: C6_9  and  C7_10
REMARK    6  A    between atoms: C6_9  and  N2_17
REMARK    7  A    between atoms: C7_10  and  C8_11
REMARK    8  A    between atoms: C8_11  and  C9_12
REMARK    9  A    between atoms: C9_12  and  O3_13
REMARK   10  A    between atoms: C9_12  and  O4_15
REMARK       I    between atoms: N2_17  and  C11_19
REMARK   11  A    between atoms: C11_19  and  C12_21
REMARK   12  A    between atoms: C12_21  and  N3_22
REMARK       I    between atoms: N3_22  and  C13_24
REMARK   13  A    between atoms: C13_24  and  C14_26
REMARK   14  A    between atoms: C14_26  and  N4_27
REMARK   15  A    between atoms: C14_26  and  C17_32
REMARK   16  A    between atoms: N4_27  and  C15_28
REMARK   17  A    between atoms: C15_28  and  O7_30
ROOT
HETATM    1  N2  UNL     1      -3.473   3.407  13.837  1.00  0.00    -0.346 N
ATOM      2  H2  UNL     1      -3.725   3.422  12.849  1.00  0.00     0.163 HD
HETATM    3  C11 UNL     1      -2.406   4.323  13.921  1.00  0.00     0.246 C
HETATM    4  O5  UNL     1      -1.814   4.532  15.010  1.00  0.00    -0.271 OA
ENDROOT
BRANCH   3   5
HETATM    5  C12 UNL     1      -2.107   4.973  12.631  1.00  0.00     0.114 C
HETATM    6  C20 UNL     1      -1.776   3.823  11.657  1.00  0.00     0.041 C
HETATM    7  C21 UNL     1      -0.473   4.132  11.005  1.00  0.00     0.003 C
HETATM    8  C22 UNL     1       0.193   5.283  11.762  1.00  0.00     0.003 C
HETATM    9  C23 UNL     1      -0.728   5.672  12.892  1.00  0.00     0.041 C
BRANCH   5  10
HETATM   10  N3  UNL     1      -2.908   5.868  11.934  1.00  0.00    -0.337 N
HETATM   11  C13 UNL     1      -4.242   5.870  11.560  1.00  0.00     0.279 C
HETATM   12  O6  UNL     1      -4.943   4.828  11.814  1.00  0.00    -0.265 OA
ATOM     13  H3  UNL     1      -2.406   6.704  11.634  1.00  0.00     0.164 HD
BRANCH  11  14
HETATM   14  C14 UNL     1      -5.007   7.002  10.906  1.00  0.00     0.158 C
BRANCH  14  15
HETATM   15  N4  UNL     1      -5.338   6.594   9.600  1.00  0.00    -0.384 NA
BRANCH  15  16
HETATM   16  C15 UNL     1      -5.650   6.200   8.343  1.00  0.00     0.186 C
HETATM   17  C16 UNL     1      -6.831   6.610   7.461  1.00  0.00     0.114 C
BRANCH  16  18
HETATM   18  O7  UNL     1      -4.944   5.343   7.630  1.00  0.00    -0.339 OA
ATOM     19  H7  UNL     1      -4.529   5.546   6.800  1.00  0.00     0.220 HD
ENDBRANCH  16  18
ENDBRANCH  15  16
ENDBRANCH  14  15
BRANCH  14  20
HETATM   20  C17 UNL     1      -5.826   7.910  11.624  1.00  0.00     0.048 C
HETATM   21  C18 UNL     1      -5.748   9.304  10.927  1.00  0.00     0.017 C
HETATM   22  C19 UNL     1      -7.231   7.739  12.017  1.00  0.00     0.017 C
ENDBRANCH  14  20
ENDBRANCH  11  14
ENDBRANCH   5  10
ENDBRANCH   3   5
BRANCH   1  23
HETATM   23  C6  UNL     1      -4.349   2.508  14.381  1.00  0.00     0.177 C
BRANCH  23  24
HETATM   24  C5  UNL     1      -4.476   2.071  15.733  1.00  0.00     0.249 C
HETATM   25  N1  UNL     1      -5.787   2.293  16.340  1.00  0.00    -0.290 N
HETATM   26  O2  UNL     1      -3.585   1.492  16.443  1.00  0.00    -0.271 OA
BRANCH  25  27
HETATM   27  C3  UNL     1      -6.751   3.245  15.827  1.00  0.00     0.160 C
BRANCH  27  28
HETATM   28  C2  UNL     1      -6.272   4.628  16.232  1.00  0.00    -0.017 C
HETATM   29  C1  UNL     1      -6.206   5.386  15.068  1.00  0.00     0.008 C
ENDBRANCH  27  28
ENDBRANCH  25  27
BRANCH  25  30
HETATM   30  C4  UNL     1      -6.228   1.251  17.194  1.00  0.00     0.358 C
HETATM   31  O1  UNL     1      -7.040   0.382  16.892  1.00  0.00    -0.283 OA
ENDBRANCH  25  30
ENDBRANCH  23  24
BRANCH  23  32
HETATM   32  C7  UNL     1      -4.235   1.204  13.533  1.00  0.00     0.039 C
BRANCH  32  33
HETATM   33  C8  UNL     1      -4.362   1.431  12.088  1.00  0.00     0.063 C
BRANCH  33  34
HETATM   34  C9  UNL     1      -4.633   0.180  11.351  1.00  0.00     0.256 C
BRANCH  34  35
HETATM   35  O3  UNL     1      -5.018   0.290  10.107  1.00  0.00    -0.371 OA
ATOM     36  H3  UNL     1      -4.919  -0.475   9.552  1.00  0.00     0.212 HD
ENDBRANCH  34  35
BRANCH  34  37
HETATM   37  O4  UNL     1      -4.572  -1.112  11.802  1.00  0.00    -0.366 OA
HETATM   38  C10 UNL     1      -3.441  -1.905  11.715  1.00  0.00     0.204 C
ENDBRANCH  34  37
ENDBRANCH  33  34
ENDBRANCH  32  33
ENDBRANCH  23  32
ENDBRANCH   1  23
TORSDOF 17
ENDMDL