MODEL 3
REMARK VINA RESULT: -7.665601157      1.225      1.646
REMARK  14 active torsions:
REMARK  status: ('A' for Active; 'I' for Inactive)
REMARK    1  A    between atoms: C2_2  and  C3_3
REMARK       I    between atoms: C3_3  and  N1_5
REMARK    2  A    between atoms: N1_5  and  C4_7
REMARK    3  A    between atoms: C4_7  and  C5_8
REMARK    4  A    between atoms: C4_7  and  C8_13
REMARK    5  A    between atoms: C5_8  and  C6_9
REMARK    6  A    between atoms: C6_9  and  C7_10
REMARK    7  A    between atoms: C8_13  and  C9_14
REMARK    8  A    between atoms: C8_13  and  N4_17
REMARK    9  A    between atoms: C13_21  and  C14_22
REMARK       I    between atoms: C14_22  and  N5_24
REMARK   10  A    between atoms: N5_24  and  C15_26
REMARK   11  A    between atoms: C15_26  and  C16_27
REMARK   12  A    between atoms: C15_26  and  C17_29
REMARK       I    between atoms: C17_29  and  N6_31
REMARK   13  A    between atoms: C18_33  and  C19_34
REMARK   14  A    between atoms: C19_34  and  C21_36
ROOT
HETATM    1  N4  UNL     1      -3.315   3.781  12.119  1.00  0.00     0.117 N
HETATM    2  C10 UNL     1      -2.168   2.942  12.049  1.00  0.00     0.275 C
HETATM    3  C11 UNL     1      -1.111   3.965  11.590  1.00  0.00     0.033 C
HETATM    4  C12 UNL     1      -1.934   4.715  10.542  1.00  0.00     0.047 C
HETATM    5  C13 UNL     1      -3.401   4.336  10.826  1.00  0.00     0.315 C
ENDROOT
BRANCH   1   6
HETATM    6  C8  UNL     1      -4.477   3.270  12.739  1.00  0.00     0.334 C
BRANCH   6   7
HETATM    7  C4  UNL     1      -4.298   3.390  14.256  1.00  0.00     0.127 C
BRANCH   7   8
HETATM    8  N1  UNL     1      -4.208   4.844  14.474  1.00  0.00    -0.350 N
HETATM    9  C3  UNL     1      -3.063   5.559  14.827  1.00  0.00     0.240 C
HETATM   10  O1  UNL     1      -1.973   4.950  14.990  1.00  0.00    -0.269 OA
ATOM     11  H1  UNL     1      -5.068   5.381  14.355  1.00  0.00     0.163 HD
BRANCH   9  12
HETATM   12  C2  UNL     1      -3.010   6.998  15.033  1.00  0.00     0.064 C
HETATM   13  C1  UNL     1      -2.006   7.706  14.573  1.00  0.00     0.017 C
ENDBRANCH   9  12
ENDBRANCH   7   8
BRANCH   7  14
HETATM   14  C5  UNL     1      -5.568   2.989  14.977  1.00  0.00     0.036 C
BRANCH  14  15
HETATM   15  C6  UNL     1      -5.317   2.515  16.382  1.00  0.00     0.101 C
BRANCH  15  16
HETATM   16  C7  UNL     1      -4.935   1.114  16.519  1.00  0.00     0.231 C
HETATM   17  N2  UNL     1      -5.897   0.104  16.748  1.00  0.00    -0.062 NA
HETATM   18  O2  UNL     1      -3.735   0.758  16.435  1.00  0.00    -0.277 OA
ENDBRANCH  15  16
ENDBRANCH  14  15
ENDBRANCH   7  14
ENDBRANCH   6   7
BRANCH   6  19
HETATM   19  C9  UNL     1      -4.883   1.945  12.278  1.00  0.00     0.267 C
HETATM   20  N3  UNL     1      -4.458   0.724  12.855  1.00  0.00    -0.060 NA
HETATM   21  O3  UNL     1      -5.684   1.790  11.284  1.00  0.00    -0.274 OA
ENDBRANCH   6  19
ENDBRANCH   1   6
BRANCH   5  22
HETATM   22  C14 UNL     1      -4.212   5.547  10.666  1.00  0.00     0.252 C
HETATM   23  O4  UNL     1      -5.431   5.552  10.422  1.00  0.00    -0.271 OA
HETATM   24  N5  UNL     1      -3.599   6.846  10.791  1.00  0.00    -0.340 N
ATOM     25  H5  UNL     1      -2.601   6.890  10.994  1.00  0.00     0.163 HD
BRANCH  24  26
HETATM   26  C15 UNL     1      -4.316   8.081  10.644  1.00  0.00     0.238 C
BRANCH  26  27
HETATM   27  C16 UNL     1      -3.595   9.165  11.400  1.00  0.00     0.266 C
HETATM   28  O5  UNL     1      -3.719  10.346  11.151  1.00  0.00    -0.304 OA
ENDBRANCH  26  27
BRANCH  26  29
HETATM   29  C17 UNL     1      -4.510   8.460   9.228  1.00  0.00     0.251 C
HETATM   30  O6  UNL     1      -3.573   8.273   8.400  1.00  0.00    -0.270 OA
HETATM   31  N6  UNL     1      -5.708   9.032   8.737  1.00  0.00    -0.338 N
HETATM   32  C18 UNL     1      -6.870   8.559   8.966  1.00  0.00     0.068 C
ATOM     33  H6  UNL     1      -5.638   9.874   8.164  1.00  0.00     0.167 HD
BRANCH  32  34
HETATM   34  C19 UNL     1      -8.134   9.109   8.485  1.00  0.00     0.019 C
HETATM   35  C20 UNL     1      -9.290   8.138   8.598  1.00  0.00     0.015 C
BRANCH  34  36
HETATM   36  C21 UNL     1      -8.083   9.560   7.041  1.00  0.00     0.005 C
HETATM   37  C22 UNL     1      -9.382  10.297   6.758  1.00  0.00     0.006 C
ENDBRANCH  34  36
ENDBRANCH  32  34
ENDBRANCH  26  29
ENDBRANCH  24  26
ENDBRANCH   5  22
TORSDOF 14
ENDMDL