MODEL 2
REMARK VINA RESULT: -7.937936478      1.125      1.971
REMARK  15 active torsions:
REMARK  status: ('A' for Active; 'I' for Inactive)
REMARK    1  A    between atoms: C2_2  and  C3_4
REMARK    2  A    between atoms: C3_4  and  C4_5
REMARK    3  A    between atoms: C3_4  and  N1_9
REMARK    4  A    between atoms: C4_5  and  C5_6
REMARK       I    between atoms: N1_9  and  C6_11
REMARK    5  A    between atoms: C6_11  and  C7_13
REMARK    6  A    between atoms: C7_13  and  C8_14
REMARK    7  A    between atoms: C8_14  and  C9_15
REMARK       I    between atoms: C9_15  and  N2_17
REMARK    8  A    between atoms: C13_21  and  C14_22
REMARK    9  A    between atoms: C14_22  and  N3_23
REMARK   10  A    between atoms: C14_22  and  C21_33
REMARK   11  A    between atoms: N3_23  and  C15_25
REMARK   12  A    between atoms: C15_25  and  C20_30
REMARK   13  A    between atoms: C16_26  and  C17_27
REMARK   14  A    between atoms: C21_33  and  O7_34
REMARK   15  A    between atoms: C21_33  and  N5_36
ROOT
HETATM    1  C9  UNL     1      -4.704   5.802  12.571  1.00  0.00     0.220 C
HETATM    2  O5  UNL     1      -5.363   5.478  13.581  1.00  0.00    -0.273 OA
HETATM    3  N2  UNL     1      -3.813   4.989  11.940  1.00  0.00    -0.342 N
HETATM    4  C10 UNL     1      -2.945   5.438  10.818  1.00  0.00     0.127 C
HETATM    5  C11 UNL     1      -1.591   4.939  11.375  1.00  0.00     0.022 C
HETATM    6  C12 UNL     1      -1.961   3.819  12.363  1.00  0.00     0.033 C
HETATM    7  C13 UNL     1      -3.391   3.589  11.952  1.00  0.00     0.141 C
ENDROOT
BRANCH   7   8
HETATM    8  C14 UNL     1      -4.179   2.632  12.748  1.00  0.00     0.084 C
BRANCH   8   9
HETATM    9  N3  UNL     1      -3.994   2.521  14.100  1.00  0.00    -0.351 N
ATOM     10  H3  UNL     1      -3.082   2.814  14.453  1.00  0.00     0.166 HD
BRANCH   9  11
HETATM   11  C15 UNL     1      -4.921   2.046  15.076  1.00  0.00     0.094 C
HETATM   12  C16 UNL     1      -5.668   2.977  15.866  1.00  0.00     0.012 C
BRANCH  12  13
HETATM   13  C17 UNL     1      -6.577   2.591  16.998  1.00  0.00     0.002 C
HETATM   14  C18 UNL     1      -7.534   1.471  16.751  1.00  0.00     0.013 C
HETATM   15  C19 UNL     1      -7.255   3.778  17.665  1.00  0.00     0.013 C
ENDBRANCH  12  13
BRANCH  11  16
HETATM   16  C20 UNL     1      -4.365   0.869  15.754  1.00  0.00     0.281 C
HETATM   17  N4  UNL     1      -4.803  -0.457  15.594  1.00  0.00    -0.056 NA
HETATM   18  O6  UNL     1      -3.390   1.061  16.561  1.00  0.00    -0.269 OA
ENDBRANCH  11  16
ENDBRANCH   9  11
ENDBRANCH   8   9
BRANCH   8  19
HETATM   19  C21 UNL     1      -4.878   1.687  11.900  1.00  0.00     0.162 C
BRANCH  19  20
HETATM   20  O7  UNL     1      -5.952   2.167  11.320  1.00  0.00    -0.345 OA
ATOM     21  H7  UNL     1      -6.306   1.618  10.630  1.00  0.00     0.219 HD
ENDBRANCH  19  20
BRANCH  19  22
HETATM   22  N5  UNL     1      -4.635   0.347  11.575  1.00  0.00    -0.369 N
HETATM   23  C22 UNL     1      -4.041  -0.689  12.380  1.00  0.00     0.151 C
HETATM   24  C23 UNL     1      -5.028  -0.140  10.211  1.00  0.00     0.151 C
ENDBRANCH  19  22
ENDBRANCH   8  19
ENDBRANCH   7   8
BRANCH   1  25
HETATM   25  C8  UNL     1      -4.980   7.180  12.078  1.00  0.00     0.112 C
BRANCH  25  26
HETATM   26  C7  UNL     1      -6.458   7.537  12.103  1.00  0.00     0.112 C
BRANCH  26  27
HETATM   27  C6  UNL     1      -6.816   8.275  10.863  1.00  0.00     0.218 C
HETATM   28  N1  UNL     1      -7.558   7.643   9.837  1.00  0.00    -0.349 N
ATOM     29  H1  UNL     1      -7.850   6.673   9.958  1.00  0.00     0.163 HD
HETATM   30  O4  UNL     1      -6.443   9.482  10.762  1.00  0.00    -0.274 OA
BRANCH  28  31
HETATM   31  C3  UNL     1      -7.911   8.339   8.620  1.00  0.00     0.163 C
BRANCH  31  32
HETATM   32  C2  UNL     1      -7.065   7.849   7.551  1.00  0.00     0.146 C
HETATM   33  C1  UNL     1      -6.318   8.662   6.594  1.00  0.00     0.093 C
HETATM   34  O1  UNL     1      -6.953   6.608   7.415  1.00  0.00    -0.296 OA
ENDBRANCH  31  32
BRANCH  31  35
HETATM   35  C4  UNL     1      -9.356   8.368   8.293  1.00  0.00     0.146 C
BRANCH  35  36
HETATM   36  C5  UNL     1      -9.764   9.715   7.848  1.00  0.00     0.174 C
HETATM   37  O2  UNL     1     -10.885   9.994   7.391  1.00  0.00    -0.648 OA
HETATM   38  O3  UNL     1      -8.866  10.805   7.925  1.00  0.00    -0.648 OA
ENDBRANCH  35  36
ENDBRANCH  31  35
ENDBRANCH  28  31
ENDBRANCH  26  27
ENDBRANCH  25  26
ENDBRANCH   1  25
TORSDOF 15
ENDMDL