MODEL 5
REMARK VINA RESULT: -6.807232329      1.330      2.528
REMARK  15 active torsions:
REMARK  status: ('A' for Active; 'I' for Inactive)
REMARK       I    between atoms: C2_2  and  N1_4
REMARK    1  A    between atoms: N1_4  and  C3_6
REMARK    2  A    between atoms: C3_6  and  C4_7
REMARK    3  A    between atoms: C3_6  and  C7_10
REMARK    4  A    between atoms: C7_10  and  C8_11
REMARK    5  A    between atoms: C7_10  and  N4_30
REMARK    6  A    between atoms: C8_11  and  C9_12
REMARK       I    between atoms: C9_12  and  N2_14
REMARK    7  A    between atoms: N2_14  and  C10_16
REMARK    8  A    between atoms: C10_16  and  C11_17
REMARK    9  A    between atoms: C10_16  and  C15_21
REMARK   10  A    between atoms: C11_17  and  C12_18
REMARK       I    between atoms: C15_21  and  N3_23
REMARK   11  A    between atoms: C19_27  and  C20_28
REMARK   12  A    between atoms: N4_30  and  C21_32
REMARK   13  A    between atoms: C21_32  and  C22_33
REMARK   14  A    between atoms: C21_32  and  C23_35
REMARK   15  A    between atoms: C23_35  and  C24_36
ROOT
HETATM    1  C8  UNL     1      -4.706   5.361  14.056  1.00  0.00     0.105 C
ENDROOT
BRANCH   1   2
HETATM    2  C7  UNL     1      -4.141   6.027  12.836  1.00  0.00     0.057 C
BRANCH   2   3
HETATM    3  C3  UNL     1      -4.088   7.476  12.772  1.00  0.00     0.042 C
BRANCH   3   4
HETATM    4  N1  UNL     1      -2.866   8.071  13.217  1.00  0.00    -0.329 N
HETATM    5  C2  UNL     1      -2.288   8.269  14.460  1.00  0.00     0.217 C
HETATM    6  C1  UNL     1      -0.921   8.949  14.518  1.00  0.00     0.117 C
HETATM    7  O1  UNL     1      -2.750   7.959  15.566  1.00  0.00    -0.274 OA
ATOM      8  H1  UNL     1      -2.296   8.428  12.450  1.00  0.00     0.168 HD
ENDBRANCH   3   4
BRANCH   3   9
HETATM    9  C4  UNL     1      -4.683   8.097  11.533  1.00  0.00     0.030 C
HETATM   10  C5  UNL     1      -4.020   9.395  11.171  1.00  0.00     0.016 C
HETATM   11  C6  UNL     1      -6.143   8.236  11.457  1.00  0.00     0.016 C
ENDBRANCH   3   9
ENDBRANCH   2   3
BRANCH   2  12
HETATM   12  N4  UNL     1      -3.138   5.214  12.238  1.00  0.00    -0.377 N
ATOM     13  H4  UNL     1      -2.499   4.754  12.886  1.00  0.00     0.160 HD
BRANCH  12  14
HETATM   14  C21 UNL     1      -2.918   4.970  10.924  1.00  0.00     0.149 C
BRANCH  14  15
HETATM   15  C22 UNL     1      -3.898   4.921   9.861  1.00  0.00     0.256 C
HETATM   16  O5  UNL     1      -3.755   4.640   8.722  1.00  0.00    -0.305 OA
ENDBRANCH  14  15
BRANCH  14  17
HETATM   17  C23 UNL     1      -1.859   6.046  10.454  1.00  0.00     0.101 C
BRANCH  17  18
HETATM   18  C24 UNL     1      -0.616   5.697  11.182  1.00  0.00     0.233 C
HETATM   19  O6  UNL     1      -0.444   6.139  12.322  1.00  0.00    -0.307 OA
ENDBRANCH  17  18
ENDBRANCH  14  17
ENDBRANCH  12  14
ENDBRANCH   2  12
ENDBRANCH   1   2
BRANCH   1  20
HETATM   20  C9  UNL     1      -4.125   4.212  14.668  1.00  0.00     0.244 C
HETATM   21  O2  UNL     1      -2.925   4.043  14.939  1.00  0.00    -0.269 OA
HETATM   22  N2  UNL     1      -4.979   3.113  15.024  1.00  0.00    -0.344 N
ATOM     23  H2  UNL     1      -5.976   3.200  14.824  1.00  0.00     0.163 HD
BRANCH  22  24
HETATM   24  C10 UNL     1      -4.521   1.895  15.643  1.00  0.00     0.177 C
BRANCH  24  25
HETATM   25  C11 UNL     1      -5.227   1.636  16.955  1.00  0.00     0.038 C
BRANCH  25  26
HETATM   26  C12 UNL     1      -6.642   2.227  16.769  1.00  0.00    -0.020 C
HETATM   27  C13 UNL     1      -6.840   3.286  17.844  1.00  0.00     0.009 C
HETATM   28  C14 UNL     1      -7.605   1.100  17.100  1.00  0.00     0.009 C
ENDBRANCH  25  26
ENDBRANCH  24  25
BRANCH  24  29
HETATM   29  C15 UNL     1      -4.496   0.766  14.713  1.00  0.00     0.243 C
HETATM   30  O3  UNL     1      -4.847  -0.369  15.213  1.00  0.00    -0.271 OA
HETATM   31  N3  UNL     1      -4.149   0.746  13.360  1.00  0.00    -0.339 N
HETATM   32  C16 UNL     1      -4.135  -0.456  12.498  1.00  0.00     0.127 C
HETATM   33  C19 UNL     1      -3.749   1.781  12.431  1.00  0.00     0.148 C
HETATM   34  C17 UNL     1      -4.970   0.044  11.333  1.00  0.00     0.022 C
HETATM   35  C18 UNL     1      -4.509   1.452  11.136  1.00  0.00     0.034 C
BRANCH  33  36
HETATM   36  C20 UNL     1      -2.316   1.602  12.097  1.00  0.00     0.256 C
HETATM   37  O4  UNL     1      -1.471   2.466  12.241  1.00  0.00    -0.305 OA
ENDBRANCH  33  36
ENDBRANCH  24  29
ENDBRANCH  22  24
ENDBRANCH   1  20
TORSDOF 15
ENDMDL