MODEL 3
REMARK VINA RESULT: -7.195903588      2.161      6.863
REMARK  13 active torsions:
REMARK  status: ('A' for Active; 'I' for Inactive)
REMARK    1  A    between atoms: C2_2  and  C4_4
REMARK    2  A    between atoms: C4_4  and  C5_5
REMARK    3  A    between atoms: C5_5  and  N1_6
REMARK    4  A    between atoms: C5_5  and  C13_19
REMARK       I    between atoms: N1_6  and  C6_8
REMARK    5  A    between atoms: C6_8  and  C7_10
REMARK    6  A    between atoms: C7_10  and  N2_12
REMARK       I    between atoms: N2_12  and  C9_14
REMARK    7  A    between atoms: C9_14  and  C10_16
REMARK       I    between atoms: C13_19  and  N3_21
REMARK    8  A    between atoms: C17_25  and  C18_26
REMARK       I    between atoms: C18_26  and  N4_28
REMARK    9  A    between atoms: N4_28  and  C19_30
REMARK   10  A    between atoms: C19_30  and  C20_31
REMARK   11  A    between atoms: C19_30  and  C21_33
REMARK   12  A    between atoms: C21_33  and  C22_34
REMARK   13  A    between atoms: C22_34  and  C23_35
ROOT
HETATM    1  C13 UNL     1      -0.988   6.321  11.456  1.00  0.00     0.243 C
HETATM    2  O3  UNL     1       0.300   6.166  11.437  1.00  0.00    -0.271 OA
HETATM    3  N3  UNL     1      -1.690   5.579  10.471  1.00  0.00    -0.337 N
HETATM    4  C14 UNL     1      -0.951   4.706   9.520  1.00  0.00     0.127 C
HETATM    5  C15 UNL     1      -1.699   4.852   8.220  1.00  0.00     0.022 C
HETATM    6  C16 UNL     1      -3.137   4.927   8.689  1.00  0.00     0.037 C
HETATM    7  C17 UNL     1      -3.065   5.437  10.128  1.00  0.00     0.179 C
ENDROOT
BRANCH   1   8
HETATM    8  C5  UNL     1      -1.562   7.221  12.467  1.00  0.00     0.177 C
BRANCH   8   9
HETATM    9  C4  UNL     1      -2.016   6.605  13.730  1.00  0.00     0.038 C
BRANCH   9  10
HETATM   10  C2  UNL     1      -3.076   7.243  14.533  1.00  0.00    -0.020 C
HETATM   11  C1  UNL     1      -2.660   8.059  15.714  1.00  0.00     0.009 C
HETATM   12  C3  UNL     1      -4.001   6.131  15.076  1.00  0.00     0.009 C
ENDBRANCH   9  10
ENDBRANCH   8   9
BRANCH   8  13
HETATM   13  N1  UNL     1      -2.684   7.905  11.830  1.00  0.00    -0.346 N
HETATM   14  C6  UNL     1      -2.533   9.136  11.128  1.00  0.00     0.240 C
HETATM   15  O1  UNL     1      -1.402   9.665  11.045  1.00  0.00    -0.271 OA
ATOM     16  H1  UNL     1      -3.612   7.485  11.890  1.00  0.00     0.163 HD
BRANCH  14  17
HETATM   17  C7  UNL     1      -3.700   9.771  10.510  1.00  0.00     0.172 C
HETATM   18  C8  UNL     1      -3.863  11.197  11.045  1.00  0.00     0.042 C
BRANCH  17  19
HETATM   19  N2  UNL     1      -4.918   9.055  10.906  1.00  0.00    -0.348 N
HETATM   20  C9  UNL     1      -5.656   8.295   9.954  1.00  0.00     0.221 C
HETATM   21  O2  UNL     1      -5.290   8.214   8.747  1.00  0.00    -0.273 OA
ATOM     22  H2  UNL     1      -5.239   9.102  11.873  1.00  0.00     0.163 HD
BRANCH  20  23
HETATM   23  C10 UNL     1      -6.881   7.587  10.393  1.00  0.00     0.070 C
HETATM   24  C11 UNL     1      -7.204   7.981  11.799  1.00  0.00     0.019 C
HETATM   25  C12 UNL     1      -8.058   7.920   9.487  1.00  0.00     0.019 C
ENDBRANCH  20  23
ENDBRANCH  17  19
ENDBRANCH  14  17
ENDBRANCH   8  13
ENDBRANCH   1   8
BRANCH   7  26
HETATM   26  C18 UNL     1      -3.846   4.564  11.030  1.00  0.00     0.241 C
HETATM   27  O4  UNL     1      -4.654   5.113  11.856  1.00  0.00    -0.271 OA
HETATM   28  N4  UNL     1      -3.783   3.153  11.068  1.00  0.00    -0.348 N
ATOM     29  H4  UNL     1      -3.146   2.679  10.428  1.00  0.00     0.163 HD
BRANCH  28  30
HETATM   30  C19 UNL     1      -4.576   2.349  11.970  1.00  0.00     0.146 C
BRANCH  30  31
HETATM   31  C20 UNL     1      -4.963   1.092  11.314  1.00  0.00     0.256 C
HETATM   32  O5  UNL     1      -4.724   0.938  10.113  1.00  0.00    -0.305 OA
ENDBRANCH  30  31
BRANCH  30  33
HETATM   33  C21 UNL     1      -3.912   2.049  13.279  1.00  0.00     0.041 C
BRANCH  33  34
HETATM   34  C22 UNL     1      -4.845   2.028  14.458  1.00  0.00     0.102 C
BRANCH  34  35
HETATM   35  C23 UNL     1      -4.497   0.831  15.302  1.00  0.00     0.231 C
HETATM   36  N5  UNL     1      -3.740   0.985  16.495  1.00  0.00    -0.062 NA
HETATM   37  O6  UNL     1      -4.868  -0.333  14.971  1.00  0.00    -0.277 OA
ENDBRANCH  34  35
ENDBRANCH  33  34
ENDBRANCH  30  33
ENDBRANCH  28  30
ENDBRANCH   7  26
TORSDOF 13
ENDMDL