MODEL 4
REMARK VINA RESULT: -5.319254267      2.035      3.103
REMARK  7 active torsions:
REMARK  status: ('A' for Active; 'I' for Inactive)
REMARK    1  A    between atoms: N1_1  and  C1_5
REMARK    2  A    between atoms: C1_5  and  C2_6
REMARK    3  A    between atoms: C2_6  and  C3_7
REMARK    4  A    between atoms: C3_7  and  C4_8
REMARK    5  A    between atoms: C4_8  and  N2_9
REMARK    6  A    between atoms: N2_9  and  C5_11
REMARK    7  A    between atoms: C7_13  and  N3_14
ROOT
HETATM    1  C5  UNL     1      -3.535  30.531  -4.466  1.00  0.00     0.087 C
HETATM    2  C6  UNL     1      -3.523  31.722  -5.446  1.00  0.00     0.058 C
HETATM    3  C7  UNL     1      -4.650  32.620  -4.914  1.00  0.00     0.185 C
HETATM    4  C8  UNL     1      -4.185  33.135  -3.577  1.00  0.00     0.037 C
HETATM    5  C9  UNL     1      -3.903  32.030  -2.621  1.00  0.00    -0.006 C
HETATM    6  C10 UNL     1      -3.533  32.521  -1.245  1.00  0.00     0.005 C
HETATM    7  C11 UNL     1      -2.064  32.585  -0.999  1.00  0.00     0.000 C
HETATM    8  C12 UNL     1      -1.233  32.572  -2.261  1.00  0.00     0.000 C
HETATM    9  C13 UNL     1      -1.550  31.396  -3.139  1.00  0.00     0.007 C
HETATM   10  C14 UNL     1      -2.967  30.964  -3.145  1.00  0.00     0.012 C
ENDROOT
BRANCH   1  11
HETATM   11  N2  UNL     1      -3.062  29.348  -5.049  1.00  0.00    -0.397 N
ATOM     12  H2  UNL     1      -3.617  28.497  -4.959  1.00  0.00     0.159 HD
BRANCH  11  13
HETATM   13  C4  UNL     1      -1.850  29.297  -5.751  1.00  0.00     0.056 C
BRANCH  13  14
HETATM   14  C3  UNL     1      -2.070  28.940  -7.220  1.00  0.00     0.046 C
BRANCH  14  15
HETATM   15  C2  UNL     1      -0.968  29.352  -8.130  1.00  0.00     0.032 C
BRANCH  15  16
HETATM   16  C1  UNL     1      -1.321  30.779  -8.585  1.00  0.00     0.230 C
BRANCH  16  17
HETATM   17  N1  UNL     1      -2.729  30.865  -8.911  1.00  0.00    -0.079 N
ATOM     18  H13 UNL     1      -2.916  31.592  -9.603  1.00  0.00     0.274 HD
ATOM     19  H12 UNL     1      -3.045  30.059  -9.451  1.00  0.00     0.274 HD
ATOM     20  H11 UNL     1      -3.279  30.995  -8.062  1.00  0.00     0.274 HD
ENDBRANCH  16  17
ENDBRANCH  15  16
ENDBRANCH  14  15
ENDBRANCH  13  14
ENDBRANCH  11  13
ENDBRANCH   1  11
BRANCH   3  21
HETATM   21  N3  UNL     1      -4.975  33.679  -5.815  1.00  0.00    -0.075 N
ATOM     22  H33 UNL     1      -4.414  33.624  -6.665  1.00  0.00     0.274 HD
ATOM     23  H32 UNL     1      -5.901  33.544  -6.221  1.00  0.00     0.274 HD
ATOM     24  H31 UNL     1      -4.896  34.599  -5.381  1.00  0.00     0.274 HD
ENDBRANCH   3  21
TORSDOF 7
ENDMDL