MODEL 2
REMARK VINA RESULT: -5.648629832      1.292      1.297
REMARK  6 active torsions:
REMARK  status: ('A' for Active; 'I' for Inactive)
REMARK    1  A    between atoms: C2_2  and  C3_3
REMARK    2  A    between atoms: C3_3  and  C4_4
REMARK    3  A    between atoms: C4_4  and  C5_5
REMARK    4  A    between atoms: C5_5  and  S1_6
REMARK    5  A    between atoms: S1_6  and  C6_7
REMARK    6  A    between atoms: C12_15  and  O1_16
ROOT
HETATM    1  C6  UNL     1      -2.510  30.349  -7.232  1.00  0.00     0.088 C
HETATM    2  C7  UNL     1      -2.508  31.711  -6.773  1.00  0.00     0.038 C
HETATM    3  C8  UNL     1      -3.632  32.261  -5.894  1.00  0.00     0.115 C
HETATM    4  N1  UNL     1      -3.438  32.066  -4.501  1.00  0.00    -0.420 N
ATOM      5  H1  UNL     1      -2.758  32.672  -4.041  1.00  0.00     0.153 HD
HETATM    6  C9  UNL     1      -4.088  31.127  -3.704  1.00  0.00     0.125 C
HETATM    7  C10 UNL     1      -3.411  29.697  -3.715  1.00  0.00     0.102 C
HETATM    8  C11 UNL     1      -2.909  29.601  -5.029  1.00  0.00    -0.149 C
HETATM    9  C12 UNL     1      -2.278  29.196  -6.197  1.00  0.00     0.198 C
ENDROOT
BRANCH   1  10
HETATM   10  S1  UNL     1      -1.290  30.042  -8.502  1.00  0.00    -0.161 SA
BRANCH  10  11
HETATM   11  C5  UNL     1      -1.031  31.279  -9.717  1.00  0.00     0.074 C
BRANCH  11  12
HETATM   12  C4  UNL     1      -1.880  31.237 -10.938  1.00  0.00     0.010 C
BRANCH  12  13
HETATM   13  C3  UNL     1      -3.343  31.267 -10.815  1.00  0.00     0.000 C
BRANCH  13  14
HETATM   14  C2  UNL     1      -3.980  30.522 -11.974  1.00  0.00    -0.005 C
HETATM   15  C1  UNL     1      -3.187  29.374 -12.501  1.00  0.00     0.005 C
ENDBRANCH  13  14
ENDBRANCH  12  13
ENDBRANCH  11  12
ENDBRANCH  10  11
ENDBRANCH   1  10
BRANCH   9  16
HETATM   16  O1  UNL     1      -0.925  28.891  -6.112  1.00  0.00    -0.383 OA
ATOM     17  H1  UNL     1      -0.770  28.278  -5.403  1.00  0.00     0.211 HD
ENDBRANCH   9  16
TORSDOF 6
ENDMDL