MODEL 1
REMARK VINA RESULT: -6.317064621      0.000      0.000
REMARK  5 active torsions:
REMARK  status: ('A' for Active; 'I' for Inactive)
REMARK    1  A    between atoms: C2_2  and  N1_3
REMARK    2  A    between atoms: N1_3  and  C3_6
REMARK    3  A    between atoms: C3_6  and  C4_7
REMARK    4  A    between atoms: C6_13  and  C7_14
REMARK    5  A    between atoms: C12_19  and  O1_20
ROOT
HETATM    1  C4  UNL     1      -2.605  29.953  -5.903  1.00  0.00     0.071 A
HETATM    2  N2  UNL     1      -2.428  29.089  -6.913  1.00  0.00    -0.341 N
ATOM      3  H2  UNL     1      -2.495  28.075  -6.820  1.00  0.00     0.167 HD
HETATM    4  C5  UNL     1      -2.152  29.729  -8.068  1.00  0.00     0.119 A
HETATM    5  N3  UNL     1      -1.876  29.594  -9.384  1.00  0.00    -0.345 N
ATOM      6  H3  UNL     1      -1.813  28.697  -9.867  1.00  0.00     0.167 HD
HETATM    7  C6  UNL     1      -1.695  30.783  -9.977  1.00  0.00     0.016 A
HETATM    8  C10 UNL     1      -1.864  31.727  -8.988  1.00  0.00     0.043 A
HETATM    9  C11 UNL     1      -2.148  31.080  -7.796  1.00  0.00     0.045 A
HETATM   10  C12 UNL     1      -2.431  31.203  -6.450  1.00  0.00     0.106 A
ENDROOT
BRANCH   1  11
HETATM   11  C3  UNL     1      -2.927  29.627  -4.465  1.00  0.00     0.292 C
BRANCH  11  12
HETATM   12  N1  UNL     1      -4.193  30.170  -4.079  1.00  0.00    -0.070 N
ATOM     13  H12 UNL     1      -4.917  29.459  -3.981  1.00  0.00     0.277 HD
ATOM     14  H11 UNL     1      -4.637  30.710  -4.822  1.00  0.00     0.277 HD
BRANCH  12  15
HETATM   15  C2  UNL     1      -3.987  30.940  -2.866  1.00  0.00     0.228 C
HETATM   16  C1  UNL     1      -2.534  31.248  -2.615  1.00  0.00     0.034 C
ENDBRANCH  12  15
ENDBRANCH  11  12
ENDBRANCH   1  11
BRANCH  10  17
HETATM   17  O1  UNL     1      -2.524  32.407  -5.765  1.00  0.00    -0.353 OA
HETATM   18  C13 UNL     1      -3.734  33.141  -5.938  1.00  0.00     0.210 C
ENDBRANCH  10  17
BRANCH   7  19
HETATM   19  C7  UNL     1      -1.373  31.032 -11.430  1.00  0.00     0.036 A
HETATM   20  C8  UNL     1      -0.586  30.024 -12.172  1.00  0.00     0.011 A
HETATM   21  C9  UNL     1      -2.068  30.154 -12.389  1.00  0.00     0.011 A
ENDBRANCH   7  19
TORSDOF 5
ENDMDL