MODEL 3
REMARK VINA RESULT: -6.467930287      1.201      1.945
REMARK  5 active torsions:
REMARK  status: ('A' for Active; 'I' for Inactive)
REMARK    1  A    between atoms: C2_2  and  C3_3
REMARK    2  A    between atoms: C3_3  and  N1_4
REMARK    3  A    between atoms: N1_4  and  O1_5
REMARK    4  A    between atoms: O1_5  and  C4_6
REMARK    5  A    between atoms: C4_6  and  C5_7
ROOT
HETATM    1  C5  UNL     1      -2.109  30.525  -5.877  1.00  0.00     0.025 C
HETATM    2  C6  UNL     1      -0.959  30.626  -4.875  1.00  0.00     0.051 C
HETATM    3  C7  UNL     1      -1.504  31.233  -3.622  1.00  0.00     0.188 C
HETATM    4  C8  UNL     1      -2.172  32.564  -3.831  1.00  0.00     0.043 C
HETATM    5  C9  UNL     1      -3.345  32.448  -4.799  1.00  0.00     0.035 C
HETATM    6  C10 UNL     1      -4.320  31.464  -4.163  1.00  0.00     0.043 C
HETATM    7  C11 UNL     1      -3.586  30.158  -3.952  1.00  0.00     0.188 C
HETATM    8  C12 UNL     1      -3.119  29.578  -5.264  1.00  0.00     0.051 C
HETATM    9  N2  UNL     1      -2.481  30.323  -3.058  1.00  0.00    -0.067 N
ATOM     10  H21 UNL     1      -2.783  30.618  -2.130  1.00  0.00     0.278 HD
ATOM     11  H22 UNL     1      -2.062  29.427  -2.804  1.00  0.00     0.278 HD
HETATM   12  C13 UNL     1      -2.770  31.833  -6.050  1.00  0.00    -0.005 C
HETATM   13  N3  UNL     1      -2.880  32.451  -7.142  1.00  0.00    -0.405 N
ATOM     14  H31 UNL     1      -3.337  33.355  -7.262  1.00  0.00     0.155 HD
ATOM     15  H32 UNL     1      -2.491  32.035  -7.989  1.00  0.00     0.155 HD
ENDROOT
BRANCH   1  16
HETATM   16  C4  UNL     1      -1.598  30.044  -7.199  1.00  0.00     0.211 C
BRANCH  16  17
HETATM   17  O1  UNL     1      -0.414  30.657  -7.578  1.00  0.00    -0.285 OA
BRANCH  17  18
HETATM   18  N1  UNL     1      -0.486  31.274  -8.751  1.00  0.00    -0.098 NA
BRANCH  18  19
HETATM   19  C3  UNL     1      -1.269  30.557  -9.735  1.00  0.00     0.169 C
BRANCH  19  20
HETATM   20  C2  UNL     1      -2.000  31.512 -10.627  1.00  0.00    -0.019 C
HETATM   21  C1  UNL     1      -3.265  31.279 -10.937  1.00  0.00     0.008 C
ENDBRANCH  19  20
ENDBRANCH  18  19
ENDBRANCH  17  18
ENDBRANCH  16  17
ENDBRANCH   1  16
TORSDOF 5
ENDMDL