MODEL 3
REMARK VINA RESULT: -6.223727544      5.512      8.047
REMARK  8 active torsions:
REMARK  status: ('A' for Active; 'I' for Inactive)
REMARK    1  A    between atoms: N1_1  and  C1_5
REMARK    2  A    between atoms: C1_5  and  C2_6
REMARK    3  A    between atoms: C1_5  and  C3_9
REMARK    4  A    between atoms: C1_5  and  C4_12
REMARK    5  A    between atoms: C2_6  and  O1_7
REMARK    6  A    between atoms: C3_9  and  O2_10
REMARK    7  A    between atoms: C4_12  and  C5_13
REMARK    8  A    between atoms: C5_13  and  C6_14
ROOT
HETATM    1  C1  UNL     1      -2.673  30.085  -5.088  1.00  0.00     0.165 C
ENDROOT
BRANCH   1   2
HETATM    2  N1  UNL     1      -2.831  29.532  -6.422  1.00  0.00    -0.066 N
ATOM      3  H13 UNL     1      -2.546  30.182  -7.154  1.00  0.00     0.275 HD
ATOM      4  H12 UNL     1      -2.157  28.794  -6.625  1.00  0.00     0.275 HD
ATOM      5  H11 UNL     1      -3.797  29.223  -6.523  1.00  0.00     0.275 HD
ENDBRANCH   1   2
BRANCH   1   6
HETATM    6  C2  UNL     1      -1.329  29.645  -4.556  1.00  0.00     0.205 C
BRANCH   6   7
HETATM    7  O1  UNL     1      -1.432  28.273  -4.250  1.00  0.00    -0.398 OA
ATOM      8  H1  UNL     1      -1.451  28.198  -3.303  1.00  0.00     0.209 HD
ENDBRANCH   6   7
ENDBRANCH   1   6
BRANCH   1   9
HETATM    9  C3  UNL     1      -3.800  29.498  -4.249  1.00  0.00     0.205 C
BRANCH   9  10
HETATM   10  O2  UNL     1      -4.304  28.364  -4.884  1.00  0.00    -0.398 OA
ATOM     11  H2  UNL     1      -5.017  28.007  -4.368  1.00  0.00     0.209 HD
ENDBRANCH   9  10
ENDBRANCH   1   9
BRANCH   1  12
HETATM   12  C4  UNL     1      -2.756  31.569  -5.099  1.00  0.00     0.043 C
BRANCH  12  13
HETATM   13  C5  UNL     1      -4.163  32.047  -5.214  1.00  0.00     0.007 C
BRANCH  13  14
HETATM   14  C6  UNL     1      -4.424  33.241  -4.271  1.00  0.00    -0.014 C
HETATM   15  C7  UNL     1      -3.780  32.924  -2.976  1.00  0.00     0.004 C
HETATM   16  C8  UNL     1      -4.332  33.533  -1.765  1.00  0.00     0.000 C
HETATM   17  C9  UNL     1      -5.076  34.832  -1.952  1.00  0.00     0.000 C
HETATM   18  C10 UNL     1      -4.189  36.027  -1.997  1.00  0.00     0.000 C
HETATM   19  C11 UNL     1      -4.231  36.861  -3.201  1.00  0.00     0.000 C
HETATM   20  C12 UNL     1      -5.204  36.527  -4.265  1.00  0.00     0.000 C
HETATM   21  C13 UNL     1      -4.767  35.516  -5.272  1.00  0.00     0.000 C
HETATM   22  C14 UNL     1      -3.795  34.501  -4.824  1.00  0.00     0.004 C
ENDBRANCH  13  14
ENDBRANCH  12  13
ENDBRANCH   1  12
TORSDOF 8
ENDMDL