MODEL 2
REMARK VINA RESULT: -6.339337286      1.432      2.083
REMARK  5 active torsions:
REMARK  status: ('A' for Active; 'I' for Inactive)
REMARK    1  A    between atoms: C2_2  and  O1_3
REMARK    2  A    between atoms: O1_3  and  C3_4
REMARK    3  A    between atoms: C3_4  and  C4_5
REMARK    4  A    between atoms: C4_5  and  C5_6
REMARK    5  A    between atoms: C5_6  and  C6_7
ROOT
HETATM    1  C6  UNL     1      -1.851  29.937  -5.980  1.00  0.00    -0.033 A
HETATM    2  C7  UNL     1      -2.798  28.954  -6.143  1.00  0.00     0.097 A
HETATM    3  N1  UNL     1      -3.818  29.149  -5.288  1.00  0.00    -0.351 N
ATOM      4  H1  UNL     1      -4.650  28.566  -5.200  1.00  0.00     0.166 HD
HETATM    5  C8  UNL     1      -3.540  30.258  -4.564  1.00  0.00     0.113 A
HETATM    6  C9  UNL     1      -2.318  30.760  -4.983  1.00  0.00    -0.006 A
HETATM    7  C10 UNL     1      -1.644  31.969  -4.441  1.00  0.00     0.049 C
HETATM    8  C11 UNL     1      -1.583  31.944  -2.926  1.00  0.00     0.076 C
HETATM    9  C12 UNL     1      -2.881  32.273  -2.299  1.00  0.00     0.122 A
HETATM   10  O2  UNL     1      -3.496  33.002  -1.399  1.00  0.00    -0.237 OA
HETATM   11  N2  UNL     1      -4.704  32.539  -1.624  1.00  0.00    -0.242 N
ATOM     12  H2  UNL     1      -5.639  32.701  -1.251  1.00  0.00     0.196 HD
HETATM   13  C13 UNL     1      -4.161  31.764  -2.555  1.00  0.00     0.159 A
HETATM   14  N3  UNL     1      -4.419  30.770  -3.543  1.00  0.00    -0.325 N
ATOM     15  H3  UNL     1      -5.356  30.366  -3.525  1.00  0.00     0.169 HD
ENDROOT
BRANCH   1  16
HETATM   16  C5  UNL     1      -0.593  30.091  -6.721  1.00  0.00     0.043 C
BRANCH  16  17
HETATM   17  C4  UNL     1      -0.785  29.393  -8.072  1.00  0.00     0.031 C
BRANCH  17  18
HETATM   18  C3  UNL     1      -1.130  30.460  -9.124  1.00  0.00     0.167 C
BRANCH  18  19
HETATM   19  O1  UNL     1      -0.741  29.943 -10.325  1.00  0.00    -0.391 OA
BRANCH  19  20
HETATM   20  C2  UNL     1      -1.183  30.563 -11.456  1.00  0.00     0.163 C
HETATM   21  C1  UNL     1      -2.653  30.623 -11.632  1.00  0.00     0.033 C
ENDBRANCH  19  20
ENDBRANCH  18  19
ENDBRANCH  17  18
ENDBRANCH  16  17
ENDBRANCH   1  16
TORSDOF 5
ENDMDL