MODEL 1
REMARK VINA RESULT: -6.992316322      0.000      0.000
REMARK  8 active torsions:
REMARK  status: ('A' for Active; 'I' for Inactive)
REMARK    1  A    between atoms: C5_5  and  C6_6
REMARK    2  A    between atoms: C6_6  and  C7_7
REMARK    3  A    between atoms: C7_7  and  C8_8
REMARK    4  A    between atoms: C8_8  and  C9_9
REMARK    5  A    between atoms: C9_9  and  O1_11
REMARK    6  A    between atoms: C9_9  and  C11_13
REMARK    7  A    between atoms: C11_13  and  O2_14
REMARK    8  A    between atoms: C13_17  and  O3_19
ROOT
HETATM    1  C1  UNL     1      -1.971  29.637 -13.169  1.00  0.00     0.017 C
HETATM    2  C2  UNL     1      -1.972  30.184 -11.963  1.00  0.00    -0.056 C
HETATM    3  C3  UNL     1      -0.762  30.760 -11.340  1.00  0.00     0.037 C
HETATM    4  C4  UNL     1      -0.969  30.716  -9.822  1.00  0.00     0.009 C
HETATM    5  C5  UNL     1      -2.124  31.606  -9.449  1.00  0.00    -0.011 C
HETATM    6  C12 UNL     1      -3.372  31.308 -10.221  1.00  0.00     0.046 C
HETATM    7  C13 UNL     1      -3.248  30.211 -11.220  1.00  0.00     0.077 C
HETATM    8  C14 UNL     1      -3.540  28.866 -10.571  1.00  0.00     0.051 C
ENDROOT
BRANCH   5   9
HETATM    9  C6  UNL     1      -2.420  31.469  -7.981  1.00  0.00     0.005 C
BRANCH   9  10
HETATM   10  C7  UNL     1      -1.533  30.448  -7.292  1.00  0.00     0.003 C
BRANCH  10  11
HETATM   11  C8  UNL     1      -2.308  29.353  -6.651  1.00  0.00     0.040 C
BRANCH  11  12
HETATM   12  C9  UNL     1      -2.157  29.386  -5.151  1.00  0.00     0.075 C
HETATM   13  C10 UNL     1      -1.269  30.551  -4.725  1.00  0.00     0.048 C
BRANCH  12  14
HETATM   14  O1  UNL     1      -1.501  28.243  -4.664  1.00  0.00    -0.388 OA
ATOM     15  H1  UNL     1      -0.958  28.439  -3.910  1.00  0.00     0.210 HD
ENDBRANCH  12  14
BRANCH  12  16
HETATM   16  C11 UNL     1      -3.512  29.475  -4.523  1.00  0.00     0.201 C
BRANCH  16  17
HETATM   17  O2  UNL     1      -4.323  28.387  -4.856  1.00  0.00    -0.398 OA
ATOM     18  H2  UNL     1      -4.668  27.946  -4.089  1.00  0.00     0.209 HD
ENDBRANCH  16  17
ENDBRANCH  12  16
ENDBRANCH  11  12
ENDBRANCH  10  11
ENDBRANCH   9  10
ENDBRANCH   5   9
BRANCH   7  19
HETATM   19  O3  UNL     1      -4.272  30.406 -12.177  1.00  0.00    -0.386 OA
ATOM     20  H3  UNL     1      -5.098  30.310 -11.717  1.00  0.00     0.211 HD
ENDBRANCH   7  19
TORSDOF 8
ENDMDL