MODEL 5
REMARK VINA RESULT: -6.515004962      1.538      1.710
REMARK  7 active torsions:
REMARK  status: ('A' for Active; 'I' for Inactive)
REMARK    1  A    between atoms: O1_1  and  C1_3
REMARK    2  A    between atoms: C1_3  and  C2_4
REMARK    3  A    between atoms: C2_4  and  C3_5
REMARK    4  A    between atoms: C3_5  and  C4_6
REMARK    5  A    between atoms: C4_6  and  N1_7
REMARK    6  A    between atoms: N1_7  and  C5_9
REMARK    7  A    between atoms: N2_10  and  N3_12
ROOT
HETATM    1  C5  UNL     1      -1.247  30.983  -8.549  1.00  0.00     0.196 C
HETATM    2  N2  UNL     1      -2.235  31.533  -8.082  1.00  0.00    -0.295 N
ATOM      3  H2  UNL     1      -3.029  31.542  -8.722  1.00  0.00     0.187 HD
ENDROOT
BRANCH   2   4
HETATM    4  N3  UNL     1      -2.492  32.114  -6.932  1.00  0.00    -0.288 N
HETATM    5  C6  UNL     1      -3.002  31.776  -5.839  1.00  0.00     0.091 C
HETATM    6  C7  UNL     1      -3.012  32.919  -4.887  1.00  0.00     0.077 C
HETATM    7  N4  UNL     1      -3.457  30.446  -5.716  1.00  0.00    -0.379 N
HETATM    8  C8  UNL     1      -1.947  32.776  -3.827  1.00  0.00     0.007 C
HETATM    9  C9  UNL     1      -2.471  32.134  -2.570  1.00  0.00     0.000 C
HETATM   10  C10 UNL     1      -3.353  30.946  -2.811  1.00  0.00     0.002 C
HETATM   11  C11 UNL     1      -2.647  29.815  -3.485  1.00  0.00     0.020 C
HETATM   12  C12 UNL     1      -3.419  29.424  -4.726  1.00  0.00     0.121 C
ATOM     13  H4  UNL     1      -3.941  30.135  -6.558  1.00  0.00     0.160 HD
ATOM     14  H3  UNL     1      -2.202  33.092  -6.928  1.00  0.00     0.188 HD
ENDBRANCH   2   4
BRANCH   1  15
HETATM   15  N1  UNL     1      -1.109  30.394  -9.820  1.00  0.00    -0.365 N
ATOM     16  H1  UNL     1      -1.140  29.375  -9.807  1.00  0.00     0.165 HD
BRANCH  15  17
HETATM   17  C4  UNL     1      -0.939  30.938 -11.094  1.00  0.00     0.062 C
BRANCH  17  18
HETATM   18  C3  UNL     1      -1.627  30.425 -12.288  1.00  0.00     0.046 C
BRANCH  18  19
HETATM   19  C2  UNL     1      -2.924  29.756 -12.144  1.00  0.00     0.031 C
BRANCH  19  20
HETATM   20  C1  UNL     1      -3.951  30.814 -11.660  1.00  0.00     0.164 C
BRANCH  20  21
HETATM   21  O1  UNL     1      -4.245  30.502 -10.356  1.00  0.00    -0.401 OA
ATOM     22  H1  UNL     1      -3.853  31.182  -9.822  1.00  0.00     0.209 HD
ENDBRANCH  20  21
ENDBRANCH  19  20
ENDBRANCH  18  19
ENDBRANCH  17  18
ENDBRANCH  15  17
ENDBRANCH   1  15
TORSDOF 7
ENDMDL