MODEL 4
REMARK VINA RESULT: -6.906426410      1.152      1.930
REMARK  5 active torsions:
REMARK  status: ('A' for Active; 'I' for Inactive)
REMARK    1  A    between atoms: C5_5  and  C6_6
REMARK    2  A    between atoms: C6_6  and  C7_7
REMARK    3  A    between atoms: C7_7  and  C8_8
REMARK    4  A    between atoms: C8_8  and  N1_9
REMARK    5  A    between atoms: N1_9  and  C9_11
ROOT
HETATM    1  N1  UNL     1      -3.487  29.502  -5.385  1.00  0.00    -0.375 N
ATOM      2  H1  UNL     1      -4.337  29.005  -5.656  1.00  0.00     0.160 HD
ENDROOT
BRANCH   1   3
HETATM    3  C8  UNL     1      -2.233  29.024  -5.813  1.00  0.00     0.057 C
BRANCH   3   4
HETATM    4  C7  UNL     1      -1.980  28.925  -7.269  1.00  0.00     0.044 C
BRANCH   4   5
HETATM    5  C6  UNL     1      -1.238  30.128  -7.765  1.00  0.00     0.009 C
BRANCH   5   6
HETATM    6  C5  UNL     1      -1.991  30.852  -8.855  1.00  0.00    -0.014 C
HETATM    7  C4  UNL     1      -2.755  29.793  -9.619  1.00  0.00     0.004 C
HETATM    8  C3  UNL     1      -3.553  30.353 -10.764  1.00  0.00     0.000 C
HETATM    9  C2  UNL     1      -2.855  30.177 -12.102  1.00  0.00     0.000 C
HETATM   10  C1  UNL     1      -1.372  30.437 -11.864  1.00  0.00     0.000 C
HETATM   11  C14 UNL     1      -1.303  31.748 -11.111  1.00  0.00     0.000 C
HETATM   12  C13 UNL     1      -0.985  31.580  -9.669  1.00  0.00     0.004 C
ENDBRANCH   5   6
ENDBRANCH   4   5
ENDBRANCH   3   4
ENDBRANCH   1   3
BRANCH   1  13
HETATM   13  C9  UNL     1      -3.579  30.657  -4.589  1.00  0.00     0.287 C
HETATM   14  C10 UNL     1      -3.635  31.964  -5.389  1.00  0.00     0.082 C
HETATM   15  C11 UNL     1      -3.832  33.047  -4.320  1.00  0.00     0.238 C
HETATM   16  N2  UNL     1      -3.307  32.584  -3.045  1.00  0.00    -0.051 N
HETATM   17  C12 UNL     1      -4.104  31.508  -2.478  1.00  0.00     0.465 C
ATOM     18  H22 UNL     1      -2.327  32.314  -3.127  1.00  0.00     0.279 HD
ATOM     19  H21 UNL     1      -3.209  33.357  -2.386  1.00  0.00     0.279 HD
HETATM   20  N3  UNL     1      -4.618  30.718  -3.613  1.00  0.00    -0.030 N
ATOM     21  H32 UNL     1      -5.496  31.079  -3.987  1.00  0.00     0.281 HD
ATOM     22  H31 UNL     1      -4.961  29.798  -3.338  1.00  0.00     0.281 HD
ENDBRANCH   1  13
TORSDOF 5
ENDMDL