MODEL 5
REMARK VINA RESULT: -7.745895574      3.522      6.767
REMARK  4 active torsions:
REMARK  status: ('A' for Active; 'I' for Inactive)
REMARK    1  A    between atoms: C3_9  and  N3_10
REMARK    2  A    between atoms: N3_10  and  C4_11
REMARK    3  A    between atoms: N3_10  and  N5_20
REMARK    4  A    between atoms: C4_11  and  C5_12
ROOT
HETATM    1  O1  UNL     1      58.343 -17.759  52.533  1.00  0.00    -0.266 OA
HETATM    2  C1  UNL     1      57.599 -16.736  52.320  1.00  0.00     0.274 A
HETATM    3  N1  UNL     1      58.121 -15.497  52.330  1.00  0.00    -0.305 N
ATOM      4  H1  UNL     1      59.115 -15.350  52.506  1.00  0.00     0.170 HD
HETATM    5  C2  UNL     1      57.303 -14.459  52.104  1.00  0.00     0.144 A
HETATM    6  N2  UNL     1      57.476 -13.129  52.044  1.00  0.00    -0.242 N
ATOM      7  H2  UNL     1      58.369 -12.654  52.178  1.00  0.00     0.196 HD
HETATM    8  O2  UNL     1      56.361 -12.531  51.793  1.00  0.00    -0.215 OA
HETATM    9  C3  UNL     1      55.361 -13.414  51.667  1.00  0.00     0.206 A
HETATM   10  C9  UNL     1      55.941 -14.637  51.861  1.00  0.00     0.073 A
HETATM   11  C10 UNL     1      55.422 -15.904  51.852  1.00  0.00    -0.006 A
HETATM   12  C11 UNL     1      56.258 -16.988  52.087  1.00  0.00     0.104 A
HETATM   13  N6  UNL     1      55.473 -18.183  52.024  1.00  0.00    -0.385 N
ATOM     14  H6  UNL     1      55.667 -19.074  52.480  1.00  0.00     0.159 HD
HETATM   15  C12 UNL     1      54.345 -17.859  51.173  1.00  0.00     0.124 C
HETATM   16  C13 UNL     1      54.061 -16.424  51.637  1.00  0.00     0.061 C
ENDROOT
BRANCH   9  17
HETATM   17  N3  UNL     1      54.013 -13.044  51.388  1.00  0.00    -0.206 N
BRANCH  17  18
HETATM   18  C4  UNL     1      53.547 -12.828  50.026  1.00  0.00     0.193 C
BRANCH  18  19
HETATM   19  C5  UNL     1      53.016 -11.442  49.856  1.00  0.00     0.229 C
HETATM   20  C6  UNL     1      51.656 -11.541  49.152  1.00  0.00     0.202 C
HETATM   21  O3  UNL     1      51.873 -12.266  48.000  1.00  0.00    -0.387 OA
HETATM   22  C7  UNL     1      52.743 -11.588  47.171  1.00  0.00     0.195 C
HETATM   23  C8  UNL     1      53.322 -10.352  47.785  1.00  0.00     0.259 C
HETATM   24  N4  UNL     1      53.897 -10.597  49.078  1.00  0.00    -0.065 N
ATOM     25  H42 UNL     1      54.127  -9.730  49.565  1.00  0.00     0.277 HD
ATOM     26  H41 UNL     1      54.839 -10.983  49.011  1.00  0.00     0.277 HD
ENDBRANCH  18  19
ENDBRANCH  17  18
BRANCH  17  27
HETATM   27  N5  UNL     1      53.156 -12.884  52.471  1.00  0.00    -0.035 N
HETATM   28  O4  UNL     1      52.005 -13.350  52.404  1.00  0.00    -0.516 OA
HETATM   29  O5  UNL     1      53.527 -12.232  53.610  1.00  0.00    -0.516 OA
ENDBRANCH  17  27
ENDBRANCH   9  17
TORSDOF 4
ENDMDL