MODEL 4
REMARK VINA RESULT: -8.391370942      4.283      5.253
REMARK  7 active torsions:
REMARK  status: ('A' for Active; 'I' for Inactive)
REMARK       I    between atoms: C1_2  and  N1_3
REMARK    1  A    between atoms: C1_2  and  C8_22
REMARK    2  A    between atoms: N1_3  and  N2_5
REMARK    3  A    between atoms: N2_5  and  C2_7
REMARK    4  A    between atoms: C2_7  and  N3_9
REMARK    5  A    between atoms: N3_9  and  N4_11
REMARK    6  A    between atoms: C3_13  and  C4_14
REMARK    7  A    between atoms: C7_17  and  N5_18
ROOT
HETATM    1  C2  UNL     1      53.465 -12.309  54.690  1.00  0.00     0.205 C
HETATM    2  S1  UNL     1      52.053 -12.291  53.878  1.00  0.00    -0.038 SA
ENDROOT
BRANCH   1   3
HETATM    3  N2  UNL     1      54.560 -13.041  54.200  1.00  0.00    -0.272 N
ATOM      4  H2  UNL     1      54.774 -13.960  54.587  1.00  0.00     0.189 HD
BRANCH   3   5
HETATM    5  N1  UNL     1      55.367 -12.501  53.166  1.00  0.00    -0.262 N
HETATM    6  C1  UNL     1      56.528 -11.802  53.532  1.00  0.00     0.294 C
HETATM    7  O1  UNL     1      56.817 -11.675  54.743  1.00  0.00    -0.264 OA
ATOM      8  H1  UNL     1      55.111 -12.617  52.185  1.00  0.00     0.190 HD
BRANCH   6   9
HETATM    9  C8  UNL     1      57.418 -11.212  52.545  1.00  0.00     0.195 A
HETATM   10  N6  UNL     1      57.024 -10.497  51.438  1.00  0.00    -0.231 N
HETATM   11  O5  UNL     1      58.061 -10.110  50.765  1.00  0.00    -0.153 OA
ATOM     12  H6  UNL     1      56.056 -10.300  51.185  1.00  0.00     0.197 HD
HETATM   13  N7  UNL     1      59.151 -10.513  51.339  1.00  0.00    -0.204 N
HETATM   14  C9  UNL     1      58.793 -11.208  52.459  1.00  0.00     0.301 A
ATOM     15  H7  UNL     1      60.103 -10.344  51.014  1.00  0.00     0.200 HD
HETATM   16  O6  UNL     1      59.596 -11.743  53.259  1.00  0.00    -0.264 OA
ENDBRANCH   6   9
ENDBRANCH   3   5
ENDBRANCH   1   3
BRANCH   1  17
HETATM   17  N3  UNL     1      53.592 -11.585  55.897  1.00  0.00    -0.275 N
ATOM     18  H3  UNL     1      52.946 -11.775  56.664  1.00  0.00     0.189 HD
BRANCH  17  19
HETATM   19  N4  UNL     1      54.577 -10.620  56.061  1.00  0.00    -0.307 N
HETATM   20  C3  UNL     1      54.386  -9.368  55.867  1.00  0.00     0.144 C
ATOM     21  H4  UNL     1      55.506 -10.925  56.351  1.00  0.00     0.186 HD
BRANCH  20  22
HETATM   22  C4  UNL     1      55.515  -8.447  56.075  1.00  0.00     0.095 A
HETATM   23  C5  UNL     1      55.549  -7.101  55.773  1.00  0.00     0.043 A
HETATM   24  C6  UNL     1      56.786  -6.599  56.121  1.00  0.00     0.065 A
HETATM   25  C7  UNL     1      57.468  -7.697  56.634  1.00  0.00     0.215 A
HETATM   26  O4  UNL     1      56.690  -8.741  56.586  1.00  0.00    -0.287 OA
BRANCH  25  27
HETATM   27  N5  UNL     1      58.815  -7.656  57.131  1.00  0.00    -0.090 N
HETATM   28  O2  UNL     1      59.547  -8.643  56.955  1.00  0.00    -0.530 OA
HETATM   29  O3  UNL     1      59.269  -6.538  57.786  1.00  0.00    -0.530 OA
ENDBRANCH  25  27
ENDBRANCH  20  22
ENDBRANCH  17  19
ENDBRANCH   1  17
TORSDOF 7
ENDMDL