MODEL 3
REMARK VINA RESULT: -8.397464770      0.432      1.523
REMARK  7 active torsions:
REMARK  status: ('A' for Active; 'I' for Inactive)
REMARK    1  A    between atoms: C3_5  and  C4_6
REMARK    2  A    between atoms: C6_18  and  C7_19
REMARK    3  A    between atoms: C7_19  and  O1_20
REMARK    4  A    between atoms: C7_19  and  N7_22
REMARK    5  A    between atoms: N7_22  and  N8_24
REMARK    6  A    between atoms: C8_26  and  C9_27
REMARK    7  A    between atoms: C12_34  and  N11_35
ROOT
HETATM    1  C7  UNL     1      58.130 -11.362  53.629  1.00  0.00     0.168 C
ENDROOT
BRANCH   1   2
HETATM    2  C6  UNL     1      56.855 -10.952  54.180  1.00  0.00     0.054 A
HETATM    3  C2  UNL     1      55.657 -10.989  53.532  1.00  0.00     0.023 A
HETATM    4  C1  UNL     1      55.552 -11.381  52.086  1.00  0.00     0.069 C
HETATM    5  N1  UNL     1      54.502 -10.620  54.170  1.00  0.00    -0.342 N
HETATM    6  C3  UNL     1      54.505 -10.211  55.438  1.00  0.00     0.153 A
ATOM      7  H1  UNL     1      53.619 -10.659  53.663  1.00  0.00     0.167 HD
HETATM    8  N6  UNL     1      55.670 -10.170  56.082  1.00  0.00    -0.348 N
HETATM    9  C5  UNL     1      56.823 -10.514  55.524  1.00  0.00     0.107 A
ATOM     10  H6  UNL     1      55.676  -9.858  57.054  1.00  0.00     0.167 HD
BRANCH   6  11
HETATM   11  C4  UNL     1      53.274  -9.813  56.113  1.00  0.00     0.182 A
HETATM   12  N2  UNL     1      53.134  -8.677  56.837  1.00  0.00    -0.266 N
HETATM   13  N3  UNL     1      51.869  -8.672  57.287  1.00  0.00    -0.226 N
ATOM     14  H2  UNL     1      53.846  -7.966  57.007  1.00  0.00     0.190 HD
HETATM   15  N4  UNL     1      51.249  -9.744  56.871  1.00  0.00    -0.226 N
ATOM     16  H3  UNL     1      51.454  -7.942  57.865  1.00  0.00     0.210 HD
HETATM   17  N5  UNL     1      52.110 -10.449  56.148  1.00  0.00    -0.266 N
ATOM     18  H4  UNL     1      50.279  -9.994  57.066  1.00  0.00     0.210 HD
ATOM     19  H5  UNL     1      51.909 -11.338  55.692  1.00  0.00     0.190 HD
ENDBRANCH   6  11
ENDBRANCH   1   2
BRANCH   1  20
HETATM   20  O1  UNL     1      58.762 -10.411  53.005  1.00  0.00    -0.344 OA
ATOM     21  H1  UNL     1      59.571 -10.693  52.595  1.00  0.00     0.219 HD
ENDBRANCH   1  20
BRANCH   1  22
HETATM   22  N7  UNL     1      58.770 -12.580  53.666  1.00  0.00    -0.280 N
ATOM     23  H7  UNL     1      59.702 -12.628  54.076  1.00  0.00     0.189 HD
BRANCH  22  24
HETATM   24  N8  UNL     1      58.203 -13.743  53.173  1.00  0.00    -0.309 N
HETATM   25  C8  UNL     1      57.370 -14.537  53.617  1.00  0.00     0.123 C
ATOM     26  H8  UNL     1      58.547 -13.998  52.247  1.00  0.00     0.186 HD
BRANCH  25  27
HETATM   27  C9  UNL     1      56.914 -15.720  52.893  1.00  0.00     0.040 A
HETATM   28  C10 UNL     1      57.809 -16.815  52.782  1.00  0.00     0.105 A
HETATM   29  N9  UNL     1      57.396 -17.894  52.133  1.00  0.00    -0.361 N
HETATM   30  C11 UNL     1      56.187 -18.020  51.572  1.00  0.00     0.181 A
ATOM     31  H9  UNL     1      58.042 -18.680  52.056  1.00  0.00     0.166 HD
HETATM   32  N10 UNL     1      55.309 -17.027  51.644  1.00  0.00    -0.338 N
HETATM   33  C12 UNL     1      55.678 -15.872  52.309  1.00  0.00     0.112 A
ATOM     34  H10 UNL     1      54.385 -17.114  51.220  1.00  0.00     0.168 HD
BRANCH  33  35
HETATM   35  N11 UNL     1      54.815 -14.953  52.345  1.00  0.00    -0.385 N
ATOM     36 2H11 UNL     1      55.123 -14.063  52.737  1.00  0.00     0.157 HD
ATOM     37 1H11 UNL     1      53.864 -15.101  52.006  1.00  0.00     0.157 HD
ENDBRANCH  33  35
ENDBRANCH  25  27
ENDBRANCH  22  24
ENDBRANCH   1  22
TORSDOF 7
ENDMDL