MODEL 5
REMARK VINA RESULT: -7.121126102      1.083      1.083
REMARK  7 active torsions:
REMARK  status: ('A' for Active; 'I' for Inactive)
REMARK    1  A    between atoms: N1_2  and  C3_4
REMARK    2  A    between atoms: C3_4  and  C4_6
REMARK    3  A    between atoms: C5_7  and  O1_8
REMARK    4  A    between atoms: C6_12  and  S2_13
REMARK    5  A    between atoms: S2_13  and  C7_14
REMARK    6  A    between atoms: C7_14  and  C8_15
REMARK    7  A    between atoms: C11_27  and  N8_28
ROOT
HETATM    1  C8  UNL     1      57.289 -16.901  51.826  1.00  0.00     0.107 A
HETATM    2  N3  UNL     1      57.028 -18.208  52.046  1.00  0.00    -0.286 N
ATOM      3  H3  UNL     1      56.241 -18.725  51.656  1.00  0.00     0.188 HD
HETATM    4  N4  UNL     1      57.964 -18.717  52.853  1.00  0.00    -0.275 N
ATOM      5  H4  UNL     1      58.009 -19.682  53.181  1.00  0.00     0.189 HD
HETATM    6  C9  UNL     1      58.837 -17.739  53.161  1.00  0.00     0.204 A
HETATM    7  C10 UNL     1      60.006 -17.868  54.013  1.00  0.00     0.138 C
HETATM    8  N5  UNL     1      60.947 -17.967  54.683  1.00  0.00    -0.188 NA
HETATM    9  N6  UNL     1      58.407 -16.632  52.522  1.00  0.00    -0.320 N
ATOM     10  H6  UNL     1      58.864 -15.721  52.561  1.00  0.00     0.169 HD
ENDROOT
BRANCH   1  11
HETATM   11  C7  UNL     1      56.505 -15.955  50.991  1.00  0.00     0.160 C
BRANCH  11  12
HETATM   12  S2  UNL     1      54.949 -15.476  51.807  1.00  0.00    -0.086 SA
BRANCH  12  13
HETATM   13  C6  UNL     1      55.175 -13.840  52.464  1.00  0.00     0.148 A
HETATM   14  N2  UNL     1      56.027 -13.006  51.847  1.00  0.00    -0.317 N
HETATM   15  C5  UNL     1      56.240 -11.756  52.296  1.00  0.00     0.159 A
ATOM     16  H2  UNL     1      56.525 -13.329  51.018  1.00  0.00     0.170 HD
HETATM   17  C4  UNL     1      55.559 -11.345  53.415  1.00  0.00     0.096 A
HETATM   18  C11 UNL     1      54.665 -12.199  54.071  1.00  0.00     0.118 A
HETATM   19  N7  UNL     1      54.501 -13.453  53.557  1.00  0.00    -0.322 N
ATOM     20  H7  UNL     1      53.859 -14.103  54.009  1.00  0.00     0.169 HD
BRANCH  15  21
HETATM   21  O1  UNL     1      57.112 -10.891  51.672  1.00  0.00    -0.345 OA
ATOM     22  H1  UNL     1      58.050 -11.024  51.758  1.00  0.00     0.219 HD
ENDBRANCH  15  21
BRANCH  17  23
HETATM   23  C3  UNL     1      55.765 -10.012  53.921  1.00  0.00     0.116 C
HETATM   24  S1  UNL     1      54.815  -8.808  53.361  1.00  0.00    -0.059 SA
BRANCH  23  25
HETATM   25  N1  UNL     1      56.782  -9.755  54.895  1.00  0.00    -0.380 N
HETATM   26  C1  UNL     1      57.677 -10.798  55.331  1.00  0.00     0.150 C
HETATM   27  C2  UNL     1      56.918  -8.431  55.452  1.00  0.00     0.150 C
ENDBRANCH  23  25
ENDBRANCH  17  23
BRANCH  18  28
HETATM   28  N8  UNL     1      54.033 -11.799  55.120  1.00  0.00    -0.385 N
ATOM     29  H82 UNL     1      54.063 -10.829  55.435  1.00  0.00     0.157 HD
ATOM     30  H81 UNL     1      53.478 -12.455  55.668  1.00  0.00     0.157 HD
ENDBRANCH  18  28
ENDBRANCH  12  13
ENDBRANCH  11  12
ENDBRANCH   1  11
TORSDOF 7
ENDMDL