MODEL 1
REMARK VINA RESULT: -8.992063771      0.000      0.000
REMARK  6 active torsions:
REMARK  status: ('A' for Active; 'I' for Inactive)
REMARK    1  A    between atoms: C2_5  and  N3_6
REMARK    2  A    between atoms: C2_5  and  C8_19
REMARK    3  A    between atoms: N3_6  and  N4_8
REMARK    4  A    between atoms: C3_10  and  C4_11
REMARK    5  A    between atoms: C7_14  and  N5_15
REMARK    6  A    between atoms: C9_20  and  O4_21
ROOT
HETATM    1  N1  UNL     1      59.814 -10.167  52.027  1.00  0.00    -0.172 NA
HETATM    2  C1  UNL     1      59.064 -11.063  51.874  1.00  0.00     0.183 C
HETATM    3  N2  UNL     1      58.177 -12.121  51.670  1.00  0.00    -0.277 N
ATOM      4  H2  UNL     1      57.708 -12.222  50.770  1.00  0.00     0.179 HD
HETATM    5  C2  UNL     1      57.949 -12.964  52.604  1.00  0.00     0.149 C
ENDROOT
BRANCH   5   6
HETATM    6  N3  UNL     1      58.607 -12.805  53.835  1.00  0.00    -0.284 N
ATOM      7  H3  UNL     1      59.081 -13.605  54.255  1.00  0.00     0.188 HD
BRANCH   6   8
HETATM    8  N4  UNL     1      58.626 -11.584  54.492  1.00  0.00    -0.308 N
HETATM    9  C3  UNL     1      57.664 -11.139  55.217  1.00  0.00     0.144 C
ATOM     10  H4  UNL     1      59.457 -11.002  54.394  1.00  0.00     0.186 HD
BRANCH   9  11
HETATM   11  C4  UNL     1      57.805  -9.838  55.855  1.00  0.00     0.095 A
HETATM   12  C5  UNL     1      56.789  -8.910  56.055  1.00  0.00     0.043 A
HETATM   13  C6  UNL     1      57.340  -7.824  56.685  1.00  0.00     0.065 A
HETATM   14  C7  UNL     1      58.680  -8.130  56.848  1.00  0.00     0.215 A
HETATM   15  O3  UNL     1      58.902  -9.311  56.350  1.00  0.00    -0.287 OA
BRANCH  14  16
HETATM   16  N5  UNL     1      59.641  -7.295  57.456  1.00  0.00    -0.090 N
HETATM   17  O1  UNL     1      60.852  -7.478  57.251  1.00  0.00    -0.530 OA
HETATM   18  O2  UNL     1      59.257  -6.278  58.275  1.00  0.00    -0.530 OA
ENDBRANCH  14  16
ENDBRANCH   9  11
ENDBRANCH   6   8
ENDBRANCH   5   6
BRANCH   5  19
HETATM   19  C8  UNL     1      57.018 -14.050  52.348  1.00  0.00     0.129 A
HETATM   20  C9  UNL     1      57.365 -15.207  51.683  1.00  0.00     0.163 A
HETATM   21  N6  UNL     1      56.488 -16.196  51.458  1.00  0.00    -0.288 N
HETATM   22  C10 UNL     1      55.216 -16.107  51.876  1.00  0.00     0.329 A
ATOM     23  H6  UNL     1      56.793 -17.032  50.960  1.00  0.00     0.172 HD
HETATM   24  O5  UNL     1      54.380 -17.051  51.662  1.00  0.00    -0.247 OA
HETATM   25  N7  UNL     1      54.846 -14.992  52.529  1.00  0.00    -0.275 N
HETATM   26  C11 UNL     1      55.699 -13.984  52.769  1.00  0.00     0.267 A
ATOM     27  H7  UNL     1      53.882 -14.909  52.853  1.00  0.00     0.173 HD
HETATM   28  O6  UNL     1      55.361 -12.930  53.381  1.00  0.00    -0.267 OA
BRANCH  20  29
HETATM   29  O4  UNL     1      58.700 -15.301  51.244  1.00  0.00    -0.345 OA
ATOM     30  H4  UNL     1      59.358 -14.903  51.802  1.00  0.00     0.219 HD
ENDBRANCH  20  29
ENDBRANCH   5  19
TORSDOF 6
ENDMDL