MODEL 5
REMARK VINA RESULT: -7.683342024      1.828      2.802
REMARK  7 active torsions:
REMARK  status: ('A' for Active; 'I' for Inactive)
REMARK    1  A    between atoms: O1_2  and  N1_3
REMARK       I    between atoms: N1_3  and  C2_5
REMARK    2  A    between atoms: C2_5  and  C3_7
REMARK    3  A    between atoms: C4_9  and  N2_10
REMARK    4  A    between atoms: N2_10  and  N3_12
REMARK    5  A    between atoms: N3_12  and  C5_13
REMARK    6  A    between atoms: C5_13  and  C6_14
REMARK    7  A    between atoms: C7_15  and  O3_16
ROOT
HETATM    1  C6  UNL     1      56.173 -17.437  51.913  1.00  0.00     0.136 A
HETATM    2  C7  UNL     1      56.145 -18.703  52.421  1.00  0.00     0.175 A
HETATM    3  N4  UNL     1      57.363 -19.037  52.813  1.00  0.00    -0.286 N
ATOM      4  H4  UNL     1      57.643 -19.924  53.231  1.00  0.00     0.172 HD
HETATM    5  C8  UNL     1      58.166 -17.984  52.556  1.00  0.00     0.342 A
HETATM    6  O4  UNL     1      59.399 -17.963  52.807  1.00  0.00    -0.245 OA
HETATM    7  N5  UNL     1      57.426 -17.000  52.000  1.00  0.00    -0.193 N
HETATM    8  C9  UNL     1      57.954 -15.778  51.616  1.00  0.00     0.194 C
HETATM    9  N6  UNL     1      58.400 -14.765  51.275  1.00  0.00    -0.171 NA
ENDROOT
BRANCH   1  10
HETATM   10  C5  UNL     1      55.051 -16.639  51.353  1.00  0.00     0.244 C
BRANCH  10  11
HETATM   11  N3  UNL     1      54.701 -15.568  51.741  1.00  0.00    -0.334 NA
BRANCH  11  12
HETATM   12  N2  UNL     1      54.387 -14.314  51.773  1.00  0.00    -0.213 N
ATOM     13  H2  UNL     1      53.503 -14.061  51.331  1.00  0.00     0.204 HD
BRANCH  12  14
HETATM   14  C4  UNL     1      55.070 -13.324  52.309  1.00  0.00     0.175 A
HETATM   15  S1  UNL     1      54.775 -12.407  53.698  1.00  0.00    -0.044 SA
HETATM   16  C3  UNL     1      56.175 -11.359  53.629  1.00  0.00     0.100 A
HETATM   17  C10 UNL     1      56.772 -11.823  52.498  1.00  0.00     0.030 A
HETATM   18  N7  UNL     1      56.205 -12.814  51.842  1.00  0.00    -0.337 N
HETATM   19  C11 UNL     1      58.079 -11.197  52.013  1.00  0.00     0.070 C
ATOM     20  H7  UNL     1      56.628 -13.183  50.990  1.00  0.00     0.168 HD
BRANCH  16  21
HETATM   21  C2  UNL     1      56.466 -10.324  54.599  1.00  0.00     0.284 C
HETATM   22  N1  UNL     1      56.953 -10.488  55.868  1.00  0.00    -0.231 N
ATOM     23  H1  UNL     1      57.146 -11.431  56.205  1.00  0.00     0.197 HD
HETATM   24  O2  UNL     1      56.237  -9.110  54.214  1.00  0.00    -0.265 OA
BRANCH  22  25
HETATM   25  O1  UNL     1      57.193  -9.412  56.712  1.00  0.00    -0.282 OA
HETATM   26  C1  UNL     1      58.509  -9.035  56.731  1.00  0.00     0.237 C
ENDBRANCH  22  25
ENDBRANCH  16  21
ENDBRANCH  12  14
ENDBRANCH  11  12
ENDBRANCH  10  11
ENDBRANCH   1  10
BRANCH   2  27
HETATM   27  O3  UNL     1      55.015 -19.482  52.497  1.00  0.00    -0.344 OA
ATOM     28  H3  UNL     1      54.909 -20.317  52.057  1.00  0.00     0.219 HD
ENDBRANCH   2  27
TORSDOF 7
ENDMDL