MODEL 5
REMARK VINA RESULT: -8.259672264      1.273      1.817
REMARK  6 active torsions:
REMARK  status: ('A' for Active; 'I' for Inactive)
REMARK    1  A    between atoms: N1_1  and  N2_4
REMARK       I    between atoms: N2_4  and  C1_6
REMARK    2  A    between atoms: C1_6  and  C2_8
REMARK    3  A    between atoms: C3_9  and  O2_10
REMARK    4  A    between atoms: N4_15  and  N5_17
REMARK    5  A    between atoms: C5_19  and  C6_20
REMARK    6  A    between atoms: C9_23  and  N6_24
ROOT
HETATM    1  C2  UNL     1      57.065 -10.223  54.726  1.00  0.00     0.159 A
HETATM    2  C3  UNL     1      55.891 -10.806  55.129  1.00  0.00     0.165 A
HETATM    3  N3  UNL     1      55.283 -11.817  54.431  1.00  0.00    -0.300 N
ATOM      4  H3  UNL     1      54.409 -12.236  54.750  1.00  0.00     0.171 HD
HETATM    5  C4  UNL     1      55.892 -12.228  53.310  1.00  0.00     0.248 A
HETATM    6  N4  UNL     1      55.363 -13.177  52.614  1.00  0.00    -0.265 N
ATOM      7  H4  UNL     1      55.858 -13.459  51.768  1.00  0.00     0.190 HD
HETATM    8  O5  UNL     1      57.018 -11.690  52.897  1.00  0.00    -0.240 OA
HETATM    9  C12 UNL     1      57.606 -10.734  53.544  1.00  0.00     0.310 A
HETATM   10  O6  UNL     1      58.686 -10.237  53.124  1.00  0.00    -0.258 OA
ENDROOT
BRANCH   6  11
HETATM   11  N5  UNL     1      54.217 -13.831  52.898  1.00  0.00    -0.308 N
HETATM   12  C5  UNL     1      53.092 -13.839  52.391  1.00  0.00     0.118 C
ATOM     13  H5  UNL     1      54.299 -14.451  53.704  1.00  0.00     0.186 HD
BRANCH  12  14
HETATM   14  C6  UNL     1      52.621 -13.092  51.249  1.00  0.00    -0.019 A
HETATM   15  C7  UNL     1      53.041 -13.481  49.962  1.00  0.00     0.015 A
HETATM   16  C8  UNL     1      52.663 -12.852  48.813  1.00  0.00     0.037 A
HETATM   17  C9  UNL     1      51.810 -11.758  48.914  1.00  0.00     0.102 A
HETATM   18  C10 UNL     1      51.360 -11.323  50.139  1.00  0.00     0.037 A
HETATM   19  C11 UNL     1      51.788 -12.015  51.280  1.00  0.00     0.015 A
BRANCH  17  20
HETATM   20  N6  UNL     1      51.391 -11.076  47.754  1.00  0.00    -0.116 N
HETATM   21  O3  UNL     1      52.127 -10.983  46.761  1.00  0.00    -0.532 OA
HETATM   22  O4  UNL     1      50.147 -10.505  47.724  1.00  0.00    -0.532 OA
ENDBRANCH  17  20
ENDBRANCH  12  14
ENDBRANCH   6  11
BRANCH   2  23
HETATM   23  O2  UNL     1      55.259 -10.390  56.279  1.00  0.00    -0.345 OA
ATOM     24  H2  UNL     1      55.165  -9.465  56.473  1.00  0.00     0.219 HD
ENDBRANCH   2  23
BRANCH   1  25
HETATM   25  C1  UNL     1      57.747  -9.152  55.430  1.00  0.00     0.280 C
HETATM   26  N2  UNL     1      58.844  -9.262  56.280  1.00  0.00    -0.272 N
ATOM     27  H2  UNL     1      59.275 -10.164  56.480  1.00  0.00     0.189 HD
HETATM   28  O1  UNL     1      57.259  -7.971  55.225  1.00  0.00    -0.266 OA
BRANCH  26  29
HETATM   29  N1  UNL     1      59.339  -8.055  56.857  1.00  0.00    -0.342 N
ATOM     30  H12 UNL     1      58.697  -7.321  57.156  1.00  0.00     0.176 HD
ATOM     31  H11 UNL     1      60.351  -7.969  56.953  1.00  0.00     0.176 HD
ENDBRANCH  26  29
ENDBRANCH   1  25
TORSDOF 6
ENDMDL