MODEL 2
REMARK VINA RESULT: -8.416282822      1.855      2.082
REMARK  6 active torsions:
REMARK  status: ('A' for Active; 'I' for Inactive)
REMARK       I    between atoms: C2_2  and  N1_4
REMARK    1  A    between atoms: N1_4  and  C3_6
REMARK    2  A    between atoms: C4_7  and  C5_8
REMARK    3  A    between atoms: C6_13  and  N4_14
REMARK    4  A    between atoms: N4_14  and  N5_16
REMARK    5  A    between atoms: N8_27  and  C11_28
REMARK    6  A    between atoms: C12_30  and  O4_31
ROOT
HETATM    1  C5  UNL     1      56.028 -12.412  53.679  1.00  0.00     0.148 A
HETATM    2  N2  UNL     1      55.970 -13.664  54.109  1.00  0.00    -0.279 N
ATOM      3  H2  UNL     1      56.006 -13.861  55.109  1.00  0.00     0.188 HD
HETATM    4  N3  UNL     1      55.864 -14.665  53.236  1.00  0.00    -0.130 N
ATOM      5  H3  UNL     1      55.821 -15.620  53.591  1.00  0.00     0.205 HD
HETATM    6  C6  UNL     1      55.812 -14.471  51.917  1.00  0.00     0.714 A
HETATM    7  N6  UNL     1      55.869 -13.210  51.455  1.00  0.00    -0.151 N
ATOM      8  H6  UNL     1      55.832 -13.031  50.451  1.00  0.00     0.188 HD
HETATM    9  C10 UNL     1      55.977 -12.180  52.322  1.00  0.00     0.290 A
HETATM   10  O2  UNL     1      56.029 -10.994  51.850  1.00  0.00    -0.265 OA
ENDROOT
BRANCH   1  11
HETATM   11  C4  UNL     1      56.145 -11.267  54.605  1.00  0.00     0.113 A
HETATM   12  C3  UNL     1      55.164 -10.778  55.425  1.00  0.00     0.119 A
HETATM   13  C12 UNL     1      55.744  -9.707  56.098  1.00  0.00     0.194 A
HETATM   14  N8  UNL     1      57.029  -9.564  55.689  1.00  0.00    -0.206 N
HETATM   15  N7  UNL     1      57.222 -10.521  54.796  1.00  0.00    -0.285 N
ATOM     16  H7  UNL     1      58.104 -10.668  54.307  1.00  0.00     0.188 HD
BRANCH  12  17
HETATM   17  N1  UNL     1      53.852 -11.273  55.544  1.00  0.00    -0.322 N
HETATM   18  C2  UNL     1      52.804 -10.918  54.637  1.00  0.00     0.218 C
HETATM   19  C1  UNL     1      51.431 -11.461  54.793  1.00  0.00     0.117 C
HETATM   20  O1  UNL     1      53.009 -10.139  53.683  1.00  0.00    -0.274 OA
ATOM     21  H1  UNL     1      53.639 -11.912  56.309  1.00  0.00     0.169 HD
ENDBRANCH  12  17
BRANCH  13  22
HETATM   22  O4  UNL     1      55.115  -8.911  57.035  1.00  0.00    -0.343 OA
ATOM     23  H4  UNL     1      55.300  -8.904  57.967  1.00  0.00     0.219 HD
ENDBRANCH  13  22
BRANCH  14  24
HETATM   24  C11 UNL     1      57.948  -8.591  56.140  1.00  0.00     0.378 C
HETATM   25  O3  UNL     1      59.161  -8.864  56.230  1.00  0.00    -0.281 OA
ENDBRANCH  14  24
ENDBRANCH   1  11
BRANCH   6  26
HETATM   26  N4  UNL     1      55.710 -15.446  51.084  1.00  0.00    -0.131 N
ATOM     27  H4  UNL     1      55.267 -15.258  50.184  1.00  0.00     0.205 HD
BRANCH  26  28
HETATM   28  N5  UNL     1      56.156 -16.727  51.322  1.00  0.00    -0.295 N
HETATM   29  C7  UNL     1      55.339 -17.702  51.480  1.00  0.00    -0.004 C
HETATM   30  C8  UNL     1      53.873 -17.515  51.416  1.00  0.00     0.064 C
HETATM   31  C9  UNL     1      55.884 -19.054  51.735  1.00  0.00     0.064 C
ATOM     32  H5  UNL     1      57.159 -16.904  51.375  1.00  0.00     0.186 HD
ENDBRANCH  26  28
ENDBRANCH   6  26
TORSDOF 6
ENDMDL