MODEL 5
REMARK VINA RESULT: -7.470759155      1.281      1.305
REMARK  8 active torsions:
REMARK  status: ('A' for Active; 'I' for Inactive)
REMARK    1  A    between atoms: C2_2  and  N1_3
REMARK    2  A    between atoms: N1_3  and  C3_5
REMARK    3  A    between atoms: C4_8  and  N3_9
REMARK    4  A    between atoms: N3_9  and  C5_11
REMARK    5  A    between atoms: C6_14  and  O1_15
REMARK    6  A    between atoms: C11_23  and  N7_24
REMARK    7  A    between atoms: N7_24  and  O2_26
REMARK    8  A    between atoms: C12_28  and  N8_29
ROOT
HETATM    1  C5  UNL     1      57.805 -13.402  52.869  1.00  0.00     0.685 A
HETATM    2  N4  UNL     1      56.554 -12.999  53.148  1.00  0.00    -0.169 N
ATOM      3  H4  UNL     1      55.768 -13.456  52.687  1.00  0.00     0.186 HD
HETATM    4  C6  UNL     1      56.316 -12.003  54.024  1.00  0.00     0.179 A
HETATM    5  C8  UNL     1      57.361 -11.361  54.667  1.00  0.00     0.112 A
HETATM    6  C9  UNL     1      57.143 -10.292  55.611  1.00  0.00     0.105 C
HETATM    7  N5  UNL     1      56.988  -9.437  56.367  1.00  0.00    -0.191 NA
HETATM    8  C10 UNL     1      58.641 -11.784  54.373  1.00  0.00     0.133 A
HETATM    9  N6  UNL     1      58.829 -12.789  53.487  1.00  0.00    -0.200 N
ATOM     10  H6  UNL     1      59.782 -13.091  53.281  1.00  0.00     0.183 HD
ENDROOT
BRANCH   4  11
HETATM   11  O1  UNL     1      55.038 -11.572  54.325  1.00  0.00    -0.339 OA
HETATM   12  C7  UNL     1      53.959 -12.434  54.017  1.00  0.00     0.211 C
ENDBRANCH   4  11
BRANCH   1  13
HETATM   13  N3  UNL     1      57.968 -14.367  52.017  1.00  0.00    -0.174 N
ATOM     14  H3  UNL     1      58.853 -14.435  51.514  1.00  0.00     0.186 HD
BRANCH  13  15
HETATM   15  C4  UNL     1      56.957 -15.331  51.761  1.00  0.00     0.155 C
HETATM   16  N2  UNL     1      55.787 -14.912  51.247  1.00  0.00    -0.322 N
HETATM   17  C3  UNL     1      54.630 -15.599  51.251  1.00  0.00     0.176 C
ATOM     18  H2  UNL     1      55.776 -13.989  50.814  1.00  0.00     0.169 HD
HETATM   19  C13 UNL     1      54.410 -16.935  51.516  1.00  0.00     0.291 C
HETATM   20  N9  UNL     1      55.308 -17.897  51.793  1.00  0.00    -0.305 N
HETATM   21  O3  UNL     1      53.195 -17.270  51.488  1.00  0.00    -0.264 OA
HETATM   22  C12 UNL     1      56.639 -17.777  51.943  1.00  0.00     0.134 C
ATOM     23  H9  UNL     1      54.931 -18.838  51.904  1.00  0.00     0.171 HD
HETATM   24  C11 UNL     1      57.356 -16.619  52.102  1.00  0.00     0.142 C
BRANCH  17  25
HETATM   25  N1  UNL     1      53.571 -14.890  50.962  1.00  0.00    -0.349 N
ATOM     26  H1  UNL     1      52.642 -15.294  51.085  1.00  0.00     0.167 HD
BRANCH  25  27
HETATM   27  C2  UNL     1      53.700 -13.577  50.483  1.00  0.00     0.079 C
HETATM   28  C1  UNL     1      53.042 -13.130  49.432  1.00  0.00     0.029 C
ENDBRANCH  25  27
ENDBRANCH  17  25
BRANCH  22  29
HETATM   29  N8  UNL     1      57.337 -18.884  51.941  1.00  0.00    -0.383 N
ATOM     30  H82 UNL     1      57.567 -19.286  52.850  1.00  0.00     0.157 HD
ATOM     31  H81 UNL     1      57.590 -19.248  51.022  1.00  0.00     0.157 HD
ENDBRANCH  22  29
BRANCH  24  32
HETATM   32  N7  UNL     1      58.653 -16.742  52.673  1.00  0.00    -0.262 N
ATOM     33  H7  UNL     1      59.465 -16.744  52.056  1.00  0.00     0.194 HD
BRANCH  32  34
HETATM   34  O2  UNL     1      58.832 -16.847  53.908  1.00  0.00    -0.289 OA
ATOM     35  H2  UNL     1      59.426 -17.488  54.282  1.00  0.00     0.244 HD
ENDBRANCH  32  34
ENDBRANCH  24  32
ENDBRANCH  13  15
ENDBRANCH   1  13
TORSDOF 8
ENDMDL