MODEL 5
REMARK VINA RESULT: -7.675243586      3.976      6.286
REMARK  5 active torsions:
REMARK  status: ('A' for Active; 'I' for Inactive)
REMARK    1  A    between atoms: C2_7  and  C3_8
REMARK    2  A    between atoms: C3_8  and  S1_9
REMARK    3  A    between atoms: S1_9  and  C4_10
REMARK    4  A    between atoms: C6_16  and  N6_17
REMARK    5  A    between atoms: C7_22  and  N8_23
ROOT
HETATM    1  C4  UNL     1      54.123 -13.583  50.654  1.00  0.00     0.146 A
HETATM    2  N4  UNL     1      54.325 -14.899  50.623  1.00  0.00    -0.321 N
ATOM      3  H4  UNL     1      53.712 -15.569  50.160  1.00  0.00     0.169 HD
HETATM    4  C5  UNL     1      55.452 -15.224  51.289  1.00  0.00     0.153 A
HETATM    5  N5  UNL     1      56.099 -16.340  51.571  1.00  0.00    -0.174 N
ATOM      6  H5  UNL     1      55.707 -17.214  51.222  1.00  0.00     0.186 HD
HETATM    7  C6  UNL     1      57.229 -16.409  52.280  1.00  0.00     0.679 A
HETATM    8  N7  UNL     1      57.740 -15.260  52.736  1.00  0.00    -0.175 N
ATOM      9  H7  UNL     1      58.602 -15.283  53.281  1.00  0.00     0.186 HD
HETATM   10  C7  UNL     1      57.144 -14.064  52.494  1.00  0.00     0.150 A
HETATM   11  C12 UNL     1      55.965 -14.008  51.754  1.00  0.00     0.124 A
HETATM   12  N9  UNL     1      55.148 -13.020  51.363  1.00  0.00    -0.331 N
ATOM     13  H9  UNL     1      55.269 -12.026  51.559  1.00  0.00     0.168 HD
ENDROOT
BRANCH   1  14
HETATM   14  S1  UNL     1      52.808 -12.601  49.955  1.00  0.00    -0.086 SA
BRANCH  14  15
HETATM   15  C3  UNL     1      52.804 -12.740  48.148  1.00  0.00     0.161 C
BRANCH  15  16
HETATM   16  C2  UNL     1      52.108 -11.569  47.564  1.00  0.00     0.122 A
HETATM   17  N3  UNL     1      52.481 -10.919  46.452  1.00  0.00    -0.271 N
HETATM   18  N2  UNL     1      51.645  -9.925  46.214  1.00  0.00    -0.225 N
ATOM     19  H3  UNL     1      53.289 -11.156  45.877  1.00  0.00     0.190 HD
HETATM   20  N1  UNL     1      50.738  -9.928  47.160  1.00  0.00    -0.223 N
ATOM     21  H2  UNL     1      51.696  -9.271  45.433  1.00  0.00     0.210 HD
HETATM   22  C1  UNL     1      49.606  -8.996  47.296  1.00  0.00     0.202 C
HETATM   23  N10 UNL     1      51.008 -10.923  47.987  1.00  0.00    -0.270 N
ATOM     24  H10 UNL     1      50.466 -11.164  48.816  1.00  0.00     0.190 HD
ENDBRANCH  15  16
ENDBRANCH  14  15
ENDBRANCH   1  14
BRANCH  10  25
HETATM   25  N8  UNL     1      57.728 -12.883  53.019  1.00  0.00    -0.365 N
HETATM   26  C8  UNL     1      57.553 -12.192  54.269  1.00  0.00     0.124 C
HETATM   27  C9  UNL     1      57.990 -10.746  54.062  1.00  0.00     0.021 C
HETATM   28  C10 UNL     1      58.183 -10.673  52.577  1.00  0.00     0.021 C
HETATM   29  C11 UNL     1      58.753 -12.077  52.330  1.00  0.00     0.124 C
ENDBRANCH  10  25
BRANCH   7  30
HETATM   30  N6  UNL     1      57.820 -17.557  52.523  1.00  0.00    -0.234 N
ATOM     31  H62 UNL     1      58.807 -17.597  52.775  1.00  0.00     0.174 HD
ATOM     32  H61 UNL     1      57.313 -18.441  52.470  1.00  0.00     0.174 HD
ENDBRANCH   7  30
TORSDOF 5
ENDMDL