MODEL 5
REMARK VINA RESULT: -7.898915921      3.561      7.153
REMARK  17 active torsions:
REMARK  status: ('A' for Active; 'I' for Inactive)
REMARK    1  A    between atoms: C2_2  and  C4_4
REMARK    2  A    between atoms: C5_7  and  O1_8
REMARK    3  A    between atoms: C6_10  and  C7_11
REMARK    4  A    between atoms: C7_11  and  C8_12
REMARK    5  A    between atoms: C8_12  and  O2_13
REMARK    6  A    between atoms: C8_12  and  C9_15
REMARK    7  A    between atoms: C9_15  and  C10_16
REMARK    8  A    between atoms: C10_16  and  C11_17
REMARK    9  A    between atoms: C11_17  and  C12_18
REMARK   10  A    between atoms: C12_18  and  C13_19
REMARK   11  A    between atoms: C13_19  and  C14_20
REMARK   12  A    between atoms: C14_20  and  C15_21
REMARK   13  A    between atoms: C15_21  and  C16_22
REMARK   14  A    between atoms: C16_22  and  O3_23
REMARK   15  A    between atoms: C16_22  and  C17_25
REMARK   16  A    between atoms: C17_25  and  C18_26
REMARK   17  A    between atoms: C25_44  and  C26_45
ROOT
HETATM    1  C4  UNL     1      45.954  31.862  28.514  1.00  0.00     0.033 C
HETATM    2  N1  UNL     1      47.138  31.634  27.778  1.00  0.00    -0.343 N
ATOM      3  H1  UNL     1      46.992  30.801  27.207  1.00  0.00     0.167 HD
HETATM    4  C5  UNL     1      48.404  32.091  27.530  1.00  0.00     0.120 C
HETATM    5  C6  UNL     1      49.696  32.093  28.231  1.00  0.00     0.065 C
HETATM    6  C20 UNL     1      49.863  32.928  29.444  1.00  0.00     0.039 C
HETATM    7  C21 UNL     1      50.042  34.407  29.196  1.00  0.00     0.168 C
HETATM    8  O5  UNL     1      49.445  34.855  28.027  1.00  0.00    -0.389 OA
HETATM    9  C22 UNL     1      48.994  36.182  28.219  1.00  0.00     0.195 C
HETATM   10  C23 UNL     1      47.497  36.076  28.430  1.00  0.00     0.266 C
HETATM   11  N4  UNL     1      47.264  34.836  29.161  1.00  0.00    -0.003 N
ATOM     12  H41 UNL     1      47.400  34.951  30.165  1.00  0.00     0.284 HD
ATOM     13  H42 UNL     1      47.997  34.147  28.992  1.00  0.00     0.284 HD
HETATM   14  C24 UNL     1      45.988  34.338  28.852  1.00  0.00     0.440 C
HETATM   15  F1  UNL     1      45.072  35.315  29.288  1.00  0.00    -0.170 F
HETATM   16  F2  UNL     1      45.774  34.277  27.489  1.00  0.00    -0.170 F
HETATM   17  C25 UNL     1      45.630  32.958  29.391  1.00  0.00     0.148 C
ENDROOT
BRANCH   5  18
HETATM   18  C7  UNL     1      50.233  30.720  28.592  1.00  0.00     0.044 C
BRANCH  18  19
HETATM   19  C8  UNL     1      51.425  30.746  29.474  1.00  0.00     0.118 C
BRANCH  19  20
HETATM   20  O2  UNL     1      52.447  30.052  28.822  1.00  0.00    -0.396 OA
ATOM     21  H2  UNL     1      52.595  29.245  29.300  1.00  0.00     0.210 HD
ENDBRANCH  19  20
BRANCH  19  22
HETATM   22  C9  UNL     1      51.188  29.985  30.786  1.00  0.00     0.032 C
BRANCH  22  23
HETATM   23  C10 UNL     1      49.778  29.437  30.767  1.00  0.00     0.002 C
BRANCH  23  24
HETATM   24  C11 UNL     1      49.153  29.497  32.138  1.00  0.00     0.000 C
BRANCH  24  25
HETATM   25  C12 UNL     1      50.025  30.303  33.052  1.00  0.00     0.000 C
BRANCH  25  26
HETATM   26  C13 UNL     1      49.328  31.526  33.617  1.00  0.00     0.000 C
BRANCH  26  27
HETATM   27  C14 UNL     1      49.257  31.455  35.111  1.00  0.00     0.002 C
BRANCH  27  28
HETATM   28  C15 UNL     1      48.099  32.288  35.592  1.00  0.00     0.032 C
BRANCH  28  29
HETATM   29  C16 UNL     1      47.681  33.310  34.568  1.00  0.00     0.125 C
BRANCH  29  30
HETATM   30  O3  UNL     1      46.303  33.164  34.321  1.00  0.00    -0.395 OA
ATOM     31  H3  UNL     1      45.842  33.887  34.731  1.00  0.00     0.210 HD
ENDBRANCH  29  30
BRANCH  29  32
HETATM   32  C17 UNL     1      47.892  34.717  35.093  1.00  0.00     0.117 C
BRANCH  32  33
HETATM   33  C18 UNL     1      48.519  35.544  34.022  1.00  0.00     0.141 A
HETATM   34  N2  UNL     1      48.674  36.880  33.974  1.00  0.00    -0.282 N
HETATM   35  N3  UNL     1      49.290  37.150  32.816  1.00  0.00    -0.288 N
ATOM     36  H2  UNL     1      48.381  37.555  34.681  1.00  0.00     0.189 HD
HETATM   37  C19 UNL     1      49.511  35.998  32.160  1.00  0.00     0.251 A
ATOM     38  H3  UNL     1      49.549  38.079  32.485  1.00  0.00     0.188 HD
HETATM   39  O4  UNL     1      49.031  35.049  32.921  1.00  0.00    -0.290 OA
ENDBRANCH  32  33
ENDBRANCH  29  32
ENDBRANCH  28  29
ENDBRANCH  27  28
ENDBRANCH  26  27
ENDBRANCH  25  26
ENDBRANCH  24  25
ENDBRANCH  23  24
ENDBRANCH  22  23
ENDBRANCH  19  22
ENDBRANCH  18  19
ENDBRANCH   5  18
BRANCH   4  40
HETATM   40  O1  UNL     1      48.571  32.696  26.364  1.00  0.00    -0.349 OA
ATOM     41  H1  UNL     1      49.158  33.444  26.374  1.00  0.00     0.219 HD
ENDBRANCH   4  40
BRANCH   1  42
HETATM   42  C2  UNL     1      45.392  30.539  29.062  1.00  0.00     0.028 C
HETATM   43  C1  UNL     1      46.393  29.449  29.170  1.00  0.00     0.016 C
HETATM   44  C3  UNL     1      44.322  30.005  28.078  1.00  0.00     0.016 C
ENDBRANCH   1  42
BRANCH  17  45
HETATM   45  C26 UNL     1      45.557  32.879  30.864  1.00  0.00     0.423 C
HETATM   46  F3  UNL     1      44.459  32.367  31.455  1.00  0.00    -0.166 F
HETATM   47  F4  UNL     1      45.874  34.034  31.563  1.00  0.00    -0.166 F
HETATM   48  F5  UNL     1      46.609  32.029  31.354  1.00  0.00    -0.166 F
ENDBRANCH  17  45
TORSDOF 17
ENDMDL