MODEL 5
REMARK VINA RESULT: -8.992512498      1.647      2.225
REMARK  15 active torsions:
REMARK  status: ('A' for Active; 'I' for Inactive)
REMARK    1  A    between atoms: C6_8  and  C7_9
REMARK       I    between atoms: C7_9  and  N2_11
REMARK    2  A    between atoms: N2_11  and  C8_13
REMARK    3  A    between atoms: C8_13  and  C9_14
REMARK    4  A    between atoms: C9_14  and  C10_15
REMARK    5  A    between atoms: C10_15  and  N3_16
REMARK    6  A    between atoms: C10_15  and  C11_20
REMARK       I    between atoms: C11_20  and  N4_22
REMARK    7  A    between atoms: N4_22  and  C12_24
REMARK    8  A    between atoms: C12_24  and  C13_25
REMARK    9  A    between atoms: C13_25  and  C14_26
REMARK   10  A    between atoms: C14_26  and  C15_27
REMARK   11  A    between atoms: C15_27  and  C16_28
REMARK   12  A    between atoms: C16_28  and  C17_29
REMARK   13  A    between atoms: C16_28  and  C18_36
REMARK   14  A    between atoms: C17_29  and  O3_30
REMARK   15  A    between atoms: N5_32  and  O4_34
ROOT
HETATM    1  C11 UNL     1      49.075  36.871  29.301  1.00  0.00     0.248 C
HETATM    2  O2  UNL     1      49.560  35.709  29.175  1.00  0.00    -0.271 OA
HETATM    3  N4  UNL     1      49.379  37.709  30.391  1.00  0.00    -0.359 N
ATOM      4  H4  UNL     1      48.956  38.635  30.434  1.00  0.00     0.162 HD
ENDROOT
BRANCH   3   5
HETATM    5  C12 UNL     1      50.253  37.304  31.428  1.00  0.00     0.122 C
BRANCH   5   6
HETATM    6  C13 UNL     1      49.759  37.625  32.841  1.00  0.00     0.020 C
BRANCH   6   7
HETATM    7  C14 UNL     1      48.803  36.581  33.250  1.00  0.00     0.003 C
BRANCH   7   8
HETATM    8  C15 UNL     1      48.957  35.209  32.720  1.00  0.00     0.018 C
BRANCH   8   9
HETATM    9  C16 UNL     1      47.917  34.189  33.049  1.00  0.00     0.101 C
BRANCH   9  10
HETATM   10  C17 UNL     1      47.221  33.598  31.889  1.00  0.00     0.144 C
HETATM   11  N5  UNL     1      46.014  33.200  31.943  1.00  0.00    -0.251 N
ATOM     12  H5  UNL     1      45.650  32.812  31.073  1.00  0.00     0.196 HD
BRANCH  10  13
HETATM   13  O3  UNL     1      47.885  33.465  30.684  1.00  0.00    -0.348 OA
ATOM     14  H3  UNL     1      47.470  33.006  29.964  1.00  0.00     0.219 HD
ENDBRANCH  10  13
BRANCH  11  15
HETATM   15  O4  UNL     1      45.144  33.209  32.962  1.00  0.00    -0.288 OA
ATOM     16  H4  UNL     1      45.227  32.863  33.843  1.00  0.00     0.244 HD
ENDBRANCH  11  15
ENDBRANCH   9  10
BRANCH   9  17
HETATM   17  C18 UNL     1      48.369  33.133  34.003  1.00  0.00     0.037 A
HETATM   18  C19 UNL     1      47.879  33.230  35.306  1.00  0.00     0.168 A
HETATM   19  F1  UNL     1      47.071  34.215  35.749  1.00  0.00    -0.202 F
HETATM   20  C20 UNL     1      48.224  32.287  36.267  1.00  0.00     0.197 A
HETATM   21  F2  UNL     1      47.754  32.364  37.551  1.00  0.00    -0.199 F
HETATM   22  C21 UNL     1      49.056  31.230  35.974  1.00  0.00     0.199 A
HETATM   23  F3  UNL     1      49.388  30.310  36.928  1.00  0.00    -0.199 F
HETATM   24  C22 UNL     1      49.535  31.139  34.695  1.00  0.00     0.197 A
HETATM   25  F4  UNL     1      50.356  30.109  34.385  1.00  0.00    -0.199 F
HETATM   26  C23 UNL     1      49.188  32.089  33.724  1.00  0.00     0.168 A
HETATM   27  F5  UNL     1      49.716  31.878  32.515  1.00  0.00    -0.202 F
ENDBRANCH   9  17
ENDBRANCH   8   9
ENDBRANCH   7   8
ENDBRANCH   6   7
ENDBRANCH   5   6
ENDBRANCH   3   5
BRANCH   1  28
HETATM   28  C10 UNL     1      48.160  37.314  28.236  1.00  0.00     0.276 C
BRANCH  28  29
HETATM   29  C9  UNL     1      46.843  36.625  28.185  1.00  0.00     0.062 C
BRANCH  29  30
HETATM   30  C8  UNL     1      46.781  35.448  27.252  1.00  0.00     0.125 C
BRANCH  30  31
HETATM   31  N2  UNL     1      47.346  34.255  27.854  1.00  0.00    -0.354 N
HETATM   32  C7  UNL     1      46.964  32.988  27.350  1.00  0.00     0.285 C
HETATM   33  O1  UNL     1      46.155  32.923  26.412  1.00  0.00    -0.264 OA
ATOM     34  H2  UNL     1      48.008  34.327  28.627  1.00  0.00     0.162 HD
BRANCH  32  35
HETATM   35  C6  UNL     1      47.504  31.745  27.912  1.00  0.00     0.178 A
HETATM   36  N1  UNL     1      46.903  31.060  28.897  1.00  0.00    -0.330 N
HETATM   37  C5  UNL     1      47.714  29.977  29.138  1.00  0.00     0.103 A
ATOM     38  H1  UNL     1      46.028  31.294  29.367  1.00  0.00     0.168 HD
HETATM   39  C4  UNL     1      48.801  29.992  28.314  1.00  0.00     0.071 A
HETATM   40  S1  UNL     1      47.954  28.565  30.065  1.00  0.00    -0.075 SA
HETATM   41  C3  UNL     1      49.688  28.982  28.443  1.00  0.00     0.046 A
HETATM   42  N6  UNL     1      48.639  31.126  27.548  1.00  0.00    -0.331 N
HETATM   43  C2  UNL     1      49.422  28.031  29.388  1.00  0.00    -0.017 A
HETATM   44  C1  UNL     1      50.251  26.813  29.724  1.00  0.00     0.056 C
HETATM   45  C24 UNL     1      49.496  31.639  26.503  1.00  0.00     0.158 C
ENDBRANCH  32  35
ENDBRANCH  30  31
ENDBRANCH  29  30
ENDBRANCH  28  29
BRANCH  28  46
HETATM   46  N3  UNL     1      48.815  37.035  26.947  1.00  0.00    -0.066 N
ATOM     47  H33 UNL     1      49.771  36.692  27.041  1.00  0.00     0.275 HD
ATOM     48  H32 UNL     1      48.437  36.218  26.467  1.00  0.00     0.275 HD
ATOM     49  H31 UNL     1      48.743  37.895  26.403  1.00  0.00     0.275 HD
ENDBRANCH  28  46
ENDBRANCH   1  28
TORSDOF 15
ENDMDL