MODEL 3
REMARK VINA RESULT: -10.215557875      1.489      1.577
REMARK  15 active torsions:
REMARK  status: ('A' for Active; 'I' for Inactive)
REMARK    1  A    between atoms: N1_1  and  C1_4
REMARK    2  A    between atoms: C4_11  and  C5_12
REMARK    3  A    between atoms: C5_12  and  O1_13
REMARK    4  A    between atoms: C5_12  and  C6_15
REMARK    5  A    between atoms: N4_24  and  C12_25
REMARK    6  A    between atoms: C12_25  and  C13_26
REMARK    7  A    between atoms: C17_31  and  N5_32
REMARK    8  A    between atoms: N5_32  and  S1_34
REMARK    9  A    between atoms: S1_34  and  C18_37
REMARK   10  A    between atoms: C18_37  and  C19_38
REMARK   11  A    between atoms: C19_38  and  C20_39
REMARK   12  A    between atoms: C20_39  and  C21_40
REMARK   13  A    between atoms: C21_40  and  C22_41
REMARK   14  A    between atoms: C22_41  and  C23_42
REMARK   15  A    between atoms: C23_42  and  N6_43
ROOT
HETATM    1  C1  UNL     1      49.254  36.997  30.837  1.00  0.00     0.130 A
HETATM    2  N2  UNL     1      49.552  37.385  32.079  1.00  0.00    -0.337 N
ATOM      3  H2  UNL     1      50.091  38.241  32.218  1.00  0.00     0.168 HD
HETATM    4  C2  UNL     1      49.157  36.672  33.156  1.00  0.00     0.182 A
HETATM    5  N3  UNL     1      48.447  35.537  33.045  1.00  0.00    -0.349 N
ATOM      6  H3  UNL     1      48.162  35.019  33.876  1.00  0.00     0.167 HD
HETATM    7  C3  UNL     1      48.118  35.100  31.819  1.00  0.00     0.092 A
HETATM    8  C4  UNL     1      47.410  33.992  31.396  1.00  0.00     0.091 A
HETATM    9  N4  UNL     1      47.377  34.039  30.064  1.00  0.00    -0.286 N
HETATM   10  N7  UNL     1      48.043  35.138  29.654  1.00  0.00    -0.292 N
ATOM     11  H7  UNL     1      48.167  35.410  28.678  1.00  0.00     0.187 HD
HETATM   12  C25 UNL     1      48.518  35.824  30.700  1.00  0.00     0.120 A
ENDROOT
BRANCH   9  13
HETATM   13  C12 UNL     1      46.767  33.154  29.119  1.00  0.00     0.191 C
BRANCH  13  14
HETATM   14  C13 UNL     1      47.636  32.164  28.479  1.00  0.00     0.005 A
HETATM   15  C14 UNL     1      48.363  32.537  27.362  1.00  0.00     0.054 A
HETATM   16  C15 UNL     1      49.190  31.612  26.784  1.00  0.00     0.119 A
HETATM   17  F4  UNL     1      49.917  31.935  25.692  1.00  0.00    -0.206 F
HETATM   18  C16 UNL     1      49.292  30.327  27.316  1.00  0.00     0.075 A
HETATM   19  C17 UNL     1      48.585  29.938  28.418  1.00  0.00     0.084 A
HETATM   20  C24 UNL     1      47.750  30.890  28.990  1.00  0.00     0.151 A
HETATM   21  F5  UNL     1      47.063  30.476  30.089  1.00  0.00    -0.203 F
BRANCH  19  22
HETATM   22  N5  UNL     1      48.681  28.639  28.933  1.00  0.00    -0.281 N
ATOM     23  H5  UNL     1      47.971  27.977  28.620  1.00  0.00     0.178 HD
BRANCH  22  24
HETATM   24  S1  UNL     1      49.826  28.043  30.003  1.00  0.00     0.231 S
HETATM   25  O2  UNL     1      51.201  28.427  29.426  1.00  0.00    -0.206 OA
HETATM   26  O3  UNL     1      49.807  28.806  31.336  1.00  0.00    -0.206 OA
BRANCH  24  27
HETATM   27  C18 UNL     1      49.888  26.325  30.282  1.00  0.00     0.163 C
BRANCH  27  28
HETATM   28  C19 UNL     1      48.584  25.672  30.623  1.00  0.00     0.017 C
BRANCH  28  29
HETATM   29  C20 UNL     1      48.270  25.693  32.089  1.00  0.00     0.001 C
BRANCH  29  30
HETATM   30  C21 UNL     1      48.270  24.295  32.668  1.00  0.00     0.002 C
BRANCH  30  31
HETATM   31  C22 UNL     1      48.644  23.245  31.653  1.00  0.00     0.027 C
BRANCH  31  32
HETATM   32  C23 UNL     1      50.007  22.646  31.981  1.00  0.00     0.229 C
BRANCH  32  33
HETATM   33  N6  UNL     1      50.741  22.493  30.746  1.00  0.00    -0.079 N
ATOM     34  H63 UNL     1      50.136  22.276  29.954  1.00  0.00     0.274 HD
ATOM     35  H62 UNL     1      51.113  23.377  30.397  1.00  0.00     0.274 HD
ATOM     36  H61 UNL     1      51.466  21.791  30.892  1.00  0.00     0.274 HD
ENDBRANCH  32  33
ENDBRANCH  31  32
ENDBRANCH  30  31
ENDBRANCH  29  30
ENDBRANCH  28  29
ENDBRANCH  27  28
ENDBRANCH  24  27
ENDBRANCH  22  24
ENDBRANCH  19  22
ENDBRANCH  13  14
ENDBRANCH   9  13
BRANCH   8  37
HETATM   37  C5  UNL     1      46.785  33.003  32.262  1.00  0.00     0.205 C
BRANCH  37  38
HETATM   38  O1  UNL     1      45.529  33.398  32.775  1.00  0.00    -0.385 OA
ATOM     39  H1  UNL     1      45.459  34.330  32.950  1.00  0.00     0.211 HD
ENDBRANCH  37  38
BRANCH  37  40
HETATM   40  C6  UNL     1      47.642  32.438  33.332  1.00  0.00    -0.018 A
HETATM   41  C7  UNL     1      47.345  32.725  34.651  1.00  0.00     0.055 A
HETATM   42  C8  UNL     1      48.109  32.241  35.688  1.00  0.00     0.158 A
HETATM   43  F1  UNL     1      47.790  32.546  36.996  1.00  0.00    -0.203 F
HETATM   44  C9  UNL     1      49.204  31.450  35.432  1.00  0.00     0.193 A
HETATM   45  F2  UNL     1      49.966  30.969  36.470  1.00  0.00    -0.200 F
HETATM   46  C10 UNL     1      49.518  31.152  34.133  1.00  0.00     0.158 A
HETATM   47  F3  UNL     1      50.604  30.367  33.921  1.00  0.00    -0.203 F
HETATM   48  C11 UNL     1      48.742  31.643  33.105  1.00  0.00     0.055 A
ENDBRANCH  37  40
ENDBRANCH   8  37
BRANCH   1  49
HETATM   49  N1  UNL     1      49.586  37.610  29.756  1.00  0.00    -0.383 N
ATOM     50  H12 UNL     1      50.582  37.747  29.585  1.00  0.00     0.157 HD
ATOM     51  H11 UNL     1      48.942  37.973  29.053  1.00  0.00     0.157 HD
ENDBRANCH   1  49
TORSDOF 15
ENDMDL