MODEL 1
REMARK VINA RESULT: -8.416663720      0.000      0.000
REMARK  15 active torsions:
REMARK  status: ('A' for Active; 'I' for Inactive)
REMARK    1  A    between atoms: O1_2  and  C2_3
REMARK    2  A    between atoms: C4_5  and  C5_6
REMARK    3  A    between atoms: C5_6  and  C9_17
REMARK    4  A    between atoms: C6_7  and  N1_8
REMARK       I    between atoms: C7_10  and  N3_12
REMARK    5  A    between atoms: N3_12  and  C8_14
REMARK    6  A    between atoms: C11_19  and  O2_20
REMARK    7  A    between atoms: C12_24  and  O3_25
REMARK    8  A    between atoms: C15_30  and  C16_31
REMARK    9  A    between atoms: C16_31  and  N5_32
REMARK   10  A    between atoms: N5_32  and  C17_34
REMARK   11  A    between atoms: C17_34  and  C18_35
REMARK   12  A    between atoms: C18_35  and  C19_36
REMARK   13  A    between atoms: C21_38  and  O4_39
REMARK   14  A    between atoms: C23_41  and  O5_42
REMARK   15  A    between atoms: C25_44  and  O6_45
ROOT
HETATM    1  C2  UNL     1      51.050  29.700  30.869  1.00  0.00     0.080 A
HETATM    2  C3  UNL     1      50.676  30.755  31.698  1.00  0.00     0.050 A
HETATM    3  C4  UNL     1      49.437  30.951  32.153  1.00  0.00    -0.018 A
HETATM    4  C13 UNL     1      48.449  30.031  31.774  1.00  0.00     0.055 A
HETATM    5  C14 UNL     1      48.790  28.981  30.955  1.00  0.00     0.127 A
HETATM    6  F4  UNL     1      47.855  28.049  30.558  1.00  0.00    -0.205 F
HETATM    7  C15 UNL     1      50.064  28.793  30.495  1.00  0.00     0.031 A
ENDROOT
BRANCH   3   8
HETATM    8  C5  UNL     1      49.030  32.143  32.939  1.00  0.00     0.004 C
HETATM    9  C6  UNL     1      49.194  33.248  32.309  1.00  0.00     0.104 C
BRANCH   9  10
HETATM   10  N1  UNL     1      48.929  34.563  32.693  1.00  0.00    -0.338 N
HETATM   11  C7  UNL     1      49.808  35.516  32.468  1.00  0.00     0.224 C
HETATM   12  N2  UNL     1      51.031  35.200  31.832  1.00  0.00    -0.061 NA
HETATM   13  N3  UNL     1      49.586  36.873  32.851  1.00  0.00    -0.124 N
HETATM   14  F1  UNL     1      49.703  37.780  31.822  1.00  0.00    -0.091 F
ATOM     15  H1  UNL     1      48.046  34.788  33.152  1.00  0.00     0.168 HD
BRANCH  13  16
HETATM   16  C8  UNL     1      49.273  37.298  34.183  1.00  0.00     0.491 C
HETATM   17  F2  UNL     1      47.879  37.231  34.331  1.00  0.00    -0.188 F
HETATM   18  F3  UNL     1      49.919  36.477  35.082  1.00  0.00    -0.188 F
ENDBRANCH  13  16
ENDBRANCH   9  10
BRANCH   8  19
HETATM   19  C9  UNL     1      48.720  32.005  34.354  1.00  0.00     0.031 A
HETATM   20  C10 UNL     1      49.353  31.207  35.315  1.00  0.00     0.072 A
HETATM   21  C11 UNL     1      48.815  31.436  36.558  1.00  0.00     0.142 A
HETATM   22  N4  UNL     1      47.882  32.336  36.429  1.00  0.00    -0.317 N
HETATM   23  C12 UNL     1      47.778  32.718  35.118  1.00  0.00     0.153 A
ATOM     24  H4  UNL     1      47.314  32.703  37.192  1.00  0.00     0.170 HD
BRANCH  21  25
HETATM   25  O2  UNL     1      49.240  30.780  37.739  1.00  0.00    -0.346 OA
ATOM     26  H2  UNL     1      48.959  31.024  38.614  1.00  0.00     0.219 HD
ENDBRANCH  21  25
BRANCH  23  27
HETATM   27  O3  UNL     1      46.859  33.674  34.720  1.00  0.00    -0.345 OA
ATOM     28  H3  UNL     1      46.266  33.675  33.977  1.00  0.00     0.219 HD
ENDBRANCH  23  27
ENDBRANCH   8  19
ENDBRANCH   3   8
BRANCH   1  29
HETATM   29  O1  UNL     1      52.313  29.496  30.393  1.00  0.00    -0.355 OA
HETATM   30  C1  UNL     1      53.229  30.422  29.919  1.00  0.00     0.210 C
ENDBRANCH   1  29
BRANCH   7  31
HETATM   31  C16 UNL     1      50.461  27.624  29.624  1.00  0.00     0.159 C
BRANCH  31  32
HETATM   32  N5  UNL     1      50.810  28.117  28.337  1.00  0.00    -0.417 N
ATOM     33  H5  UNL     1      51.739  27.925  27.960  1.00  0.00     0.153 HD
BRANCH  32  34
HETATM   34  C17 UNL     1      49.900  28.861  27.581  1.00  0.00     0.118 C
BRANCH  34  35
HETATM   35  C18 UNL     1      50.508  30.265  27.337  1.00  0.00     0.058 C
BRANCH  35  36
HETATM   36  C19 UNL     1      49.476  31.214  27.840  1.00  0.00    -0.051 A
HETATM   37  C20 UNL     1      49.712  32.459  28.346  1.00  0.00     0.047 A
HETATM   38  C21 UNL     1      48.641  33.221  28.834  1.00  0.00     0.104 A
HETATM   39  C23 UNL     1      47.355  32.735  28.812  1.00  0.00     0.135 A
HETATM   40  C25 UNL     1      47.120  31.474  28.301  1.00  0.00     0.104 A
HETATM   41  C27 UNL     1      48.173  30.709  27.813  1.00  0.00     0.047 A
BRANCH  38  42
HETATM   42  O4  UNL     1      48.855  34.484  29.343  1.00  0.00    -0.353 OA
HETATM   43  C22 UNL     1      49.012  35.564  28.449  1.00  0.00     0.210 C
ENDBRANCH  38  42
BRANCH  39  44
HETATM   44  O5  UNL     1      46.337  33.491  29.287  1.00  0.00    -0.351 OA
HETATM   45  C24 UNL     1      45.843  33.539  30.591  1.00  0.00     0.210 C
ENDBRANCH  39  44
BRANCH  40  46
HETATM   46  O6  UNL     1      45.830  30.992  28.290  1.00  0.00    -0.353 OA
HETATM   47  C26 UNL     1      45.454  30.069  29.305  1.00  0.00     0.210 C
ENDBRANCH  40  46
ENDBRANCH  35  36
ENDBRANCH  34  35
ENDBRANCH  32  34
ENDBRANCH  31  32
ENDBRANCH   7  31
TORSDOF 15
ENDMDL