MODEL 4
REMARK VINA RESULT: -8.559902149      3.640      7.774
REMARK  16 active torsions:
REMARK  status: ('A' for Active; 'I' for Inactive)
REMARK    1  A    between atoms: C2_2  and  N1_3
REMARK    2  A    between atoms: N1_3  and  C3_4
REMARK    3  A    between atoms: N1_3  and  C23_43
REMARK    4  A    between atoms: C3_4  and  C4_5
REMARK    5  A    between atoms: C4_5  and  C5_6
REMARK    6  A    between atoms: C5_6  and  C6_7
REMARK    7  A    between atoms: C6_7  and  S1_8
REMARK    8  A    between atoms: S1_8  and  C7_9
REMARK    9  A    between atoms: C8_12  and  N3_13
REMARK   10  A    between atoms: N3_13  and  C9_15
REMARK   11  A    between atoms: C9_15  and  C10_16
REMARK   12  A    between atoms: C10_16  and  C11_17
REMARK   13  A    between atoms: C11_17  and  N4_18
REMARK   14  A    between atoms: N4_18  and  C12_20
REMARK   15  A    between atoms: C13_23  and  N6_24
REMARK   16  A    between atoms: C23_43  and  C24_44
ROOT
HETATM    1  C12 UNL     1      45.352  35.218  27.223  1.00  0.00     0.141 A
HETATM    2  N5  UNL     1      45.456  36.401  26.610  1.00  0.00    -0.176 N
ATOM      3  H5  UNL     1      45.702  37.219  27.167  1.00  0.00     0.186 HD
HETATM    4  C13 UNL     1      45.248  36.562  25.276  1.00  0.00     0.678 A
HETATM    5  N7  UNL     1      44.927  35.490  24.553  1.00  0.00    -0.177 N
ATOM      6  H7  UNL     1      44.768  35.596  23.552  1.00  0.00     0.185 HD
HETATM    7  C14 UNL     1      44.806  34.253  25.115  1.00  0.00     0.156 A
HETATM    8  N8  UNL     1      44.464  33.128  24.329  1.00  0.00    -0.080 NA
HETATM    9  C15 UNL     1      45.016  34.107  26.452  1.00  0.00     0.130 A
HETATM   10  C16 UNL     1      44.902  32.817  27.090  1.00  0.00     0.107 C
HETATM   11  N9  UNL     1      44.826  31.779  27.590  1.00  0.00    -0.191 NA
ENDROOT
BRANCH   1  12
HETATM   12  N4  UNL     1      45.540  35.011  28.464  1.00  0.00    -0.374 N
ATOM     13  H4  UNL     1      45.553  34.033  28.754  1.00  0.00     0.161 HD
BRANCH  12  14
HETATM   14  C11 UNL     1      45.731  35.959  29.494  1.00  0.00     0.123 C
BRANCH  14  15
HETATM   15  C10 UNL     1      46.909  35.671  30.410  1.00  0.00     0.039 C
BRANCH  15  16
HETATM   16  C9  UNL     1      46.798  34.255  30.984  1.00  0.00     0.123 C
BRANCH  16  17
HETATM   17  N3  UNL     1      47.644  34.125  32.153  1.00  0.00    -0.375 N
ATOM     18  H3  UNL     1      47.517  34.730  32.965  1.00  0.00     0.161 HD
BRANCH  17  19
HETATM   19  C8  UNL     1      48.561  33.220  32.133  1.00  0.00     0.115 A
HETATM   20  N2  UNL     1      49.300  32.935  31.043  1.00  0.00    -0.322 N
HETATM   21  C7  UNL     1      50.280  31.973  31.057  1.00  0.00     0.146 A
ATOM     22  H2  UNL     1      49.125  33.450  30.181  1.00  0.00     0.169 HD
HETATM   23  N10 UNL     1      50.495  31.308  32.199  1.00  0.00    -0.336 N
HETATM   24  C22 UNL     1      49.790  31.537  33.346  1.00  0.00     0.048 A
ATOM     25  H10 UNL     1      51.222  30.594  32.214  1.00  0.00     0.168 HD
HETATM   26  C17 UNL     1      48.818  32.508  33.287  1.00  0.00     0.036 A
HETATM   27  C21 UNL     1      50.055  30.825  34.495  1.00  0.00     0.032 A
HETATM   28  C18 UNL     1      48.070  32.793  34.411  1.00  0.00     0.041 A
HETATM   29  C19 UNL     1      48.340  32.076  35.557  1.00  0.00     0.035 A
HETATM   30 CL1  UNL     1      47.366  32.469  36.965  1.00  0.00    -0.084 Cl
HETATM   31  C20 UNL     1      49.317  31.098  35.621  1.00  0.00     0.026 A
BRANCH  21  32
HETATM   32  S1  UNL     1      51.205  31.629  29.561  1.00  0.00    -0.094 SA
BRANCH  32  33
HETATM   33  C6  UNL     1      50.128  31.857  28.126  1.00  0.00     0.082 C
BRANCH  33  34
HETATM   34  C5  UNL     1      50.362  30.766  27.149  1.00  0.00     0.012 C
BRANCH  34  35
HETATM   35  C4  UNL     1      50.490  29.374  27.808  1.00  0.00     0.031 C
BRANCH  35  36
HETATM   36  C3  UNL     1      49.150  28.854  28.046  1.00  0.00     0.272 C
BRANCH  36  37
HETATM   37  N1  UNL     1      48.616  28.803  29.392  1.00  0.00     0.096 N
BRANCH  37  38
HETATM   38  C2  UNL     1      47.317  29.570  29.180  1.00  0.00     0.268 C
HETATM   39  C1  UNL     1      46.927  30.250  30.451  1.00  0.00     0.037 C
ENDBRANCH  37  38
BRANCH  37  40
HETATM   40  C23 UNL     1      48.166  27.545  29.864  1.00  0.00     0.389 C
BRANCH  40  41
HETATM   41  C24 UNL     1      48.718  27.051  31.165  1.00  0.00     0.413 C
HETATM   42  F1  UNL     1      49.179  28.152  31.922  1.00  0.00    -0.169 F
HETATM   43  F2  UNL     1      47.993  26.210  31.909  1.00  0.00    -0.169 F
HETATM   44  F3  UNL     1      49.943  26.359  30.918  1.00  0.00    -0.169 F
ENDBRANCH  40  41
ENDBRANCH  37  40
ENDBRANCH  36  37
ENDBRANCH  35  36
ENDBRANCH  34  35
ENDBRANCH  33  34
ENDBRANCH  32  33
ENDBRANCH  21  32
ENDBRANCH  17  19
ENDBRANCH  16  17
ENDBRANCH  15  16
ENDBRANCH  14  15
ENDBRANCH  12  14
ENDBRANCH   1  12
BRANCH   4  45
HETATM   45  N6  UNL     1      45.362  37.732  24.729  1.00  0.00    -0.234 N
ATOM     46  H62 UNL     1      44.598  38.144  24.193  1.00  0.00     0.174 HD
ATOM     47  H61 UNL     1      46.227  38.265  24.826  1.00  0.00     0.174 HD
ENDBRANCH   4  45
TORSDOF 16
ENDMDL