MODEL 5
REMARK VINA RESULT: -9.505819100      4.395      6.485
REMARK  15 active torsions:
REMARK  status: ('A' for Active; 'I' for Inactive)
REMARK    1  A    between atoms: C2_2  and  C5_5
REMARK    2  A    between atoms: C5_5  and  C6_6
REMARK    3  A    between atoms: C6_6  and  C7_7
REMARK    4  A    between atoms: C7_7  and  C8_8
REMARK    5  A    between atoms: C8_8  and  N1_9
REMARK    6  A    between atoms: C8_8  and  C21_38
REMARK    7  A    between atoms: C8_8  and  C27_47
REMARK    8  A    between atoms: N1_9  and  C9_11
REMARK    9  A    between atoms: C9_11  and  C10_12
REMARK   10  A    between atoms: C10_12  and  C11_13
REMARK   11  A    between atoms: C12_15  and  C13_16
REMARK   12  A    between atoms: C13_16  and  O2_17
REMARK   13  A    between atoms: C14_19  and  N2_20
REMARK   14  A    between atoms: C17_25  and  N4_26
REMARK   15  A    between atoms: C20_35  and  O3_36
ROOT
HETATM    1  C11 UNL     1      46.562  31.041  29.614  1.00  0.00     0.154 C
HETATM    2  O1  UNL     1      46.789  31.524  28.330  1.00  0.00    -0.374 OA
HETATM    3  C12 UNL     1      45.566  32.042  27.878  1.00  0.00     0.171 C
HETATM    4  C14 UNL     1      44.468  31.393  28.640  1.00  0.00     0.154 C
HETATM    5  C20 UNL     1      45.245  30.281  29.361  1.00  0.00     0.173 C
ENDROOT
BRANCH   1   6
HETATM    6  C10 UNL     1      47.544  30.050  30.099  1.00  0.00     0.054 C
BRANCH   6   7
HETATM    7  C9  UNL     1      48.061  30.317  31.528  1.00  0.00     0.117 C
BRANCH   7   8
HETATM    8  N1  UNL     1      47.712  31.592  31.978  1.00  0.00    -0.404 N
ATOM      9  H1  UNL     1      46.792  31.957  31.736  1.00  0.00     0.154 HD
BRANCH   8  10
HETATM   10  C8  UNL     1      48.577  32.401  32.757  1.00  0.00     0.116 C
BRANCH  10  11
HETATM   11  C7  UNL     1      49.896  32.684  32.150  1.00  0.00     0.041 C
BRANCH  11  12
HETATM   12  C6  UNL     1      50.149  32.720  30.727  1.00  0.00     0.004 C
BRANCH  12  13
HETATM   13  C5  UNL     1      51.284  31.820  30.314  1.00  0.00     0.008 C
BRANCH  13  14
HETATM   14  C2  UNL     1      51.390  31.289  28.963  1.00  0.00    -0.051 C
HETATM   15  C1  UNL     1      52.758  31.393  28.334  1.00  0.00     0.014 C
HETATM   16  C3  UNL     1      51.209  29.720  29.172  1.00  0.00     0.014 C
HETATM   17  C4  UNL     1      50.308  31.611  28.002  1.00  0.00     0.014 C
ENDBRANCH  13  14
ENDBRANCH  12  13
ENDBRANCH  11  12
ENDBRANCH  10  11
BRANCH  10  18
HETATM   18  C21 UNL     1      48.479  32.206  34.215  1.00  0.00     0.017 A
HETATM   19  C22 UNL     1      47.573  32.955  34.933  1.00  0.00     0.016 A
HETATM   20  C23 UNL     1      47.475  32.824  36.319  1.00  0.00     0.046 A
HETATM   21  C24 UNL     1      48.256  31.964  37.025  1.00  0.00     0.158 A
HETATM   22  F1  UNL     1      48.170  31.823  38.386  1.00  0.00    -0.203 F
HETATM   23  C25 UNL     1      49.165  31.212  36.326  1.00  0.00     0.193 A
HETATM   24  F2  UNL     1      49.946  30.358  37.026  1.00  0.00    -0.200 F
HETATM   25  C26 UNL     1      49.262  31.346  34.929  1.00  0.00     0.167 A
HETATM   26  F3  UNL     1      50.220  30.556  34.401  1.00  0.00    -0.202 F
ENDBRANCH  10  18
BRANCH  10  27
HETATM   27  C27 UNL     1      47.846  33.817  32.618  1.00  0.00     0.385 C
HETATM   28  F4  UNL     1      48.809  34.805  32.585  1.00  0.00    -0.211 F
HETATM   29  F5  UNL     1      47.179  33.848  31.415  1.00  0.00    -0.211 F
ENDBRANCH  10  27
ENDBRANCH   8  10
ENDBRANCH   7   8
ENDBRANCH   6   7
ENDBRANCH   1   6
BRANCH   5  30
HETATM   30  O3  UNL     1      45.580  29.264  28.454  1.00  0.00    -0.391 OA
ATOM     31  H3  UNL     1      44.766  28.802  28.290  1.00  0.00     0.210 HD
ENDBRANCH   5  30
BRANCH   3  32
HETATM   32  C13 UNL     1      45.612  33.521  28.263  1.00  0.00     0.198 C
BRANCH  32  33
HETATM   33  O2  UNL     1      44.849  34.232  27.339  1.00  0.00    -0.398 OA
ATOM     34  H2  UNL     1      44.963  33.825  26.488  1.00  0.00     0.209 HD
ENDBRANCH  32  33
ENDBRANCH   3  32
BRANCH   4  35
HETATM   35  N2  UNL     1      43.398  30.838  27.870  1.00  0.00    -0.317 N
HETATM   36  C15 UNL     1      43.371  30.833  26.514  1.00  0.00     0.185 A
HETATM   37  N3  UNL     1      42.233  30.234  26.106  1.00  0.00    -0.346 N
HETATM   38  C16 UNL     1      41.526  29.852  27.161  1.00  0.00     0.122 A
ATOM     39  H3  UNL     1      41.958  30.097  25.133  1.00  0.00     0.167 HD
HETATM   40  C17 UNL     1      40.310  29.204  27.314  1.00  0.00     0.131 A
HETATM   41  C19 UNL     1      42.272  30.239  28.278  1.00  0.00     0.141 A
HETATM   42  N5  UNL     1      39.866  28.956  28.551  1.00  0.00    -0.337 N
HETATM   43  C18 UNL     1      40.589  29.331  29.618  1.00  0.00     0.183 A
ATOM     44  H5  UNL     1      38.974  28.479  28.683  1.00  0.00     0.168 HD
HETATM   45  N6  UNL     1      41.767  29.960  29.472  1.00  0.00    -0.336 N
ATOM     46  H6  UNL     1      42.289  30.231  30.305  1.00  0.00     0.168 HD
BRANCH  40  47
HETATM   47  N4  UNL     1      39.666  28.872  26.257  1.00  0.00    -0.383 N
ATOM     48  H42 UNL     1      39.825  29.304  25.347  1.00  0.00     0.157 HD
ATOM     49  H41 UNL     1      38.960  28.139  26.334  1.00  0.00     0.157 HD
ENDBRANCH  40  47
ENDBRANCH   4  35
TORSDOF 15
ENDMDL