MODEL 3
REMARK VINA RESULT: -8.613130427      1.162      1.887
REMARK  15 active torsions:
REMARK  status: ('A' for Active; 'I' for Inactive)
REMARK    1  A    between atoms: N1_1  and  C1_5
REMARK    2  A    between atoms: C3_7  and  O1_8
REMARK    3  A    between atoms: O1_8  and  C4_9
REMARK    4  A    between atoms: C7_13  and  O2_14
REMARK    5  A    between atoms: O2_14  and  C8_15
REMARK    6  A    between atoms: C8_15  and  C9_18
REMARK    7  A    between atoms: C11_22  and  N2_23
REMARK    8  A    between atoms: N2_23  and  C12_25
REMARK    9  A    between atoms: C12_25  and  C13_26
REMARK   10  A    between atoms: C12_25  and  C16_32
REMARK   11  A    between atoms: C13_26  and  O3_27
REMARK   12  A    between atoms: O3_27  and  C14_28
REMARK   13  A    between atoms: C16_32  and  C17_33
REMARK   14  A    between atoms: C27_43  and  O4_44
REMARK   15  A    between atoms: C28_46  and  O5_47
ROOT
HETATM    1  C4  UNL     1      47.318  35.334  30.438  1.00  0.00     0.100 A
HETATM    2  C5  UNL     1      48.065  35.972  31.448  1.00  0.00     0.066 A
HETATM    3  C6  UNL     1      48.475  35.332  32.550  1.00  0.00     0.073 A
HETATM    4 CL1  UNL     1      49.404  36.199  33.767  1.00  0.00    -0.081 Cl
HETATM    5  C7  UNL     1      48.166  34.006  32.717  1.00  0.00     0.138 A
HETATM    6  C10 UNL     1      47.436  33.361  31.741  1.00  0.00     0.180 A
HETATM    7  F4  UNL     1      47.130  32.076  31.971  1.00  0.00    -0.201 F
HETATM    8  C11 UNL     1      46.985  33.945  30.595  1.00  0.00     0.104 A
ENDROOT
BRANCH   8   9
HETATM    9  N2  UNL     1      46.220  33.357  29.592  1.00  0.00    -0.378 N
ATOM     10  H2  UNL     1      45.264  33.713  29.572  1.00  0.00     0.160 HD
BRANCH   9  11
HETATM   11  C12 UNL     1      46.455  32.390  28.603  1.00  0.00     0.107 C
BRANCH  11  12
HETATM   12  C13 UNL     1      45.164  32.016  27.844  1.00  0.00     0.202 C
BRANCH  12  13
HETATM   13  O3  UNL     1      44.852  30.626  28.118  1.00  0.00    -0.333 OA
BRANCH  13  14
HETATM   14  C14 UNL     1      44.110  30.409  29.270  1.00  0.00     0.158 A
HETATM   15  C15 UNL     1      43.017  29.982  29.932  1.00  0.00     0.146 A
HETATM   16  N3  UNL     1      44.075  30.541  30.703  1.00  0.00    -0.342 N
ATOM     17  H3  UNL     1      44.490  30.821  31.592  1.00  0.00     0.167 HD
ENDBRANCH  13  14
ENDBRANCH  12  13
ENDBRANCH  11  12
BRANCH  11  18
HETATM   18  C16 UNL     1      47.586  32.497  27.683  1.00  0.00     0.036 C
BRANCH  18  19
HETATM   19  C17 UNL     1      48.926  31.975  27.936  1.00  0.00    -0.037 C
HETATM   20  C18 UNL     1      49.599  31.373  26.736  1.00  0.00     0.014 C
HETATM   21  C19 UNL     1      50.854  30.590  27.075  1.00  0.00    -0.013 C
HETATM   22  C20 UNL     1      51.813  31.593  27.678  1.00  0.00     0.009 C
HETATM   23  C24 UNL     1      50.536  29.456  27.977  1.00  0.00     0.009 C
HETATM   24  C21 UNL     1      51.166  32.134  28.924  1.00  0.00    -0.013 C
HETATM   25  C22 UNL     1      50.953  30.968  29.866  1.00  0.00     0.009 C
HETATM   26  C26 UNL     1      49.878  32.888  28.659  1.00  0.00     0.014 C
HETATM   27  C23 UNL     1      49.946  30.063  29.242  1.00  0.00    -0.013 C
HETATM   28  C25 UNL     1      48.709  30.800  28.921  1.00  0.00     0.014 C
ENDBRANCH  18  19
ENDBRANCH  11  18
ENDBRANCH   9  11
ENDBRANCH   8   9
BRANCH   1  29
HETATM   29  O1  UNL     1      46.952  36.005  29.399  1.00  0.00    -0.341 OA
BRANCH  29  30
HETATM   30  C3  UNL     1      46.614  36.652  28.363  1.00  0.00     0.162 C
HETATM   31  C2  UNL     1      45.520  36.043  27.462  1.00  0.00     0.070 C
HETATM   32  C1  UNL     1      45.593  36.883  26.205  1.00  0.00     0.217 C
HETATM   33  C28 UNL     1      46.906  37.599  26.230  1.00  0.00     0.179 C
HETATM   34  C27 UNL     1      47.694  36.861  27.274  1.00  0.00     0.178 C
BRANCH  32  35
HETATM   35  N1  UNL     1      45.490  36.054  25.013  1.00  0.00    -0.072 N
ATOM     36  H13 UNL     1      45.761  35.090  25.203  1.00  0.00     0.274 HD
ATOM     37  H12 UNL     1      44.518  35.895  24.750  1.00  0.00     0.274 HD
ATOM     38  H11 UNL     1      46.028  36.450  24.243  1.00  0.00     0.274 HD
ENDBRANCH  32  35
BRANCH  33  39
HETATM   39  O5  UNL     1      47.536  37.627  24.990  1.00  0.00    -0.391 OA
ATOM     40  H5  UNL     1      47.504  38.481  24.576  1.00  0.00     0.210 HD
ENDBRANCH  33  39
BRANCH  34  41
HETATM   41  O4  UNL     1      48.149  35.669  26.775  1.00  0.00    -0.390 OA
ATOM     42  H4  UNL     1      49.075  35.545  26.948  1.00  0.00     0.210 HD
ENDBRANCH  34  41
ENDBRANCH  29  30
ENDBRANCH   1  29
BRANCH   5  43
HETATM   43  O2  UNL     1      48.580  33.341  33.839  1.00  0.00    -0.277 OA
BRANCH  43  44
HETATM   44  C8  UNL     1      47.855  33.182  35.022  1.00  0.00     0.385 C
HETATM   45  F1  UNL     1      47.909  34.272  35.860  1.00  0.00    -0.172 F
HETATM   46  F2  UNL     1      46.528  32.885  34.810  1.00  0.00    -0.172 F
BRANCH  44  47
HETATM   47  C9  UNL     1      48.439  31.990  35.781  1.00  0.00     0.334 C
HETATM   48  F3  UNL     1      47.868  31.878  37.035  1.00  0.00    -0.246 F
ENDBRANCH  44  47
ENDBRANCH  43  44
ENDBRANCH   5  43
TORSDOF 15
ENDMDL