MODEL 1
REMARK VINA RESULT: -8.529682351      0.000      0.000
REMARK  17 active torsions:
REMARK  status: ('A' for Active; 'I' for Inactive)
REMARK    1  A    between atoms: N1_1  and  C1_5
REMARK    2  A    between atoms: C1_5  and  C2_6
REMARK       I    between atoms: C2_6  and  N2_8
REMARK    3  A    between atoms: N2_8  and  C3_10
REMARK    4  A    between atoms: C3_10  and  C4_11
REMARK    5  A    between atoms: C4_11  and  C5_12
REMARK    6  A    between atoms: C5_12  and  C6_13
REMARK    7  A    between atoms: C6_13  and  C7_14
REMARK    8  A    between atoms: C7_14  and  C8_15
REMARK    9  A    between atoms: C9_17  and  N3_18
REMARK   10  A    between atoms: N3_18  and  C10_20
REMARK   11  A    between atoms: C15_32  and  N6_33
REMARK   12  A    between atoms: N6_33  and  C16_35
REMARK   13  A    between atoms: C16_35  and  C17_36
REMARK   14  A    between atoms: C17_36  and  C18_37
REMARK   15  A    between atoms: C18_37  and  C19_38
REMARK   16  A    between atoms: C19_38  and  O2_39
REMARK   17  A    between atoms: C22_43  and  O3_44
ROOT
HETATM    1  N3  UNL     1      47.498  31.596  31.656  1.00  0.00    -0.359 N
ATOM      2  H3  UNL     1      46.534  31.411  31.379  1.00  0.00     0.162 HD
ENDROOT
BRANCH   1   3
HETATM    3  C9  UNL     1      48.528  30.842  31.030  1.00  0.00     0.180 C
HETATM    4  S1  UNL     1      49.134  29.523  32.162  1.00  0.00    -0.130 SA
HETATM    5  C8  UNL     1      49.395  28.219  30.877  1.00  0.00     0.124 C
HETATM    6  C23 UNL     1      49.157  29.020  29.671  1.00  0.00     0.283 C
HETATM    7  C22 UNL     1      47.990  29.955  29.896  1.00  0.00     0.224 C
HETATM    8  F2  UNL     1      50.265  29.876  29.522  1.00  0.00    -0.202 F
HETATM    9  F3  UNL     1      49.080  28.335  28.492  1.00  0.00    -0.202 F
BRANCH   5  10
HETATM   10  C7  UNL     1      48.519  27.079  31.178  1.00  0.00     0.021 C
BRANCH  10  11
HETATM   11  C6  UNL     1      48.906  25.733  30.748  1.00  0.00     0.002 C
BRANCH  11  12
HETATM   12  C5  UNL     1      50.356  25.561  30.370  1.00  0.00     0.005 C
BRANCH  12  13
HETATM   13  C4  UNL     1      51.018  24.381  31.015  1.00  0.00     0.044 C
BRANCH  13  14
HETATM   14  C3  UNL     1      50.257  23.868  32.182  1.00  0.00     0.064 C
BRANCH  14  15
HETATM   15  N2  UNL     1      50.042  22.615  32.358  1.00  0.00    -0.339 N
HETATM   16  C2  UNL     1      49.529  21.781  31.345  1.00  0.00     0.246 C
HETATM   17  O1  UNL     1      48.326  21.861  31.025  1.00  0.00    -0.271 OA
ATOM     18  H2  UNL     1      50.252  22.206  33.268  1.00  0.00     0.167 HD
BRANCH  16  19
HETATM   19  C1  UNL     1      50.393  20.807  30.651  1.00  0.00     0.332 C
BRANCH  19  20
HETATM   20  N1  UNL     1      50.033  20.753  29.266  1.00  0.00    -0.071 N
ATOM     21  H13 UNL     1      49.846  19.801  28.953  1.00  0.00     0.274 HD
ATOM     22  H12 UNL     1      49.108  21.147  29.093  1.00  0.00     0.274 HD
ATOM     23  H11 UNL     1      50.758  21.207  28.710  1.00  0.00     0.274 HD
ENDBRANCH  19  20
ENDBRANCH  16  19
ENDBRANCH  14  15
ENDBRANCH  13  14
ENDBRANCH  12  13
ENDBRANCH  11  12
ENDBRANCH  10  11
ENDBRANCH   5  10
BRANCH   7  24
HETATM   24  O3  UNL     1      47.795  30.703  28.753  1.00  0.00    -0.387 OA
ATOM     25  H3  UNL     1      47.221  30.244  28.152  1.00  0.00     0.210 HD
ENDBRANCH   7  24
ENDBRANCH   1   3
BRANCH   1  26
HETATM   26  C10 UNL     1      47.704  32.486  32.539  1.00  0.00     0.117 A
HETATM   27  N4  UNL     1      47.532  32.337  33.859  1.00  0.00    -0.318 N
HETATM   28  C11 UNL     1      47.770  33.327  34.730  1.00  0.00     0.181 A
ATOM     29  H4  UNL     1      47.208  31.438  34.214  1.00  0.00     0.170 HD
HETATM   30 CL1  UNL     1      47.512  33.024  36.432  1.00  0.00    -0.045 Cl
HETATM   31  N5  UNL     1      48.200  34.523  34.271  1.00  0.00    -0.330 N
HETATM   32  C12 UNL     1      48.394  34.741  32.956  1.00  0.00     0.073 A
ATOM     33  H5  UNL     1      48.381  35.276  34.934  1.00  0.00     0.168 HD
HETATM   34  C13 UNL     1      48.839  35.978  32.487  1.00  0.00     0.102 A
HETATM   35  C21 UNL     1      48.149  33.725  32.059  1.00  0.00     0.039 A
HETATM   36 CL2  UNL     1      49.153  37.279  33.617  1.00  0.00    -0.079 Cl
HETATM   37  C14 UNL     1      49.024  36.150  31.122  1.00  0.00     0.166 A
HETATM   38  F1  UNL     1      49.456  37.345  30.649  1.00  0.00    -0.202 F
HETATM   39  C15 UNL     1      48.788  35.151  30.204  1.00  0.00     0.070 A
HETATM   40  C20 UNL     1      48.345  33.931  30.706  1.00  0.00     0.050 A
BRANCH  39  41
HETATM   41  N6  UNL     1      48.975  35.320  28.813  1.00  0.00    -0.387 N
ATOM     42  H6  UNL     1      49.740  35.909  28.483  1.00  0.00     0.159 HD
BRANCH  41  43
HETATM   43  C16 UNL     1      48.112  34.682  27.850  1.00  0.00     0.120 C
BRANCH  43  44
HETATM   44  C17 UNL     1      46.896  35.536  27.538  1.00  0.00     0.022 C
BRANCH  44  45
HETATM   45  C18 UNL     1      45.652  34.961  28.211  1.00  0.00     0.028 C
BRANCH  45  46
HETATM   46  C19 UNL     1      45.275  35.896  29.344  1.00  0.00     0.164 C
BRANCH  46  47
HETATM   47  O2  UNL     1      46.107  36.990  29.418  1.00  0.00    -0.401 OA
ATOM     48  H2  UNL     1      45.906  37.641  28.756  1.00  0.00     0.209 HD
ENDBRANCH  46  47
ENDBRANCH  45  46
ENDBRANCH  44  45
ENDBRANCH  43  44
ENDBRANCH  41  43
ENDBRANCH  39  41
ENDBRANCH   1  26
TORSDOF 17
ENDMDL