MODEL 5
REMARK VINA RESULT: -9.322245588      2.141      2.714
REMARK  13 active torsions:
REMARK  status: ('A' for Active; 'I' for Inactive)
REMARK    1  A    between atoms: C2_5  and  C3_6
REMARK    2  A    between atoms: C3_6  and  N2_7
REMARK    3  A    between atoms: N2_7  and  C4_10
REMARK    4  A    between atoms: C4_10  and  C5_11
REMARK    5  A    between atoms: C16_31  and  O3_32
REMARK    6  A    between atoms: O3_32  and  C17_33
REMARK    7  A    between atoms: C17_33  and  C18_34
REMARK    8  A    between atoms: C18_34  and  C19_35
REMARK    9  A    between atoms: C19_35  and  C20_36
REMARK   10  A    between atoms: C20_36  and  C21_37
REMARK   11  A    between atoms: C21_37  and  C22_38
REMARK   12  A    between atoms: C22_38  and  O4_39
REMARK   13  A    between atoms: N5_41  and  O5_43
ROOT
HETATM    1  O1  UNL     1      47.825  29.560  31.484  1.00  0.00    -0.267 OA
HETATM    2  C1  UNL     1      47.825  30.713  31.090  1.00  0.00     0.258 C
HETATM    3  N1  UNL     1      47.424  31.787  31.973  1.00  0.00    -0.350 N
ATOM      4  H1  UNL     1      46.825  31.492  32.745  1.00  0.00     0.163 HD
HETATM    5  C2  UNL     1      47.720  33.205  31.961  1.00  0.00     0.114 C
HETATM    6  C6  UNL     1      46.885  34.081  31.137  1.00  0.00     0.069 C
HETATM    7  C7  UNL     1      46.754  33.851  29.691  1.00  0.00    -0.003 A
HETATM    8  C8  UNL     1      47.167  32.951  28.701  1.00  0.00     0.004 A
HETATM    9  C9  UNL     1      46.768  33.021  27.397  1.00  0.00     0.058 A
HETATM   10  C10 UNL     1      45.917  34.036  27.031  1.00  0.00     0.142 A
HETATM   11  F3  UNL     1      45.515  34.125  25.755  1.00  0.00    -0.204 F
HETATM   12  C11 UNL     1      45.481  34.951  27.961  1.00  0.00     0.111 A
HETATM   13 CL1  UNL     1      44.385  36.249  27.452  1.00  0.00    -0.078 Cl
HETATM   14  C12 UNL     1      45.888  34.861  29.254  1.00  0.00     0.148 A
HETATM   15  F4  UNL     1      45.464  35.757  30.190  1.00  0.00    -0.204 F
HETATM   16  C13 UNL     1      48.059  31.791  28.715  1.00  0.00     0.067 A
HETATM   17  N3  UNL     1      48.627  31.777  27.523  1.00  0.00    -0.306 N
ATOM     18  H3  UNL     1      48.460  32.509  26.834  1.00  0.00     0.171 HD
HETATM   19  C14 UNL     1      49.443  30.733  27.276  1.00  0.00     0.332 A
HETATM   20  O2  UNL     1      50.008  30.668  26.158  1.00  0.00    -0.246 OA
HETATM   21  N4  UNL     1      49.664  29.756  28.210  1.00  0.00    -0.255 N
HETATM   22  C15 UNL     1      50.415  28.642  28.184  1.00  0.00     0.159 A
HETATM   23  C16 UNL     1      50.263  28.006  29.425  1.00  0.00     0.160 A
HETATM   24  N6  UNL     1      49.419  28.747  30.186  1.00  0.00    -0.321 N
ATOM     25  H6  UNL     1      49.109  28.551  31.138  1.00  0.00     0.169 HD
HETATM   26  C23 UNL     1      49.083  29.784  29.424  1.00  0.00     0.136 A
HETATM   27  C24 UNL     1      48.264  30.821  29.690  1.00  0.00     0.104 A
ENDROOT
BRANCH  23  28
HETATM   28  O3  UNL     1      50.895  26.820  29.756  1.00  0.00    -0.335 OA
BRANCH  28  29
HETATM   29  C17 UNL     1      50.162  25.802  30.365  1.00  0.00     0.177 C
BRANCH  29  30
HETATM   30  C18 UNL     1      50.982  24.830  31.133  1.00  0.00     0.027 C
BRANCH  30  31
HETATM   31  C19 UNL     1      52.007  24.145  30.319  1.00  0.00     0.002 C
BRANCH  31  32
HETATM   32  C20 UNL     1      53.306  24.840  30.237  1.00  0.00     0.008 C
BRANCH  32  33
HETATM   33  C21 UNL     1      54.382  24.007  29.577  1.00  0.00     0.086 C
BRANCH  33  34
HETATM   34  C22 UNL     1      55.649  24.794  29.540  1.00  0.00     0.135 C
HETATM   35  N5  UNL     1      56.697  24.241  29.038  1.00  0.00    -0.251 N
ATOM     36  H5  UNL     1      57.569  24.768  29.007  1.00  0.00     0.196 HD
BRANCH  34  37
HETATM   37  O4  UNL     1      55.682  26.101  30.046  1.00  0.00    -0.348 OA
ATOM     38  H4  UNL     1      55.967  26.262  30.937  1.00  0.00     0.219 HD
ENDBRANCH  34  37
BRANCH  35  39
HETATM   39  O5  UNL     1      56.672  22.973  28.546  1.00  0.00    -0.288 OA
ATOM     40  H5  UNL     1      57.470  22.479  28.394  1.00  0.00     0.244 HD
ENDBRANCH  35  39
ENDBRANCH  33  34
ENDBRANCH  32  33
ENDBRANCH  31  32
ENDBRANCH  30  31
ENDBRANCH  29  30
ENDBRANCH  28  29
ENDBRANCH  23  28
BRANCH   5  41
HETATM   41  C3  UNL     1      47.857  33.720  33.394  1.00  0.00     0.257 C
BRANCH  41  42
HETATM   42  N2  UNL     1      47.237  32.859  34.340  1.00  0.00    -0.068 N
ATOM     43  H22 UNL     1      46.221  32.854  34.246  1.00  0.00     0.277 HD
ATOM     44  H21 UNL     1      47.409  31.875  34.133  1.00  0.00     0.277 HD
BRANCH  42  45
HETATM   45  C4  UNL     1      47.655  33.213  35.672  1.00  0.00     0.302 C
BRANCH  45  46
HETATM   46  C5  UNL     1      47.988  32.017  36.528  1.00  0.00     0.378 C
HETATM   47  F1  UNL     1      49.177  31.450  36.078  1.00  0.00    -0.213 F
HETATM   48  F2  UNL     1      48.138  32.487  37.836  1.00  0.00    -0.213 F
ENDBRANCH  45  46
ENDBRANCH  42  45
ENDBRANCH  41  42
ENDBRANCH   5  41
TORSDOF 13
ENDMDL