MODEL 4
REMARK VINA RESULT: -8.562788496      3.750      6.901
REMARK  17 active torsions:
REMARK  status: ('A' for Active; 'I' for Inactive)
REMARK    1  A    between atoms: C2_2  and  N1_3
REMARK    2  A    between atoms: N1_3  and  C3_5
REMARK    3  A    between atoms: C3_5  and  S1_9
REMARK    4  A    between atoms: S1_9  and  C5_10
REMARK    5  A    between atoms: C5_10  and  C6_11
REMARK    6  A    between atoms: C6_11  and  N3_12
REMARK    7  A    between atoms: N3_12  and  C7_13
REMARK    8  A    between atoms: N3_12  and  C18_35
REMARK    9  A    between atoms: C7_13  and  C8_14
REMARK   10  A    between atoms: N4_15  and  C9_17
REMARK   11  A    between atoms: C9_17  and  C10_18
REMARK   12  A    between atoms: C10_18  and  N5_19
REMARK   13  A    between atoms: N5_19  and  C11_21
REMARK   14  A    between atoms: C11_21  and  N6_23
REMARK   15  A    between atoms: N6_23  and  C12_25
REMARK   16  A    between atoms: C20_37  and  O1_38
REMARK   17  A    between atoms: C22_41  and  O2_42
ROOT
HETATM    1  N3  UNL     1      48.455  32.033  28.088  1.00  0.00    -0.374 N
ENDROOT
BRANCH   1   2
HETATM    2  C6  UNL     1      48.816  32.431  29.448  1.00  0.00     0.134 C
BRANCH   2   3
HETATM    3  C5  UNL     1      49.866  33.493  29.480  1.00  0.00     0.102 C
BRANCH   3   4
HETATM    4  S1  UNL     1      49.231  35.161  29.368  1.00  0.00    -0.093 SA
BRANCH   4   5
HETATM    5  C3  UNL     1      48.563  35.674  30.944  1.00  0.00     0.135 C
HETATM    6  N2  UNL     1      49.285  35.933  31.958  1.00  0.00    -0.375 N
HETATM    7  C4  UNL     1      48.783  36.342  33.246  1.00  0.00     0.148 C
ATOM      8  H2  UNL     1      50.296  35.846  31.853  1.00  0.00     0.161 HD
BRANCH   5   9
HETATM    9  N1  UNL     1      47.146  35.790  31.066  1.00  0.00    -0.371 N
ATOM     10  H1  UNL     1      46.772  36.298  31.868  1.00  0.00     0.161 HD
BRANCH   9  11
HETATM   11  C2  UNL     1      46.223  35.234  30.128  1.00  0.00     0.117 C
HETATM   12  C1  UNL     1      45.635  33.965  30.707  1.00  0.00     0.026 C
ENDBRANCH   9  11
ENDBRANCH   5   9
ENDBRANCH   4   5
ENDBRANCH   3   4
ENDBRANCH   2   3
ENDBRANCH   1   2
BRANCH   1  13
HETATM   13  C7  UNL     1      49.489  31.376  27.337  1.00  0.00     0.167 C
BRANCH  13  14
HETATM   14  C8  UNL     1      49.719  29.970  27.685  1.00  0.00     0.075 C
HETATM   15  N4  UNL     1      50.737  29.524  28.277  1.00  0.00    -0.399 N
ATOM     16  H4  UNL     1      50.762  28.520  28.456  1.00  0.00     0.158 HD
BRANCH  15  17
HETATM   17  C9  UNL     1      51.866  30.289  28.726  1.00  0.00     0.138 C
BRANCH  17  18
HETATM   18  C10 UNL     1      51.904  30.334  30.228  1.00  0.00     0.141 C
BRANCH  18  19
HETATM   19  N5  UNL     1      51.034  29.434  30.884  1.00  0.00    -0.365 N
ATOM     20  H5  UNL     1      51.143  28.438  30.693  1.00  0.00     0.161 HD
BRANCH  19  21
HETATM   21  C11 UNL     1      49.994  29.840  31.816  1.00  0.00     0.172 C
HETATM   22  S2  UNL     1      48.662  28.924  31.774  1.00  0.00    -0.041 SA
BRANCH  21  23
HETATM   23  N6  UNL     1      50.240  30.930  32.676  1.00  0.00    -0.331 N
ATOM     24  H6  UNL     1      50.992  31.552  32.376  1.00  0.00     0.168 HD
BRANCH  23  25
HETATM   25  C12 UNL     1      49.614  31.294  33.877  1.00  0.00     0.079 A
HETATM   26  C13 UNL     1      49.873  30.745  35.096  1.00  0.00     0.078 A
HETATM   27  C14 UNL     1      49.200  31.138  36.255  1.00  0.00     0.160 A
HETATM   28  F1  UNL     1      49.501  30.557  37.434  1.00  0.00    -0.203 F
HETATM   29  C15 UNL     1      48.234  32.113  36.190  1.00  0.00     0.196 A
HETATM   30  F2  UNL     1      47.580  32.498  37.297  1.00  0.00    -0.199 F
HETATM   31  C16 UNL     1      47.950  32.688  34.964  1.00  0.00     0.198 A
HETATM   32  F3  UNL     1      46.998  33.650  34.899  1.00  0.00    -0.199 F
HETATM   33  C17 UNL     1      48.609  32.300  33.843  1.00  0.00     0.184 A
HETATM   34  F4  UNL     1      48.312  32.881  32.662  1.00  0.00    -0.200 F
ENDBRANCH  23  25
ENDBRANCH  21  23
ENDBRANCH  19  21
ENDBRANCH  18  19
ENDBRANCH  17  18
ENDBRANCH  15  17
ENDBRANCH  13  14
ENDBRANCH   1  13
BRANCH   1  35
HETATM   35  C18 UNL     1      47.153  32.321  27.667  1.00  0.00     0.058 A
HETATM   36  C19 UNL     1      46.883  33.419  26.902  1.00  0.00     0.067 A
HETATM   37  C20 UNL     1      45.589  33.681  26.513  1.00  0.00     0.070 A
HETATM   38  C21 UNL     1      44.561  32.840  26.893  1.00  0.00     0.074 A
HETATM   39  C22 UNL     1      44.817  31.711  27.676  1.00  0.00     0.092 A
HETATM   40  C23 UNL     1      46.122  31.467  28.055  1.00  0.00     0.093 A
HETATM   41 CL1  UNL     1      46.411  30.036  29.035  1.00  0.00    -0.079 Cl
BRANCH  37  42
HETATM   42  O1  UNL     1      45.294  34.790  25.736  1.00  0.00    -0.361 OA
ATOM     43  H1  UNL     1      44.571  35.363  25.962  1.00  0.00     0.217 HD
ENDBRANCH  37  42
BRANCH  39  44
HETATM   44  O2  UNL     1      43.798  30.865  28.060  1.00  0.00    -0.359 OA
ATOM     45  H2  UNL     1      43.954  29.937  28.191  1.00  0.00     0.217 HD
ENDBRANCH  39  44
ENDBRANCH   1  35
TORSDOF 17
ENDMDL