MODEL 3
REMARK VINA RESULT: -6.715020678      1.975      5.320
REMARK  5 active torsions:
REMARK  status: ('A' for Active; 'I' for Inactive)
REMARK    1  A    between atoms: C2_3  and  C3_5
REMARK       I    between atoms: C3_5  and  N2_7
REMARK    2  A    between atoms: N2_7  and  N3_9
REMARK    3  A    between atoms: C4_11  and  C5_12
REMARK    4  A    between atoms: C4_11  and  C6_15
REMARK    5  A    between atoms: C6_15  and  O5_18
ROOT
HETATM    1  C1  UNL     1      36.929  52.928   9.776  1.00  0.00     0.264 C
HETATM    2  N1  UNL     1      35.865  52.516  10.545  1.00  0.00    -0.412 NA
HETATM    3  C2  UNL     1      34.809  52.106  11.309  1.00  0.00     0.380 C
HETATM    4  O1  UNL     1      34.325  52.664  12.310  1.00  0.00    -0.246 OA
ENDROOT
BRANCH   3   5
HETATM    5  C3  UNL     1      34.138  50.845  10.928  1.00  0.00     0.342 C
HETATM    6  O2  UNL     1      33.271  50.375  11.678  1.00  0.00    -0.259 OA
HETATM    7  N2  UNL     1      34.513  50.220   9.726  1.00  0.00    -0.260 N
ATOM      8  H2  UNL     1      35.243  50.679   9.182  1.00  0.00     0.190 HD
BRANCH   7   9
HETATM    9  N3  UNL     1      33.999  49.055   9.207  1.00  0.00    -0.293 N
HETATM   10  C4  UNL     1      34.663  48.117   8.694  1.00  0.00     0.136 C
ATOM     11  H3  UNL     1      32.986  48.940   9.240  1.00  0.00     0.187 HD
BRANCH  10  12
HETATM   12  C5  UNL     1      36.111  48.172   8.596  1.00  0.00     0.227 C
HETATM   13  O3  UNL     1      36.694  47.686   7.566  1.00  0.00    -0.643 OA
HETATM   14  O4  UNL     1      36.893  48.737   9.586  1.00  0.00    -0.643 OA
ENDBRANCH  10  12
BRANCH  10  15
HETATM   15  C6  UNL     1      33.929  46.925   8.148  1.00  0.00     0.101 C
HETATM   16  C7  UNL     1      32.494  46.934   8.588  1.00  0.00     0.052 C
HETATM   17  C8  UNL     1      34.614  45.658   8.667  1.00  0.00     0.052 C
BRANCH  15  18
HETATM   18  O5  UNL     1      34.018  46.946   6.784  1.00  0.00    -0.384 OA
ATOM     19  H5  UNL     1      33.507  46.225   6.436  1.00  0.00     0.211 HD
ENDBRANCH  15  18
ENDBRANCH  10  15
ENDBRANCH   7   9
ENDBRANCH   3   5
TORSDOF 4
ENDMDL