MODEL 3
REMARK VINA RESULT: -7.406859941      1.232      1.265
REMARK  3 active torsions:
REMARK  status: ('A' for Active; 'I' for Inactive)
REMARK       I    between atoms: N1_1  and  C1_4
REMARK       I    between atoms: C1_4  and  N3_6
REMARK    1  A    between atoms: N3_6  and  C2_8
REMARK    2  A    between atoms: C3_13  and  S1_14
REMARK    3  A    between atoms: S1_14  and  N6_15
ROOT
HETATM    1  C2  UNL     1      35.227  48.004   9.107  1.00  0.00     0.168 A
HETATM    2  N4  UNL     1      34.197  48.222   9.937  1.00  0.00    -0.278 N
ATOM      3  H4  UNL     1      33.444  47.540  10.030  1.00  0.00     0.189 HD
HETATM    4  N5  UNL     1      34.185  49.304  10.607  1.00  0.00    -0.281 N
ATOM      5  H5  UNL     1      33.414  49.497  11.246  1.00  0.00     0.188 HD
HETATM    6  C3  UNL     1      35.167  50.180  10.477  1.00  0.00     0.208 A
HETATM    7  S2  UNL     1      36.167  49.408   9.329  1.00  0.00    -0.020 SA
ENDROOT
BRANCH   1   8
HETATM    8  N3  UNL     1      35.421  46.957   8.336  1.00  0.00    -0.310 N
HETATM    9  C1  UNL     1      34.394  45.984   8.182  1.00  0.00     0.187 C
HETATM   10  N1  UNL     1      34.652  44.802   8.621  1.00  0.00    -0.373 N
HETATM   11  N2  UNL     1      33.145  46.268   7.585  1.00  0.00    -0.064 NA
ATOM     12  H12 UNL     1      33.916  44.105   8.511  1.00  0.00     0.158 HD
ATOM     13  H11 UNL     1      35.553  44.597   9.052  1.00  0.00     0.158 HD
ATOM     14  H3  UNL     1      36.310  46.842   7.847  1.00  0.00     0.170 HD
ENDBRANCH   1   8
BRANCH   6  15
HETATM   15  S1  UNL     1      35.367  51.741  11.296  1.00  0.00     0.280 S
HETATM   16  O1  UNL     1      34.031  52.309  11.626  1.00  0.00    -0.199 OA
HETATM   17  O2  UNL     1      36.110  51.502  12.588  1.00  0.00    -0.199 OA
BRANCH  15  18
HETATM   18  N6  UNL     1      36.328  52.743  10.314  1.00  0.00    -0.323 N
ATOM     19  H62 UNL     1      36.162  52.926   9.324  1.00  0.00     0.169 HD
ATOM     20  H61 UNL     1      37.086  53.120  10.883  1.00  0.00     0.169 HD
ENDBRANCH  15  18
ENDBRANCH   6  15
TORSDOF 3
ENDMDL