MODEL 2
REMARK VINA RESULT: -6.560548989      2.421      5.619
REMARK  4 active torsions:
REMARK  status: ('A' for Active; 'I' for Inactive)
REMARK    1  A    between atoms: N1_2  and  C3_4
REMARK    2  A    between atoms: C3_4  and  C4_5
REMARK       I    between atoms: C4_5  and  N2_7
REMARK    3  A    between atoms: N2_7  and  C5_9
REMARK    4  A    between atoms: C6_12  and  N4_13
ROOT
HETATM    1  C5  UNL     1      33.768  50.058   9.137  1.00  0.00     0.688 A
HETATM    2  N3  UNL     1      33.366  50.765  10.210  1.00  0.00    -0.174 N
ATOM      3  H3  UNL     1      32.445  50.575  10.606  1.00  0.00     0.186 HD
HETATM    4  C6  UNL     1      34.134  51.715  10.782  1.00  0.00     0.146 A
HETATM    5  C7  UNL     1      35.379  51.996  10.275  1.00  0.00     0.136 A
HETATM    6  N5  UNL     1      36.347  52.863  10.621  1.00  0.00    -0.277 N
ATOM      7  H5  UNL     1      36.325  53.529  11.393  1.00  0.00     0.184 HD
HETATM    8  N6  UNL     1      37.334  52.682   9.759  1.00  0.00    -0.020 NA
HETATM    9  N7  UNL     1      37.026  51.738   8.888  1.00  0.00    -0.267 N
ATOM     10  H7  UNL     1      37.620  51.414   8.125  1.00  0.00     0.186 HD
HETATM   11  C8  UNL     1      35.803  51.279   9.177  1.00  0.00     0.165 A
HETATM   12  N8  UNL     1      34.987  50.329   8.636  1.00  0.00    -0.173 N
ATOM     13  H8  UNL     1      35.312  49.806   7.823  1.00  0.00     0.186 HD
ENDROOT
BRANCH   1  14
HETATM   14  N2  UNL     1      32.988  49.180   8.653  1.00  0.00    -0.158 N
HETATM   15  C4  UNL     1      33.316  47.843   8.365  1.00  0.00     0.264 C
HETATM   16  O1  UNL     1      33.488  47.563   7.134  1.00  0.00    -0.271 OA
ATOM     17  H2  UNL     1      32.032  49.473   8.455  1.00  0.00     0.187 HD
BRANCH  15  18
HETATM   18  C3  UNL     1      33.471  46.775   9.352  1.00  0.00     0.374 C
BRANCH  18  19
HETATM   19  N1  UNL     1      34.820  46.244   9.332  1.00  0.00     0.088 N
HETATM   20  C1  UNL     1      34.865  44.961   8.634  1.00  0.00     0.310 C
HETATM   21  C2  UNL     1      35.733  47.145   8.634  1.00  0.00     0.310 C
ENDBRANCH  18  19
ENDBRANCH  15  18
ENDBRANCH   1  14
BRANCH   4  22
HETATM   22  N4  UNL     1      33.740  52.390  11.814  1.00  0.00    -0.383 N
ATOM     23  H42 UNL     1      33.508  51.869  12.660  1.00  0.00     0.157 HD
ATOM     24  H41 UNL     1      33.657  53.406  11.798  1.00  0.00     0.157 HD
ENDBRANCH   4  22
TORSDOF 4
ENDMDL