MODEL 5
REMARK VINA RESULT: -5.994167413      1.675      2.800
REMARK  5 active torsions:
REMARK  status: ('A' for Active; 'I' for Inactive)
REMARK    1  A    between atoms: C2_2  and  N1_3
REMARK    2  A    between atoms: N1_3  and  C3_5
REMARK    3  A    between atoms: C6_12  and  N4_13
REMARK       I    between atoms: N4_13  and  C7_15
REMARK    4  A    between atoms: C7_15  and  C8_17
REMARK    5  A    between atoms: C8_17  and  N5_19
ROOT
HETATM    1  C3  UNL     1      34.627  50.956   9.826  1.00  0.00     0.694 A
HETATM    2  N2  UNL     1      35.901  50.583   9.612  1.00  0.00    -0.180 N
ATOM      3  H2  UNL     1      36.652  51.228   9.858  1.00  0.00     0.185 HD
HETATM    4  C4  UNL     1      36.216  49.381   9.082  1.00  0.00     0.109 A
HETATM    5  C5  UNL     1      37.617  48.945   8.837  1.00  0.00     0.090 C
HETATM    6  N3  UNL     1      35.212  48.545   8.764  1.00  0.00    -0.180 N
ATOM      7  H3  UNL     1      35.434  47.634   8.362  1.00  0.00     0.185 HD
HETATM    8  C6  UNL     1      33.923  48.875   8.960  1.00  0.00     0.700 A
HETATM    9  N6  UNL     1      33.646  50.097   9.498  1.00  0.00    -0.022 N
ATOM     10  H6  UNL     1      32.674  50.365   9.654  1.00  0.00     0.203 HD
ENDROOT
BRANCH   8  11
HETATM   11  N4  UNL     1      32.961  48.073   8.655  1.00  0.00    -0.157 N
HETATM   12  C7  UNL     1      33.302  46.800   8.146  1.00  0.00     0.266 C
HETATM   13  O1  UNL     1      33.440  46.632   6.921  1.00  0.00    -0.270 OA
ATOM     14  H4  UNL     1      31.987  48.349   8.778  1.00  0.00     0.187 HD
BRANCH  12  15
HETATM   15  C8  UNL     1      33.490  45.679   9.083  1.00  0.00     0.271 C
HETATM   16  C9  UNL     1      34.755  44.935   8.638  1.00  0.00     0.050 C
BRANCH  15  17
HETATM   17  N5  UNL     1      33.641  46.093  10.445  1.00  0.00    -0.067 N
ATOM     18  H53 UNL     1      33.374  47.071  10.557  1.00  0.00     0.275 HD
ATOM     19  H52 UNL     1      32.934  45.655  11.036  1.00  0.00     0.275 HD
ATOM     20  H51 UNL     1      34.577  45.929  10.819  1.00  0.00     0.275 HD
ENDBRANCH  15  17
ENDBRANCH  12  15
ENDBRANCH   8  11
BRANCH   1  21
HETATM   21  N1  UNL     1      34.373  52.112  10.334  1.00  0.00    -0.226 N
ATOM     22  H1  UNL     1      33.902  52.797   9.743  1.00  0.00     0.177 HD
BRANCH  21  23
HETATM   23  C2  UNL     1      34.705  52.504  11.668  1.00  0.00     0.133 C
HETATM   24  C1  UNL     1      33.871  51.672  12.625  1.00  0.00     0.027 C
ENDBRANCH  21  23
ENDBRANCH   1  21
TORSDOF 5
ENDMDL