MODEL 2
REMARK VINA RESULT: -4.690617095      1.117      1.401
REMARK  4 active torsions:
REMARK  status: ('A' for Active; 'I' for Inactive)
REMARK       I    between atoms: C2_2  and  N1_4
REMARK    1  A    between atoms: N1_4  and  N2_6
REMARK    2  A    between atoms: N2_6  and  C4_8
REMARK    3  A    between atoms: C5_11  and  N4_12
REMARK    4  A    between atoms: C8_17  and  N6_18
ROOT
HETATM    1  C4  UNL     1      35.801  49.027   9.289  1.00  0.00     0.726 A
HETATM    2  N3  UNL     1      35.026  49.475  10.292  1.00  0.00    -0.020 N
ATOM      3  H3  UNL     1      34.438  48.820  10.808  1.00  0.00     0.203 HD
HETATM    4  C5  UNL     1      35.019  50.793  10.624  1.00  0.00     0.708 A
HETATM    5  N5  UNL     1      35.778  51.688   9.969  1.00  0.00    -0.022 N
ATOM      6  H5  UNL     1      35.764  52.674  10.227  1.00  0.00     0.203 HD
HETATM    7  C8  UNL     1      36.556  51.247   8.965  1.00  0.00     0.705 A
HETATM    8  N7  UNL     1      36.555  49.934   8.643  1.00  0.00    -0.020 N
ATOM      9  H7  UNL     1      37.152  49.618   7.878  1.00  0.00     0.203 HD
ENDROOT
BRANCH   1  10
HETATM   10  N2  UNL     1      35.790  47.768   8.994  1.00  0.00    -0.127 N
ATOM     11  H2  UNL     1      36.678  47.265   8.987  1.00  0.00     0.206 HD
BRANCH  10  12
HETATM   12  N1  UNL     1      34.638  47.065   8.686  1.00  0.00    -0.252 N
HETATM   13  C2  UNL     1      33.996  46.284   9.676  1.00  0.00     0.234 C
HETATM   14  C1  UNL     1      32.755  45.509   9.394  1.00  0.00     0.119 C
HETATM   15  O1  UNL     1      34.471  46.228  10.835  1.00  0.00    -0.272 OA
HETATM   16  C3  UNL     1      34.043  47.093   7.356  1.00  0.00     0.181 C
ENDBRANCH  10  12
ENDBRANCH   1  10
BRANCH   4  17
HETATM   17  N4  UNL     1      34.189  51.250  11.693  1.00  0.00    -0.225 N
HETATM   18  C6  UNL     1      34.577  52.430  12.463  1.00  0.00     0.168 C
HETATM   19  C7  UNL     1      32.962  50.554  12.024  1.00  0.00     0.168 C
ENDBRANCH   4  17
BRANCH   7  20
HETATM   20  N6  UNL     1      37.307  52.083   8.305  1.00  0.00    -0.234 N
ATOM     21  H62 UNL     1      37.050  52.369   7.361  1.00  0.00     0.174 HD
ATOM     22  H61 UNL     1      38.155  52.455   8.733  1.00  0.00     0.174 HD
ENDBRANCH   7  20
TORSDOF 4
ENDMDL