MODEL 2
REMARK VINA RESULT: -7.819551634      2.039      2.881
REMARK  3 active torsions:
REMARK  status: ('A' for Active; 'I' for Inactive)
REMARK    1  A    between atoms: C5_11  and  C6_12
REMARK    2  A    between atoms: C7_13  and  N3_14
REMARK    3  A    between atoms: N3_14  and  C8_16
ROOT
HETATM    1  C6  UNL     1      34.153  49.692  10.354  1.00  0.00     0.036 C
HETATM    2  C7  UNL     1      33.619  48.667   9.808  1.00  0.00     0.107 C
ENDROOT
BRANCH   1   3
HETATM    3  C5  UNL     1      35.216  50.597  10.033  1.00  0.00     0.056 A
HETATM    4  C2  UNL     1      35.307  51.837  10.696  1.00  0.00     0.025 A
HETATM    5  C1  UNL     1      34.282  52.196  11.734  1.00  0.00     0.069 C
HETATM    6  N1  UNL     1      36.262  52.743  10.467  1.00  0.00    -0.312 N
HETATM    7  C3  UNL     1      37.194  52.457   9.546  1.00  0.00     0.327 A
ATOM      8  H1  UNL     1      36.281  53.626  10.977  1.00  0.00     0.170 HD
HETATM    9  O1  UNL     1      38.105  53.287   9.307  1.00  0.00    -0.247 OA
HETATM   10  N2  UNL     1      37.153  51.294   8.888  1.00  0.00    -0.275 N
HETATM   11  C4  UNL     1      36.188  50.354   9.106  1.00  0.00     0.261 A
ATOM     12  H2  UNL     1      37.873  51.100   8.193  1.00  0.00     0.173 HD
HETATM   13  O2  UNL     1      36.268  49.304   8.418  1.00  0.00    -0.267 OA
ENDBRANCH   1   3
BRANCH   2  14
HETATM   14  N3  UNL     1      33.892  48.018   8.629  1.00  0.00    -0.199 N
ATOM     15  H3  UNL     1      33.812  48.569   7.774  1.00  0.00     0.183 HD
BRANCH  14  16
HETATM   16  C8  UNL     1      34.239  46.784   8.490  1.00  0.00     0.713 A
HETATM   17  N4  UNL     1      33.505  45.674   8.459  1.00  0.00    -0.115 N
HETATM   18  N5  UNL     1      34.341  44.655   8.295  1.00  0.00    -0.213 N
ATOM     19  H4  UNL     1      32.491  45.616   8.545  1.00  0.00     0.207 HD
HETATM   20  N6  UNL     1      35.583  45.087   8.220  1.00  0.00    -0.213 N
ATOM     21  H5  UNL     1      34.062  43.676   8.234  1.00  0.00     0.210 HD
HETATM   22  N7  UNL     1      35.521  46.404   8.341  1.00  0.00    -0.115 N
ATOM     23  H6  UNL     1      36.422  44.522   8.096  1.00  0.00     0.210 HD
ATOM     24  H7  UNL     1      36.323  47.034   8.324  1.00  0.00     0.207 HD
ENDBRANCH  14  16
ENDBRANCH   2  14
TORSDOF 3
ENDMDL