MODEL 2
REMARK VINA RESULT: -3.115728366      1.760      2.426
REMARK  3 active torsions:
REMARK  status: ('A' for Active; 'I' for Inactive)
REMARK    1  A    between atoms: C2_3  and  C3_4
REMARK    2  A    between atoms: C2_3  and  C4_8
REMARK       I    between atoms: C4_8  and  N3_10
REMARK    3  A    between atoms: N3_10  and  N4_12
REMARK       I    between atoms: N4_12  and  C5_14
REMARK       I    between atoms: C5_14  and  N5_16
ROOT
HETATM    1  N1  UNL     1      38.676  52.887   9.423  1.00  0.00    -0.196 NA
HETATM    2  C1  UNL     1      37.625  52.665   9.853  1.00  0.00     0.079 C
HETATM    3  C2  UNL     1      36.296  52.360  10.390  1.00  0.00     0.224 C
ENDROOT
BRANCH   3   4
HETATM    4  C3  UNL     1      35.218  53.123   9.712  1.00  0.00     0.081 C
HETATM    5  N2  UNL     1      34.191  52.502   9.252  1.00  0.00    -0.409 N
ATOM      6  H22 UNL     1      34.132  51.490   9.360  1.00  0.00     0.155 HD
ATOM      7  H21 UNL     1      33.450  53.027   8.786  1.00  0.00     0.155 HD
ENDBRANCH   3   4
BRANCH   3   8
HETATM    8  C4  UNL     1      36.041  50.916  10.210  1.00  0.00     0.259 C
HETATM    9  O1  UNL     1      35.597  50.254  11.170  1.00  0.00    -0.270 OA
HETATM   10  N3  UNL     1      36.297  50.302   8.972  1.00  0.00    -0.265 N
ATOM     11  H3  UNL     1      36.662  50.856   8.196  1.00  0.00     0.190 HD
BRANCH  10  12
HETATM   12  N4  UNL     1      36.056  48.940   8.799  1.00  0.00    -0.249 N
HETATM   13  C5  UNL     1      34.719  48.496   8.651  1.00  0.00     0.337 C
HETATM   14  O2  UNL     1      33.744  49.310   8.672  1.00  0.00    -0.245 OA
HETATM   15  N5  UNL     1      34.455  47.121   8.474  1.00  0.00    -0.330 N
HETATM   16  C6  UNL     1      35.559  46.192   8.455  1.00  0.00     0.155 C
HETATM   17  C9  UNL     1      33.076  46.650   8.308  1.00  0.00     0.155 C
HETATM   18  C7  UNL     1      34.998  44.800   8.641  1.00  0.00     0.252 C
HETATM   19  N6  UNL     1      34.018  44.887   9.732  1.00  0.00    -0.072 N
HETATM   20  C8  UNL     1      32.797  45.499   9.244  1.00  0.00     0.252 C
ATOM     21  H62 UNL     1      33.845  43.980  10.167  1.00  0.00     0.277 HD
ATOM     22  H61 UNL     1      34.392  45.371  10.548  1.00  0.00     0.277 HD
ATOM     23  H4  UNL     1      36.829  48.275   8.781  1.00  0.00     0.192 HD
ENDBRANCH  10  12
ENDBRANCH   3   8
TORSDOF 3
ENDMDL