MODEL 1
REMARK VINA RESULT: -7.469174330      0.000      0.000
REMARK  4 active torsions:
REMARK  status: ('A' for Active; 'I' for Inactive)
REMARK    1  A    between atoms: C3_5  and  S1_6
REMARK    2  A    between atoms: S1_6  and  N2_7
REMARK    3  A    between atoms: C4_14  and  C5_15
REMARK       I    between atoms: C5_15  and  N4_17
REMARK    4  A    between atoms: N4_17  and  N5_19
ROOT
HETATM    1  C1  UNL     1      37.154  47.989   8.323  1.00  0.00     0.071 C
HETATM    2  C2  UNL     1      35.997  48.541   9.044  1.00  0.00     0.040 A
HETATM    3  N1  UNL     1      36.040  49.703   9.754  1.00  0.00    -0.333 N
ATOM      4  H1  UNL     1      36.844  50.319   9.875  1.00  0.00     0.168 HD
HETATM    5  C3  UNL     1      34.808  49.873  10.261  1.00  0.00     0.224 A
HETATM    6  N3  UNL     1      34.027  48.845   9.875  1.00  0.00    -0.325 N
ATOM      7  H3  UNL     1      33.044  48.725  10.121  1.00  0.00     0.168 HD
HETATM    8  C4  UNL     1      34.748  48.002   9.115  1.00  0.00     0.127 A
ENDROOT
BRANCH   8   9
HETATM    9  C5  UNL     1      34.253  46.771   8.510  1.00  0.00     0.288 C
HETATM   10  O3  UNL     1      33.163  46.718   7.886  1.00  0.00    -0.264 OA
HETATM   11  N4  UNL     1      35.005  45.571   8.613  1.00  0.00    -0.271 N
ATOM     12  H4  UNL     1      35.893  45.586   9.114  1.00  0.00     0.189 HD
BRANCH  11  13
HETATM   13  N5  UNL     1      34.565  44.372   8.049  1.00  0.00    -0.342 N
ATOM     14  H52 UNL     1      33.630  44.349   7.642  1.00  0.00     0.176 HD
ATOM     15  H51 UNL     1      35.149  43.535   8.036  1.00  0.00     0.176 HD
ENDBRANCH  11  13
ENDBRANCH   8   9
BRANCH   5  16
HETATM   16  S1  UNL     1      34.315  51.218  11.260  1.00  0.00     0.288 S
HETATM   17  O1  UNL     1      33.910  52.392  10.391  1.00  0.00    -0.198 OA
HETATM   18  O2  UNL     1      33.128  50.830  12.091  1.00  0.00    -0.198 OA
BRANCH  16  19
HETATM   19  N2  UNL     1      35.563  51.711  12.338  1.00  0.00    -0.322 N
ATOM     20  H22 UNL     1      36.346  51.111  12.597  1.00  0.00     0.169 HD
ATOM     21  H21 UNL     1      35.421  52.662  12.676  1.00  0.00     0.169 HD
ENDBRANCH  16  19
ENDBRANCH   5  16
TORSDOF 4
ENDMDL