MODEL 1
REMARK VINA RESULT: -7.633929888      0.000      0.000
REMARK  1 active torsions:
REMARK  status: ('A' for Active; 'I' for Inactive)
REMARK    1  A    between atoms: C1_2  and  C2_4
ROOT
HETATM    1  C2  UNL     1      34.198  47.778   9.062  1.00  0.00     0.175 A
HETATM    2  N2  UNL     1      33.801  49.029   9.437  1.00  0.00    -0.332 N
ATOM      3  H2  UNL     1      32.822  49.179   9.684  1.00  0.00     0.168 HD
HETATM    4  C3  UNL     1      34.646  50.068   9.495  1.00  0.00     0.135 A
HETATM    5  C4  UNL     1      34.279  51.337   9.867  1.00  0.00     0.278 A
HETATM    6  O2  UNL     1      33.082  51.548  10.176  1.00  0.00    -0.265 OA
HETATM    7  N3  UNL     1      35.136  52.373   9.921  1.00  0.00    -0.274 N
ATOM      8  H3  UNL     1      34.830  53.304  10.201  1.00  0.00     0.173 HD
HETATM    9  C5  UNL     1      36.420  52.122   9.585  1.00  0.00     0.327 A
HETATM   10  O3  UNL     1      37.214  53.098   9.638  1.00  0.00    -0.247 OA
HETATM   11  N4  UNL     1      36.801  50.886   9.216  1.00  0.00    -0.302 N
ATOM     12  H4  UNL     1      37.780  50.734   8.969  1.00  0.00     0.171 HD
HETATM   13  C6  UNL     1      35.966  49.847   9.158  1.00  0.00     0.137 A
HETATM   14  C7  UNL     1      36.340  48.576   8.783  1.00  0.00     0.276 A
HETATM   15  O4  UNL     1      37.537  48.381   8.478  1.00  0.00    -0.266 OA
HETATM   16  N5  UNL     1      35.481  47.556   8.733  1.00  0.00    -0.303 N
ATOM     17  H5  UNL     1      35.793  46.626   8.450  1.00  0.00     0.171 HD
ENDROOT
BRANCH   1  18
HETATM   18  C1  UNL     1      33.231  46.712   9.026  1.00  0.00     0.298 C
HETATM   19  N1  UNL     1      33.295  45.604   9.915  1.00  0.00    -0.054 NA
HETATM   20  O1  UNL     1      32.305  46.743   8.202  1.00  0.00    -0.268 OA
ENDBRANCH   1  18
TORSDOF 1
ENDMDL