MODEL 2
REMARK VINA RESULT: -4.047879366      1.747      2.382
REMARK  3 active torsions:
REMARK  status: ('A' for Active; 'I' for Inactive)
REMARK    1  A    between atoms: O1_2  and  C2_3
REMARK    2  A    between atoms: C4_9  and  N3_10
REMARK       I    between atoms: N3_10  and  C5_12
REMARK    3  A    between atoms: C6_15  and  N5_16
ROOT
HETATM    1  C2  UNL     1      35.560  46.602   8.509  1.00  0.00     0.225 A
HETATM    2  N1  UNL     1      36.276  47.574   9.083  1.00  0.00    -0.306 N
ATOM      3  H1  UNL     1      37.243  47.475   9.393  1.00  0.00     0.171 HD
HETATM    4  C3  UNL     1      35.545  48.708   9.197  1.00  0.00     0.143 A
HETATM    5  N2  UNL     1      35.981  49.865   9.732  1.00  0.00    -0.323 N
ATOM      6  H2  UNL     1      36.950  49.868  10.049  1.00  0.00     0.169 HD
HETATM    7  C4  UNL     1      35.307  51.016   9.904  1.00  0.00     0.155 C
HETATM    8  C6  UNL     1      34.097  51.328   9.314  1.00  0.00     0.147 C
HETATM    9  N6  UNL     1      33.142  50.510   8.837  1.00  0.00    -0.305 N
ATOM     10  H6  UNL     1      32.234  50.949   8.684  1.00  0.00     0.171 HD
HETATM   11  C7  UNL     1      33.201  49.201   8.530  1.00  0.00     0.277 C
HETATM   12  O3  UNL     1      32.188  48.632   8.088  1.00  0.00    -0.265 OA
HETATM   13  C8  UNL     1      34.310  48.405   8.660  1.00  0.00     0.148 A
HETATM   14  N7  UNL     1      34.328  47.112   8.241  1.00  0.00    -0.314 N
ATOM     15  H7  UNL     1      33.554  46.613   7.802  1.00  0.00     0.170 HD
ENDROOT
BRANCH   7  16
HETATM   16  N3  UNL     1      35.833  51.914  10.691  1.00  0.00    -0.294 N
HETATM   17  C5  UNL     1      35.578  51.803  12.076  1.00  0.00     0.334 C
HETATM   18  N4  UNL     1      34.374  52.288  12.663  1.00  0.00    -0.040 NA
HETATM   19  O2  UNL     1      36.420  51.265  12.832  1.00  0.00    -0.251 OA
ATOM     20  H3  UNL     1      36.409  52.669  10.320  1.00  0.00     0.172 HD
ENDBRANCH   7  16
BRANCH   8  21
HETATM   21  N5  UNL     1      33.865  52.613   9.214  1.00  0.00    -0.382 N
ATOM     22  H52 UNL     1      34.489  53.140   8.603  1.00  0.00     0.157 HD
ATOM     23  H51 UNL     1      33.072  52.939   9.766  1.00  0.00     0.157 HD
ENDBRANCH   8  21
BRANCH   1  24
HETATM   24  O1  UNL     1      35.925  45.287   8.206  1.00  0.00    -0.327 OA
HETATM   25  C1  UNL     1      34.939  44.272   8.267  1.00  0.00     0.213 C
ENDBRANCH   1  24
TORSDOF 3
ENDMDL