MODEL 2
REMARK VINA RESULT: -5.608357626      0.741      1.086
REMARK  7 active torsions:
REMARK  status: ('A' for Active; 'I' for Inactive)
REMARK    1  A    between atoms: C3_5  and  N2_6
REMARK    2  A    between atoms: N2_6  and  N3_8
REMARK    3  A    between atoms: C5_15  and  N5_16
REMARK    4  A    between atoms: N5_16  and  N6_18
REMARK       I    between atoms: N6_18  and  C6_20
REMARK    5  A    between atoms: C7_23  and  N8_24
REMARK    6  A    between atoms: N8_24  and  N9_26
REMARK    7  A    between atoms: N9_26  and  N10_27
ROOT
HETATM    1  C1  UNL     1      37.606  48.369   8.682  1.00  0.00     0.071 C
HETATM    2  C2  UNL     1      36.135  48.145   8.753  1.00  0.00     0.040 C
HETATM    3  N1  UNL     1      35.684  46.877   8.583  1.00  0.00    -0.338 N
ATOM      4  H1  UNL     1      36.399  46.171   8.415  1.00  0.00     0.167 HD
HETATM    5  C3  UNL     1      34.416  46.429   8.608  1.00  0.00     0.189 C
HETATM    6  C4  UNL     1      33.250  47.183   8.476  1.00  0.00     0.292 C
HETATM    7  O1  UNL     1      32.234  46.560   8.111  1.00  0.00    -0.264 OA
HETATM    8  N4  UNL     1      33.036  48.502   8.681  1.00  0.00    -0.303 N
ATOM      9  H4  UNL     1      32.085  48.848   8.551  1.00  0.00     0.171 HD
HETATM   10  C5  UNL     1      33.980  49.399   9.043  1.00  0.00     0.154 C
HETATM   11  C7  UNL     1      35.367  49.267   8.986  1.00  0.00     0.130 C
ENDROOT
BRANCH  10  12
HETATM   12  N5  UNL     1      33.611  50.524   9.502  1.00  0.00    -0.280 N
ATOM     13  H5  UNL     1      33.564  51.295   8.835  1.00  0.00     0.188 HD
BRANCH  12  14
HETATM   14  N6  UNL     1      33.267  50.816  10.805  1.00  0.00    -0.252 N
HETATM   15  C6  UNL     1      33.795  51.985  11.418  1.00  0.00     0.347 C
HETATM   16  N7  UNL     1      33.474  52.331  12.754  1.00  0.00    -0.038 NA
HETATM   17  O2  UNL     1      34.580  52.758  10.775  1.00  0.00    -0.249 OA
ATOM     18  H6  UNL     1      32.642  50.199  11.323  1.00  0.00     0.191 HD
ENDBRANCH  12  14
ENDBRANCH  10  12
BRANCH  11  19
HETATM   19  N8  UNL     1      36.147  50.447   9.195  1.00  0.00    -0.211 N
ATOM     20  H8  UNL     1      36.443  51.050   8.429  1.00  0.00     0.204 HD
BRANCH  19  21
HETATM   21  N9  UNL     1      36.438  50.684  10.387  1.00  0.00    -0.243 NA
BRANCH  21  22
HETATM   22  N10 UNL     1      36.483  50.650  11.612  1.00  0.00    -0.260 N
ATOM     23 2H10 UNL     1      35.555  51.051  11.742  1.00  0.00     0.193 HD
ATOM     24 1H10 UNL     1      36.794  50.503  12.572  1.00  0.00     0.193 HD
ENDBRANCH  21  22
ENDBRANCH  19  21
ENDBRANCH  11  19
BRANCH   5  25
HETATM   25  N2  UNL     1      34.263  45.172   8.771  1.00  0.00    -0.287 N
ATOM     26  H2  UNL     1      33.720  44.846   9.570  1.00  0.00     0.188 HD
BRANCH  25  27
HETATM   27  N3  UNL     1      34.802  44.233   7.910  1.00  0.00    -0.343 N
ATOM     28  H32 UNL     1      35.730  44.418   7.532  1.00  0.00     0.176 HD
ATOM     29  H31 UNL     1      34.311  43.380   7.646  1.00  0.00     0.176 HD
ENDBRANCH  25  27
ENDBRANCH   5  25
TORSDOF 7
ENDMDL