MODEL 2
REMARK VINA RESULT: -6.463021841      1.077      2.560
REMARK  4 active torsions:
REMARK  status: ('A' for Active; 'I' for Inactive)
REMARK    1  A    between atoms: O1_2  and  C2_3
REMARK    2  A    between atoms: C3_6  and  N2_7
REMARK    3  A    between atoms: C5_14  and  C6_15
REMARK       I    between atoms: C6_15  and  N4_17
REMARK    4  A    between atoms: N4_17  and  C7_19
ROOT
HETATM    1  C2  UNL     1      36.497  50.666   8.842  1.00  0.00     0.178 A
HETATM    2  N1  UNL     1      37.500  51.541   8.851  1.00  0.00    -0.170 N
ATOM      3  H1  UNL     1      38.345  51.329   8.320  1.00  0.00     0.186 HD
HETATM    4  C3  UNL     1      37.436  52.696   9.534  1.00  0.00     0.680 A
HETATM    5  N3  UNL     1      36.346  53.019  10.245  1.00  0.00    -0.155 N
ATOM      6  H3  UNL     1      36.311  53.900  10.758  1.00  0.00     0.187 HD
HETATM    7  C4  UNL     1      35.305  52.179  10.275  1.00  0.00     0.279 A
HETATM    8  O2  UNL     1      34.254  52.457  10.943  1.00  0.00    -0.266 OA
HETATM    9  C5  UNL     1      35.353  50.990   9.580  1.00  0.00     0.152 A
ENDROOT
BRANCH   9  10
HETATM   10  C6  UNL     1      34.215  50.085   9.621  1.00  0.00     0.279 C
HETATM   11  O3  UNL     1      33.118  50.467   9.148  1.00  0.00    -0.266 OA
HETATM   12  N4  UNL     1      34.359  48.816  10.183  1.00  0.00    -0.153 N
ATOM     13  H4  UNL     1      34.888  48.738  11.051  1.00  0.00     0.187 HD
BRANCH  12  14
HETATM   14  C7  UNL     1      33.869  47.731   9.680  1.00  0.00     0.710 A
HETATM   15  N5  UNL     1      33.972  46.459  10.103  1.00  0.00    -0.117 N
HETATM   16  N6  UNL     1      33.313  45.649   9.287  1.00  0.00     0.006 NA
ATOM     17  H5  UNL     1      34.484  46.160  10.934  1.00  0.00     0.202 HD
HETATM   18  N7  UNL     1      32.784  46.414   8.335  1.00  0.00     0.006 NA
HETATM   19  N8  UNL     1      33.117  47.676   8.566  1.00  0.00    -0.117 N
ATOM     20  H8  UNL     1      32.847  48.475   7.992  1.00  0.00     0.202 HD
ENDBRANCH  12  14
ENDBRANCH   9  10
BRANCH   1  21
HETATM   21  O1  UNL     1      36.491  49.465   8.167  1.00  0.00    -0.340 OA
HETATM   22  C1  UNL     1      37.208  48.329   8.548  1.00  0.00     0.211 C
ENDBRANCH   1  21
BRANCH   4  23
HETATM   23  N2  UNL     1      38.420  53.525   9.524  1.00  0.00    -0.234 N
ATOM     24  H22 UNL     1      39.063  53.497   8.734  1.00  0.00     0.174 HD
ATOM     25  H21 UNL     1      38.553  54.190  10.287  1.00  0.00     0.174 HD
ENDBRANCH   4  23
TORSDOF 4
ENDMDL