MODEL 4
REMARK VINA RESULT: -4.532851636      1.447      1.554
REMARK  5 active torsions:
REMARK  status: ('A' for Active; 'I' for Inactive)
REMARK    1  A    between atoms: C3_4  and  C4_5
REMARK       I    between atoms: C4_5  and  N2_7
REMARK    2  A    between atoms: N2_7  and  C5_9
REMARK    3  A    between atoms: C5_9  and  N3_11
REMARK    4  A    between atoms: N3_11  and  C6_13
REMARK    5  A    between atoms: C6_13  and  O2_14
ROOT
HETATM    1  N3  UNL     1      33.672  51.865   9.958  1.00  0.00    -0.316 N
ATOM      2  H3  UNL     1      32.774  52.240   9.654  1.00  0.00     0.166 HD
ENDROOT
BRANCH   1   3
HETATM    3  C5  UNL     1      33.752  50.901  11.021  1.00  0.00     0.178 C
HETATM    4  S1  UNL     1      33.556  51.374  12.575  1.00  0.00    -0.041 SA
BRANCH   3   5
HETATM    5  N2  UNL     1      33.997  49.553  10.745  1.00  0.00    -0.300 N
HETATM    6  C4  UNL     1      33.574  48.956   9.534  1.00  0.00     0.248 C
HETATM    7  O1  UNL     1      32.954  49.602   8.642  1.00  0.00    -0.268 OA
ATOM      8  H2  UNL     1      34.494  48.986  11.433  1.00  0.00     0.171 HD
BRANCH   6   9
HETATM    9  C3  UNL     1      33.834  47.539   9.248  1.00  0.00     0.096 C
HETATM   10  C2  UNL     1      34.945  47.124   8.702  1.00  0.00     0.025 C
HETATM   11  C1  UNL     1      35.146  45.695   8.440  1.00  0.00     0.065 C
HETATM   12  N1  UNL     1      35.975  48.026   8.350  1.00  0.00    -0.107 NA
ENDBRANCH   6   9
ENDBRANCH   3   5
ENDBRANCH   1   3
BRANCH   1  13
HETATM   13  C6  UNL     1      34.897  52.284   9.338  1.00  0.00     0.234 C
HETATM   14  C7  UNL     1      35.863  52.915  10.286  1.00  0.00     0.208 C
HETATM   15  N4  UNL     1      37.151  52.588   9.689  1.00  0.00    -0.358 N
HETATM   16  C8  UNL     1      37.022  51.593   8.867  1.00  0.00     0.188 C
ATOM     17  H4  UNL     1      38.027  53.070   9.888  1.00  0.00     0.162 HD
HETATM   18  N5  UNL     1      38.076  50.994   8.095  1.00  0.00    -0.064 NA
HETATM   19  N6  UNL     1      35.668  51.159   8.825  1.00  0.00    -0.314 N
ATOM     20  H6  UNL     1      35.314  50.257   8.506  1.00  0.00     0.167 HD
BRANCH  13  21
HETATM   21  O2  UNL     1      34.639  53.113   8.253  1.00  0.00    -0.352 OA
ATOM     22  H2  UNL     1      35.184  53.890   8.288  1.00  0.00     0.214 HD
ENDBRANCH  13  21
ENDBRANCH   1  13
TORSDOF 5
ENDMDL