MODEL 4
REMARK VINA RESULT: -5.892758989      3.172      5.418
REMARK  4 active torsions:
REMARK  status: ('A' for Active; 'I' for Inactive)
REMARK    1  A    between atoms: N2_3  and  C2_5
REMARK    2  A    between atoms: C2_5  and  N3_7
REMARK    3  A    between atoms: N3_7  and  N4_9
REMARK    4  A    between atoms: N4_9  and  C3_11
ROOT
HETATM    1  N1  UNL     1      33.542  51.237  12.615  1.00  0.00    -0.172 NA
HETATM    2  C1  UNL     1      34.373  51.912  12.133  1.00  0.00     0.184 C
HETATM    3  N2  UNL     1      35.378  52.704  11.570  1.00  0.00    -0.269 N
ATOM      4  H2  UNL     1      35.893  53.353  12.166  1.00  0.00     0.180 HD
ENDROOT
BRANCH   3   5
HETATM    5  C2  UNL     1      35.701  52.626  10.185  1.00  0.00     0.199 C
HETATM    6  S1  UNL     1      37.198  53.007   9.655  1.00  0.00    -0.038 SA
BRANCH   5   7
HETATM    7  N3  UNL     1      34.690  52.209   9.284  1.00  0.00    -0.276 N
ATOM      8  H3  UNL     1      34.127  52.903   8.791  1.00  0.00     0.189 HD
BRANCH   7   9
HETATM    9  N4  UNL     1      34.464  50.847   9.071  1.00  0.00    -0.309 N
ATOM     10  H4  UNL     1      33.507  50.498   9.019  1.00  0.00     0.186 HD
BRANCH   9  11
HETATM   11  C3  UNL     1      35.448  50.023   8.938  1.00  0.00     0.127 C
HETATM   12  C4  UNL     1      35.251  48.607   8.716  1.00  0.00     0.090 A
HETATM   13  C5  UNL     1      33.944  48.136   8.646  1.00  0.00     0.137 A
HETATM   14  C7  UNL     1      36.328  47.756   8.577  1.00  0.00     0.264 A
HETATM   15  N5  UNL     1      32.871  49.059   8.796  1.00  0.00    -0.081 NA
HETATM   16  N6  UNL     1      33.775  46.819   8.439  1.00  0.00    -0.296 N
HETATM   17  C6  UNL     1      34.843  45.985   8.303  1.00  0.00     0.328 A
ATOM     18  H6  UNL     1      32.831  46.437   8.383  1.00  0.00     0.171 HD
HETATM   19  O1  UNL     1      34.574  44.765   8.113  1.00  0.00    -0.247 OA
HETATM   20  N7  UNL     1      36.106  46.446   8.371  1.00  0.00    -0.275 N
ATOM     21  H7  UNL     1      36.892  45.804   8.267  1.00  0.00     0.173 HD
HETATM   22  O2  UNL     1      37.522  48.165   8.637  1.00  0.00    -0.267 OA
ENDBRANCH   9  11
ENDBRANCH   7   9
ENDBRANCH   5   7
ENDBRANCH   3   5
TORSDOF 4
ENDMDL