MODEL 2
REMARK VINA RESULT: -7.361241375      1.076      1.076
REMARK  6 active torsions:
REMARK  status: ('A' for Active; 'I' for Inactive)
REMARK    1  A    between atoms: N1_2  and  N2_4
REMARK    2  A    between atoms: N2_4  and  C2_6
REMARK    3  A    between atoms: C5_15  and  N6_16
REMARK    4  A    between atoms: N6_16  and  C6_18
REMARK    5  A    between atoms: C6_18  and  N7_19
REMARK    6  A    between atoms: C6_18  and  C7_23
ROOT
HETATM    1  C2  UNL     1      34.615  51.247   9.824  1.00  0.00     0.152 A
HETATM    2  N3  UNL     1      35.312  52.438   9.837  1.00  0.00    -0.336 N
ATOM      3  H3  UNL     1      34.884  53.283  10.216  1.00  0.00     0.168 HD
HETATM    4  C3  UNL     1      36.542  52.467   9.353  1.00  0.00     0.183 A
HETATM    5  N4  UNL     1      37.152  51.391   8.845  1.00  0.00    -0.336 N
ATOM      6  H4  UNL     1      38.104  51.465   8.483  1.00  0.00     0.168 HD
HETATM    7  C4  UNL     1      36.509  50.217   8.813  1.00  0.00     0.153 A
HETATM    8  N5  UNL     1      36.867  48.996   8.370  1.00  0.00    -0.174 N
ATOM      9  H5  UNL     1      37.767  48.758   7.951  1.00  0.00     0.186 HD
HETATM   10  C5  UNL     1      35.862  48.154   8.565  1.00  0.00     0.682 A
HETATM   11  N9  UNL     1      34.861  48.859   9.138  1.00  0.00    -0.184 N
ATOM     12  H9  UNL     1      33.953  48.480   9.407  1.00  0.00     0.184 HD
HETATM   13  C8  UNL     1      35.244  50.130   9.298  1.00  0.00     0.139 A
ENDROOT
BRANCH  10  14
HETATM   14  N6  UNL     1      35.802  46.928   8.288  1.00  0.00    -0.188 N
ATOM     15  H6  UNL     1      36.395  46.618   7.519  1.00  0.00     0.180 HD
BRANCH  14  16
HETATM   16  C6  UNL     1      35.017  45.923   8.905  1.00  0.00     0.385 C
BRANCH  16  17
HETATM   17  N7  UNL     1      34.935  44.709   8.075  1.00  0.00    -0.049 N
ATOM     18  H73 UNL     1      34.543  44.913   7.155  1.00  0.00     0.277 HD
ATOM     19  H72 UNL     1      35.861  44.393   7.787  1.00  0.00     0.277 HD
ATOM     20  H71 UNL     1      34.416  43.966   8.543  1.00  0.00     0.277 HD
ENDBRANCH  16  17
BRANCH  16  21
HETATM   21  C7  UNL     1      33.681  46.322   9.312  1.00  0.00     0.281 C
HETATM   22  N8  UNL     1      32.739  46.745   8.349  1.00  0.00    -0.059 NA
HETATM   23  O1  UNL     1      33.354  46.296  10.516  1.00  0.00    -0.273 OA
ENDBRANCH  16  21
ENDBRANCH  14  16
ENDBRANCH  10  14
BRANCH   1  24
HETATM   24  N2  UNL     1      33.446  51.260  10.295  1.00  0.00    -0.285 N
ATOM     25  H2  UNL     1      32.701  50.967   9.662  1.00  0.00     0.188 HD
BRANCH  24  26
HETATM   26  N1  UNL     1      33.065  51.617  11.543  1.00  0.00    -0.320 N
HETATM   27  C1  UNL     1      33.824  51.546  12.583  1.00  0.00     0.139 C
ATOM     28  H1  UNL     1      32.115  51.965  11.670  1.00  0.00     0.185 HD
ENDBRANCH  24  26
ENDBRANCH   1  24
TORSDOF 6
ENDMDL