MODEL 5
REMARK VINA RESULT: 1.262433001      1.581      3.352
REMARK  3 active torsions:
REMARK  status: ('A' for Active; 'I' for Inactive)
REMARK    1  A    between atoms: N1_1  and  C1_5
REMARK    2  A    between atoms: C1_5  and  C2_6
REMARK    3  A    between atoms: C2_6  and  N2_7
ROOT
HETATM    1  N2  UNL     1      34.379  47.451   8.018  1.00  0.00     0.093 N
HETATM    2  C3  UNL     1      33.718  48.142   9.105  1.00  0.00     0.291 C
HETATM    3  C4  UNL     1      32.977  49.354   8.589  1.00  0.00     0.144 C
HETATM    4  N3  UNL     1      32.502  50.214   9.625  1.00  0.00    -0.418 N
ATOM      5  H3  UNL     1      31.522  50.240   9.907  1.00  0.00     0.153 HD
HETATM    6  C5  UNL     1      33.496  51.034  10.237  1.00  0.00     0.141 C
HETATM    7  C6  UNL     1      33.887  52.238   9.426  1.00  0.00     0.251 C
HETATM    8  N4  UNL     1      34.854  52.990  10.242  1.00  0.00    -0.072 N
ATOM      9  H41 UNL     1      34.979  52.553  11.156  1.00  0.00     0.277 HD
ATOM     10  H42 UNL     1      34.465  53.885  10.539  1.00  0.00     0.277 HD
HETATM   11  C7  UNL     1      36.107  53.169   9.582  1.00  0.00     0.260 C
HETATM   12  C8  UNL     1      37.110  52.077   9.862  1.00  0.00     0.261 C
HETATM   13  N5  UNL     1      37.682  51.630   8.628  1.00  0.00    -0.050 N
ATOM     14  H51 UNL     1      38.559  52.115   8.442  1.00  0.00     0.279 HD
ATOM     15  H52 UNL     1      37.131  51.962   7.836  1.00  0.00     0.279 HD
HETATM   16  C9  UNL     1      37.867  50.200   8.554  1.00  0.00     0.462 C
HETATM   17  N6  UNL     1      36.588  49.510   8.418  1.00  0.00    -0.050 N
ATOM     18  H61 UNL     1      35.913  50.090   7.920  1.00  0.00     0.279 HD
ATOM     19  H62 UNL     1      36.115  49.441   9.319  1.00  0.00     0.279 HD
HETATM   20  C10 UNL     1      36.708  48.226   7.805  1.00  0.00     0.264 C
HETATM   21  C11 UNL     1      35.780  47.184   8.375  1.00  0.00     0.300 C
ENDROOT
BRANCH   1  22
HETATM   22  C2  UNL     1      33.787  46.139   7.827  1.00  0.00     0.299 C
BRANCH  22  23
HETATM   23  C1  UNL     1      34.550  45.035   8.504  1.00  0.00     0.259 C
BRANCH  23  24
HETATM   24  N1  UNL     1      34.219  45.113   9.925  1.00  0.00    -0.078 N
ATOM     25  H13 UNL     1      34.966  45.514  10.492  1.00  0.00     0.274 HD
ATOM     26  H12 UNL     1      33.509  45.814  10.136  1.00  0.00     0.274 HD
ATOM     27  H11 UNL     1      33.956  44.171  10.214  1.00  0.00     0.274 HD
ENDBRANCH  23  24
ENDBRANCH  22  23
ENDBRANCH   1  22
TORSDOF 3
ENDMDL