MODEL 2
REMARK VINA RESULT: -6.648653874      0.790      1.167
REMARK  2 active torsions:
REMARK  status: ('A' for Active; 'I' for Inactive)
REMARK    1  A    between atoms: C1_2  and  C2_4
REMARK       I    between atoms: N3_8  and  C4_10
REMARK    2  A    between atoms: C4_10  and  C5_12
ROOT
HETATM    1  C2  UNL     1      34.852  47.925   8.708  1.00  0.00     0.155 A
HETATM    2  N2  UNL     1      34.781  49.240   8.974  1.00  0.00    -0.183 N
ATOM      3  H2  UNL     1      33.926  49.756   9.182  1.00  0.00     0.184 HD
HETATM    4  C3  UNL     1      36.034  49.773   8.923  1.00  0.00     0.687 A
HETATM    5  N3  UNL     1      36.388  51.002   9.118  1.00  0.00    -0.153 N
ATOM      6  H3  UNL     1      37.370  51.269   9.049  1.00  0.00     0.187 HD
HETATM    7  C4  UNL     1      35.411  51.968   9.428  1.00  0.00     0.305 C
HETATM    8  O2  UNL     1      34.990  52.776   8.564  1.00  0.00    -0.263 OA
HETATM    9  N8  UNL     1      36.866  48.756   8.620  1.00  0.00    -0.176 N
ATOM     10  H8  UNL     1      37.877  48.839   8.510  1.00  0.00     0.185 HD
HETATM   11  C6  UNL     1      36.157  47.604   8.484  1.00  0.00     0.164 A
HETATM   12  N9  UNL     1      36.745  46.341   8.164  1.00  0.00    -0.080 NA
ENDROOT
BRANCH   1  13
HETATM   13  C1  UNL     1      33.725  47.024   8.671  1.00  0.00     0.285 C
HETATM   14  N1  UNL     1      32.553  47.293   7.924  1.00  0.00    -0.056 NA
HETATM   15  O1  UNL     1      33.725  45.923   9.320  1.00  0.00    -0.269 OA
ENDBRANCH   1  13
BRANCH   7  16
HETATM   16  C5  UNL     1      34.848  52.069  10.770  1.00  0.00     0.201 A
HETATM   17  N4  UNL     1      33.588  51.789  11.161  1.00  0.00    -0.266 N
HETATM   18  N5  UNL     1      33.479  52.010  12.462  1.00  0.00    -0.007 NA
ATOM     19  H4  UNL     1      32.839  51.461  10.552  1.00  0.00     0.185 HD
HETATM   20  N6  UNL     1      34.653  52.430  12.934  1.00  0.00    -0.007 NA
HETATM   21  N7  UNL     1      35.480  52.465  11.905  1.00  0.00    -0.266 N
ATOM     22  H7  UNL     1      36.458  52.750  11.956  1.00  0.00     0.185 HD
ENDBRANCH   7  16
TORSDOF 2
ENDMDL