MODEL 3
REMARK VINA RESULT: -7.805647951      0.926      1.095
REMARK  5 active torsions:
REMARK  status: ('A' for Active; 'I' for Inactive)
REMARK    1  A    between atoms: C3_5  and  N2_6
REMARK    2  A    between atoms: C4_9  and  C5_10
REMARK       I    between atoms: C5_10  and  N3_12
REMARK    3  A    between atoms: N3_12  and  N4_14
REMARK    4  A    between atoms: C6_19  and  S1_20
REMARK    5  A    between atoms: S1_20  and  N6_21
ROOT
HETATM    1  C1  UNL     1      36.785  52.017   9.278  1.00  0.00     0.071 C
HETATM    2  C2  UNL     1      36.225  50.642   9.301  1.00  0.00     0.047 A
HETATM    3  N1  UNL     1      36.825  49.688   8.566  1.00  0.00    -0.342 N
ATOM      4  H1  UNL     1      37.647  49.923   8.010  1.00  0.00     0.167 HD
HETATM    5  C3  UNL     1      36.353  48.429   8.556  1.00  0.00     0.132 A
HETATM    6  C4  UNL     1      35.238  48.071   9.299  1.00  0.00     0.147 A
HETATM    7  N5  UNL     1      34.654  49.048  10.029  1.00  0.00    -0.336 N
ATOM      8  H5  UNL     1      33.831  48.824  10.588  1.00  0.00     0.167 HD
HETATM    9  C6  UNL     1      35.128  50.306  10.037  1.00  0.00     0.172 A
ENDROOT
BRANCH   6  10
HETATM   10  C5  UNL     1      34.727  46.713   9.289  1.00  0.00     0.289 C
HETATM   11  O1  UNL     1      33.976  46.350  10.214  1.00  0.00    -0.264 OA
HETATM   12  N3  UNL     1      35.100  45.852   8.232  1.00  0.00    -0.271 N
ATOM     13  H3  UNL     1      35.717  46.179   7.487  1.00  0.00     0.189 HD
BRANCH  12  14
HETATM   14  N4  UNL     1      34.605  44.542   8.227  1.00  0.00    -0.342 N
ATOM     15  H42 UNL     1      33.685  44.347   8.622  1.00  0.00     0.176 HD
ATOM     16  H41 UNL     1      35.183  43.803   7.826  1.00  0.00     0.176 HD
ENDBRANCH  12  14
ENDBRANCH   6  10
BRANCH   5  17
HETATM   17  N2  UNL     1      36.934  47.529   7.851  1.00  0.00    -0.383 N
ATOM     18  H22 UNL     1      37.727  47.032   8.256  1.00  0.00     0.157 HD
ATOM     19  H21 UNL     1      36.602  47.321   6.909  1.00  0.00     0.157 HD
ENDBRANCH   5  17
BRANCH   9  20
HETATM   20  S1  UNL     1      34.319  51.509  11.003  1.00  0.00     0.274 S
HETATM   21  O2  UNL     1      33.555  52.419  10.083  1.00  0.00    -0.199 OA
HETATM   22  O3  UNL     1      35.287  52.311  11.830  1.00  0.00    -0.199 OA
BRANCH  20  23
HETATM   23  N6  UNL     1      33.149  50.729  12.033  1.00  0.00    -0.323 N
ATOM     24  H62 UNL     1      33.000  49.721  12.080  1.00  0.00     0.169 HD
ATOM     25  H61 UNL     1      32.648  51.437  12.570  1.00  0.00     0.169 HD
ENDBRANCH  20  23
ENDBRANCH   9  20
TORSDOF 5
ENDMDL