MODEL 5
REMARK VINA RESULT: -0.201493649      1.490      4.869
REMARK  2 active torsions:
REMARK  status: ('A' for Active; 'I' for Inactive)
REMARK    1  A    between atoms: N2_3  and  C2_5
REMARK    2  A    between atoms: C8_19  and  N6_20
ROOT
HETATM    1  N1  UNL     1      35.565  53.107   8.574  1.00  0.00    -0.172 NA
HETATM    2  C1  UNL     1      34.661  52.377   8.573  1.00  0.00     0.179 C
HETATM    3  N2  UNL     1      33.552  51.501   8.596  1.00  0.00    -0.305 N
ATOM      4  H2  UNL     1      32.751  51.703   7.998  1.00  0.00     0.173 HD
ENDROOT
BRANCH   3   5
HETATM    5  C2  UNL     1      33.518  50.328   9.441  1.00  0.00     0.222 C
HETATM    6  N3  UNL     1      33.631  50.584  10.829  1.00  0.00    -0.398 N
HETATM    7  C3  UNL     1      33.553  51.957  11.256  1.00  0.00     0.143 C
ATOM      8  H3  UNL     1      33.763  49.827  11.498  1.00  0.00     0.155 HD
HETATM    9  C4  UNL     1      34.255  52.005  12.625  1.00  0.00     0.251 C
HETATM   10  N4  UNL     1      35.676  51.790  12.414  1.00  0.00    -0.072 N
HETATM   11  C5  UNL     1      36.084  50.414  12.688  1.00  0.00     0.259 C
ATOM     12  H42 UNL     1      35.953  52.073  11.474  1.00  0.00     0.277 HD
ATOM     13  H41 UNL     1      36.230  52.451  12.956  1.00  0.00     0.277 HD
HETATM   14  C6  UNL     1      36.797  49.831  11.468  1.00  0.00     0.259 C
HETATM   15  N5  UNL     1      36.247  50.495  10.319  1.00  0.00    -0.071 N
HETATM   16  C7  UNL     1      35.956  49.640   9.225  1.00  0.00     0.272 C
ATOM     17  H52 UNL     1      35.419  51.029  10.582  1.00  0.00     0.277 HD
ATOM     18  H51 UNL     1      36.860  51.254  10.022  1.00  0.00     0.277 HD
HETATM   19  C8  UNL     1      34.540  49.325   8.939  1.00  0.00     0.292 C
BRANCH  19  20
HETATM   20  N6  UNL     1      34.242  47.970   9.281  1.00  0.00     0.125 N
HETATM   21  C9  UNL     1      35.271  47.051   8.746  1.00  0.00     0.302 C
HETATM   22  C10 UNL     1      34.576  45.717   8.996  1.00  0.00     0.264 C
HETATM   23  N7  UNL     1      33.157  46.030   9.032  1.00  0.00    -0.047 N
HETATM   24  C11 UNL     1      33.093  47.435   8.581  1.00  0.00     0.503 C
ATOM     25  H72 UNL     1      32.571  45.390   8.497  1.00  0.00     0.279 HD
ATOM     26  H71 UNL     1      32.711  45.857   9.933  1.00  0.00     0.279 HD
ENDBRANCH  19  20
ENDBRANCH   3   5
TORSDOF 2
ENDMDL