MODEL 3
REMARK VINA RESULT: -7.600544502      0.712      1.123
REMARK  6 active torsions:
REMARK  status: ('A' for Active; 'I' for Inactive)
REMARK    1  A    between atoms: C1_2  and  C2_3
REMARK    2  A    between atoms: C1_2  and  C10_18
REMARK    3  A    between atoms: C2_3  and  N2_4
REMARK       I    between atoms: N2_4  and  C3_6
REMARK       I    between atoms: C3_6  and  N3_8
REMARK    4  A    between atoms: N3_8  and  N4_10
REMARK    5  A    between atoms: C4_12  and  C5_13
REMARK    6  A    between atoms: C10_18  and  C11_19
ROOT
HETATM    1  N2  UNL     1      51.111  24.986  14.911  1.00  0.00    -0.337 N
ATOM      2  H2  UNL     1      51.801  25.400  14.284  1.00  0.00     0.164 HD
HETATM    3  C3  UNL     1      49.972  25.734  15.269  1.00  0.00     0.335 C
HETATM    4  O1  UNL     1      49.126  25.235  16.035  1.00  0.00    -0.246 OA
HETATM    5  N3  UNL     1      49.783  27.037  14.772  1.00  0.00    -0.252 N
ATOM      6  H3  UNL     1      50.471  27.455  14.144  1.00  0.00     0.191 HD
ENDROOT
BRANCH   1   7
HETATM    7  C2  UNL     1      51.326  23.634  15.414  1.00  0.00     0.178 C
BRANCH   7   8
HETATM    8  C1  UNL     1      51.144  22.614  14.311  1.00  0.00     0.038 C
HETATM    9  N1  UNL     1      49.756  22.421  14.071  1.00  0.00    -0.106 NA
BRANCH   8  10
HETATM   10  C10 UNL     1      52.037  21.461  14.319  1.00  0.00     0.002 C
BRANCH  10  11
HETATM   11  C11 UNL     1      52.285  20.612  13.169  1.00  0.00     0.010 C
HETATM   12  C12 UNL     1      52.708  21.208  11.850  1.00  0.00     0.008 C
HETATM   13  C13 UNL     1      52.007  20.022  11.191  1.00  0.00     0.001 C
HETATM   14  C14 UNL     1      51.268  19.765  12.521  1.00  0.00     0.008 C
ENDBRANCH  10  11
ENDBRANCH   8  10
ENDBRANCH   7   8
ENDBRANCH   1   7
BRANCH   5  15
HETATM   15  N4  UNL     1      48.644  27.752  15.146  1.00  0.00    -0.311 N
HETATM   16  C4  UNL     1      47.848  28.304  14.304  1.00  0.00     0.085 C
ATOM     17  H4  UNL     1      48.434  27.841  16.141  1.00  0.00     0.185 HD
BRANCH  16  18
HETATM   18  C5  UNL     1      48.118  28.198  12.870  1.00  0.00     0.025 C
HETATM   19  C6  UNL     1      46.830  28.266  12.045  1.00  0.00     0.010 C
HETATM   20  C7  UNL     1      47.337  28.610  10.668  1.00  0.00     0.001 C
HETATM   21  C8  UNL     1      48.701  29.202  10.829  1.00  0.00     0.001 C
HETATM   22  C9  UNL     1      48.870  29.411  12.328  1.00  0.00     0.010 C
ENDBRANCH  16  18
ENDBRANCH   5  15
TORSDOF 6
ENDMDL