MODEL 3
REMARK VINA RESULT: -6.774198773      0.416      1.260
REMARK  10 active torsions:
REMARK  status: ('A' for Active; 'I' for Inactive)
REMARK    1  A    between atoms: C2_2  and  C3_3
REMARK    2  A    between atoms: C3_3  and  C4_4
REMARK    3  A    between atoms: C4_4  and  N1_5
REMARK    4  A    between atoms: C4_4  and  C11_15
REMARK    5  A    between atoms: N1_5  and  C5_7
REMARK    6  A    between atoms: C5_7  and  O1_8
REMARK    7  A    between atoms: C5_7  and  C6_10
REMARK    8  A    between atoms: C11_15  and  C12_17
REMARK    9  A    between atoms: C12_17  and  O3_18
REMARK   10  A    between atoms: N2_20  and  O4_22
ROOT
HETATM    1  C4  UNL     1      49.626  25.781  15.224  1.00  0.00     0.069 C
ENDROOT
BRANCH   1   2
HETATM    2  C3  UNL     1      48.746  25.598  16.364  1.00  0.00     0.087 C
BRANCH   2   3
HETATM    3  C2  UNL     1      48.233  26.931  16.880  1.00  0.00    -0.031 C
HETATM    4  C1  UNL     1      46.970  27.275  16.640  1.00  0.00     0.007 C
ENDBRANCH   2   3
ENDBRANCH   1   2
BRANCH   1   5
HETATM    5  N1  UNL     1      49.297  26.643  14.133  1.00  0.00    -0.340 N
ATOM      6  H1  UNL     1      48.888  26.223  13.298  1.00  0.00     0.167 HD
BRANCH   5   7
HETATM    7  C5  UNL     1      49.500  28.033  14.137  1.00  0.00     0.119 C
BRANCH   7   8
HETATM    8  O1  UNL     1      50.557  28.458  14.772  1.00  0.00    -0.349 OA
ATOM      9  H1  UNL     1      51.340  28.578  14.248  1.00  0.00     0.219 HD
ENDBRANCH   7   8
BRANCH   7  10
HETATM   10  C6  UNL     1      48.678  29.054  13.508  1.00  0.00     0.060 C
HETATM   11  C7  UNL     1      47.250  28.617  13.434  1.00  0.00     0.013 C
HETATM   12  C8  UNL     1      46.934  28.255  12.026  1.00  0.00     0.001 C
HETATM   13  C9  UNL     1      48.231  28.384  11.240  1.00  0.00     0.001 C
HETATM   14  C10 UNL     1      49.032  29.338  12.073  1.00  0.00     0.013 C
ENDBRANCH   7  10
ENDBRANCH   5   7
ENDBRANCH   1   5
BRANCH   1  15
HETATM   15  C11 UNL     1      50.462  24.655  14.871  1.00  0.00     0.246 C
HETATM   16  O2  UNL     1      49.889  23.496  14.815  1.00  0.00    -0.282 OA
BRANCH  15  17
HETATM   17  C12 UNL     1      51.886  24.676  14.578  1.00  0.00     0.213 C
HETATM   18  N2  UNL     1      52.669  25.574  14.916  1.00  0.00    -0.244 N
ATOM     19  H2  UNL     1      53.635  25.434  14.621  1.00  0.00     0.196 HD
BRANCH  17  20
HETATM   20  O3  UNL     1      52.397  23.575  13.856  1.00  0.00    -0.342 OA
ATOM     21  H3  UNL     1      53.114  23.755  13.260  1.00  0.00     0.219 HD
ENDBRANCH  17  20
BRANCH  18  22
HETATM   22  O4  UNL     1      52.453  26.687  15.598  1.00  0.00    -0.288 OA
ATOM     23  H4  UNL     1      52.884  27.532  15.548  1.00  0.00     0.244 HD
ENDBRANCH  18  22
ENDBRANCH  15  17
ENDBRANCH   1  15
TORSDOF 10
ENDMDL