MODEL 4
REMARK VINA RESULT: -7.450168204      2.923      6.805
REMARK  8 active torsions:
REMARK  status: ('A' for Active; 'I' for Inactive)
REMARK    1  A    between atoms: O1_1  and  C1_3
REMARK    2  A    between atoms: C1_3  and  C2_4
REMARK    3  A    between atoms: C1_3  and  C9_13
REMARK    4  A    between atoms: C2_4  and  N1_5
REMARK    5  A    between atoms: N1_5  and  C3_7
REMARK    6  A    between atoms: C9_13  and  O2_14
REMARK    7  A    between atoms: C9_13  and  C10_16
REMARK    8  A    between atoms: C10_16  and  C11_17
ROOT
HETATM    1  C1  UNL     1      47.963  27.382  15.234  1.00  0.00     0.164 C
ENDROOT
BRANCH   1   2
HETATM    2  O1  UNL     1      47.020  28.129  15.941  1.00  0.00    -0.391 OA
ATOM      3  H1  UNL     1      46.787  27.693  16.752  1.00  0.00     0.210 HD
ENDBRANCH   1   2
BRANCH   1   4
HETATM    4  C2  UNL     1      49.010  26.817  16.176  1.00  0.00     0.148 C
BRANCH   4   5
HETATM    5  N1  UNL     1      49.123  25.403  16.108  1.00  0.00    -0.415 N
ATOM      6  H1  UNL     1      48.773  24.810  16.860  1.00  0.00     0.153 HD
BRANCH   5   7
HETATM    7  C3  UNL     1      49.741  24.839  14.955  1.00  0.00     0.076 C
HETATM    8  C4  UNL     1      51.057  25.497  14.695  1.00  0.00     0.024 C
HETATM    9  C5  UNL     1      52.177  24.715  15.355  1.00  0.00     0.002 C
HETATM   10  C6  UNL     1      52.216  23.414  14.585  1.00  0.00     0.000 C
HETATM   11  C7  UNL     1      50.969  22.623  14.790  1.00  0.00     0.002 C
HETATM   12  C8  UNL     1      49.737  23.368  15.068  1.00  0.00     0.024 C
ENDBRANCH   5   7
ENDBRANCH   4   5
ENDBRANCH   1   4
BRANCH   1  13
HETATM   13  C9  UNL     1      48.699  28.383  14.329  1.00  0.00     0.148 C
BRANCH  13  14
HETATM   14  O2  UNL     1      49.990  28.612  14.762  1.00  0.00    -0.393 OA
ATOM     15  H2  UNL     1      50.008  29.124  15.562  1.00  0.00     0.210 HD
ENDBRANCH  13  14
BRANCH  13  16
HETATM   16  C10 UNL     1      48.617  27.902  12.911  1.00  0.00     0.039 C
BRANCH  16  17
HETATM   17  C11 UNL     1      47.957  28.875  11.966  1.00  0.00    -0.012 C
HETATM   18  C12 UNL     1      46.538  28.420  11.690  1.00  0.00     0.005 C
HETATM   19  C13 UNL     1      46.235  29.060  10.355  1.00  0.00     0.000 C
HETATM   20  C14 UNL     1      47.563  29.329   9.680  1.00  0.00     0.000 C
HETATM   21  C15 UNL     1      48.597  28.704  10.577  1.00  0.00     0.005 C
ENDBRANCH  16  17
ENDBRANCH  13  16
ENDBRANCH   1  13
TORSDOF 8
ENDMDL