MODEL 3
REMARK VINA RESULT: -3.265752557      1.320      2.015
REMARK  9 active torsions:
REMARK  status: ('A' for Active; 'I' for Inactive)
REMARK    1  A    between atoms: C2_2  and  O1_3
REMARK    2  A    between atoms: C2_2  and  C3_5
REMARK    3  A    between atoms: C3_5  and  C4_6
REMARK    4  A    between atoms: C7_9  and  C8_10
REMARK    5  A    between atoms: C11_13  and  C12_14
REMARK    6  A    between atoms: C13_15  and  C14_16
REMARK    7  A    between atoms: C14_16  and  O2_17
REMARK    8  A    between atoms: C14_16  and  C15_19
REMARK    9  A    between atoms: C15_19  and  O3_20
ROOT
HETATM    1  C4  UNL     1      48.294  28.180  12.519  1.00  0.00    -0.004 C
HETATM    2  C5  UNL     1      46.888  28.537  12.869  1.00  0.00     0.006 C
HETATM    3  C6  UNL     1      46.548  27.560  13.944  1.00  0.00     0.006 C
HETATM    4  C7  UNL     1      47.872  27.156  14.604  1.00  0.00    -0.003 C
HETATM    5  C11 UNL     1      48.960  27.603  13.756  1.00  0.00     0.016 C
ENDROOT
BRANCH   5   6
HETATM    6  C12 UNL     1      49.966  28.501  14.291  1.00  0.00    -0.023 C
HETATM    7  C13 UNL     1      50.991  28.105  15.026  1.00  0.00     0.003 C
BRANCH   7   8
HETATM    8  C14 UNL     1      51.233  26.692  15.390  1.00  0.00     0.164 C
BRANCH   8   9
HETATM    9  O2  UNL     1      52.584  26.466  15.533  1.00  0.00    -0.390 OA
ATOM     10  H2  UNL     1      52.732  25.757  16.148  1.00  0.00     0.210 HD
ENDBRANCH   8   9
BRANCH   8  11
HETATM   11  C15 UNL     1      50.747  25.753  14.303  1.00  0.00     0.199 C
BRANCH  11  12
HETATM   12  O3  UNL     1      50.379  24.523  14.806  1.00  0.00    -0.398 OA
ATOM     13  H3  UNL     1      49.997  23.965  14.139  1.00  0.00     0.209 HD
ENDBRANCH  11  12
ENDBRANCH   8  11
ENDBRANCH   7   8
ENDBRANCH   5   6
BRANCH   1  14
HETATM   14  C3  UNL     1      49.031  29.388  11.997  1.00  0.00     0.036 C
BRANCH  14  15
HETATM   15  C2  UNL     1      48.820  29.425  10.497  1.00  0.00     0.114 C
HETATM   16  C1  UNL     1      48.566  28.033   9.962  1.00  0.00     0.039 C
BRANCH  15  17
HETATM   17  O1  UNL     1      47.750  30.247  10.140  1.00  0.00    -0.396 OA
ATOM     18  H1  UNL     1      48.045  30.867   9.483  1.00  0.00     0.210 HD
ENDBRANCH  15  17
ENDBRANCH  14  15
ENDBRANCH   1  14
BRANCH   4  19
HETATM   19  C8  UNL     1      47.782  27.583  16.027  1.00  0.00    -0.018 C
HETATM   20  C9  UNL     1      48.243  26.626  17.058  1.00  0.00     0.010 C
HETATM   21  C10 UNL     1      46.444  28.163  16.428  1.00  0.00     0.010 C
ENDBRANCH   4  19
TORSDOF 9
ENDMDL