MODEL 2
REMARK VINA RESULT: -6.358756953      1.043      1.564
REMARK  7 active torsions:
REMARK  status: ('A' for Active; 'I' for Inactive)
REMARK    1  A    between atoms: C2_2  and  C5_5
REMARK    2  A    between atoms: C5_5  and  N1_6
REMARK    3  A    between atoms: N1_6  and  C6_9
REMARK    4  A    between atoms: C6_9  and  C7_10
REMARK    5  A    between atoms: C7_10  and  O1_11
REMARK    6  A    between atoms: C7_10  and  C8_13
REMARK    7  A    between atoms: N2_14  and  C9_16
ROOT
HETATM    1  C6  UNL     1      49.377  25.560  16.012  1.00  0.00     0.270 C
ENDROOT
BRANCH   1   2
HETATM    2  N1  UNL     1      50.062  25.340  14.763  1.00  0.00    -0.063 N
ATOM      3  H12 UNL     1      50.366  26.227  14.362  1.00  0.00     0.278 HD
ATOM      4  H11 UNL     1      49.405  25.042  14.042  1.00  0.00     0.278 HD
BRANCH   2   5
HETATM    5  C5  UNL     1      51.170  24.416  14.851  1.00  0.00     0.132 A
HETATM    6  C14 UNL     1      52.437  24.697  14.133  1.00  0.00     0.042 A
HETATM    7  C15 UNL     1      52.346  24.858  15.611  1.00  0.00     0.042 A
BRANCH   5   8
HETATM    8  C2  UNL     1      50.702  22.974  14.835  1.00  0.00    -0.018 C
HETATM    9  C1  UNL     1      51.617  22.099  13.974  1.00  0.00     0.017 C
HETATM   10  C3  UNL     1      49.293  22.775  14.394  1.00  0.00     0.017 C
HETATM   11  C4  UNL     1      50.941  22.464  16.267  1.00  0.00     0.017 C
ENDBRANCH   5   8
ENDBRANCH   2   5
ENDBRANCH   1   2
BRANCH   1  12
HETATM   12  C7  UNL     1      49.120  27.085  16.050  1.00  0.00     0.181 C
BRANCH  12  13
HETATM   13  O1  UNL     1      50.194  27.717  15.485  1.00  0.00    -0.389 OA
ATOM     14  H1  UNL     1      50.973  27.478  15.971  1.00  0.00     0.210 HD
ENDBRANCH  12  13
BRANCH  12  15
HETATM   15  C8  UNL     1      47.777  27.381  15.519  1.00  0.00     0.089 C
HETATM   16  N2  UNL     1      47.496  28.308  14.571  1.00  0.00    -0.395 N
ATOM     17  H2  UNL     1      46.904  29.085  14.866  1.00  0.00     0.159 HD
BRANCH  16  18
HETATM   18  C9  UNL     1      47.907  28.329  13.274  1.00  0.00     0.080 C
HETATM   19  C10 UNL     1      48.837  29.414  12.776  1.00  0.00     0.025 C
HETATM   20  C11 UNL     1      48.731  29.250  11.247  1.00  0.00     0.002 C
HETATM   21  C12 UNL     1      47.600  28.318  10.980  1.00  0.00     0.002 C
HETATM   22  C13 UNL     1      46.748  28.448  12.244  1.00  0.00     0.025 C
ENDBRANCH  16  18
ENDBRANCH  12  15
ENDBRANCH   1  12
TORSDOF 7
ENDMDL