MODEL 1
REMARK VINA RESULT: -7.553863549      0.000      0.000
REMARK  7 active torsions:
REMARK  status: ('A' for Active; 'I' for Inactive)
REMARK    1  A    between atoms: C2_2  and  C3_3
REMARK    2  A    between atoms: C7_7  and  N1_8
REMARK    3  A    between atoms: N1_8  and  C8_11
REMARK    4  A    between atoms: C8_11  and  C9_12
REMARK    5  A    between atoms: C9_12  and  O1_13
REMARK    6  A    between atoms: C9_12  and  C10_15
REMARK    7  A    between atoms: C10_15  and  C13_18
ROOT
HETATM    1  N1  UNL     1      47.239  28.888  13.312  1.00  0.00    -0.044 N
ATOM      2  H11 UNL     1      46.409  28.583  13.822  1.00  0.00     0.279 HD
ATOM      3  H12 UNL     1      47.075  29.895  13.311  1.00  0.00     0.279 HD
ENDROOT
BRANCH   1   4
HETATM    4  C7  UNL     1      47.235  28.366  11.967  1.00  0.00     0.383 C
HETATM    5  C6  UNL     1      48.648  28.148  11.455  1.00  0.00     0.062 C
HETATM    6  C5  UNL     1      49.122  29.354  10.664  1.00  0.00     0.006 C
HETATM    7  C4  UNL     1      48.211  29.687   9.518  1.00  0.00     0.033 C
HETATM    8  C3  UNL     1      46.798  29.154   9.715  1.00  0.00     0.188 C
HETATM    9  N2  UNL     1      46.524  29.295  11.134  1.00  0.00    -0.042 N
ATOM     10  H22 UNL     1      46.699  30.253  11.438  1.00  0.00     0.280 HD
ATOM     11  H21 UNL     1      45.520  29.237  11.311  1.00  0.00     0.280 HD
BRANCH   8  12
HETATM   12  C2  UNL     1      45.790  30.050   9.011  1.00  0.00     0.028 C
HETATM   13  C1  UNL     1      46.426  31.179   8.271  1.00  0.00     0.007 C
ENDBRANCH   8  12
ENDBRANCH   1   4
BRANCH   1  14
HETATM   14  C8  UNL     1      48.446  28.562  14.047  1.00  0.00     0.267 C
BRANCH  14  15
HETATM   15  C9  UNL     1      48.203  27.215  14.677  1.00  0.00     0.152 C
BRANCH  15  16
HETATM   16  O1  UNL     1      47.173  27.293  15.598  1.00  0.00    -0.393 OA
ATOM     17  H1  UNL     1      47.109  26.483  16.091  1.00  0.00     0.210 HD
ENDBRANCH  15  16
BRANCH  15  18
HETATM   18  C10 UNL     1      49.423  26.653  15.355  1.00  0.00    -0.016 C
HETATM   19  C11 UNL     1      48.914  26.250  16.758  1.00  0.00     0.018 C
HETATM   20  C12 UNL     1      50.454  27.694  15.535  1.00  0.00     0.018 C
BRANCH  18  21
HETATM   21  C13 UNL     1      49.880  25.362  14.750  1.00  0.00    -0.000 A
HETATM   22  C14 UNL     1      49.434  24.089  15.369  1.00  0.00     0.010 A
HETATM   23  C15 UNL     1      50.909  24.480  15.276  1.00  0.00    -0.013 A
HETATM   24  C16 UNL     1      51.686  23.578  14.326  1.00  0.00     0.010 C
ENDBRANCH  18  21
ENDBRANCH  15  18
ENDBRANCH  14  15
ENDBRANCH   1  14
TORSDOF 7
ENDMDL