MODEL 2
REMARK VINA RESULT: -7.690071116      0.720      1.458
REMARK  8 active torsions:
REMARK  status: ('A' for Active; 'I' for Inactive)
REMARK    1  A    between atoms: C2_2  and  O1_6
REMARK    2  A    between atoms: O1_6  and  C3_7
REMARK    3  A    between atoms: C3_7  and  C4_8
REMARK    4  A    between atoms: C4_8  and  O2_9
REMARK    5  A    between atoms: C4_8  and  C5_11
REMARK    6  A    between atoms: C5_11  and  N2_12
REMARK    7  A    between atoms: N2_12  and  C6_14
REMARK    8  A    between atoms: C6_14  and  C9_17
ROOT
HETATM    1  N2  UNL     1      48.816  26.992  13.784  1.00  0.00    -0.410 N
ATOM      2  H2  UNL     1      48.396  26.148  13.395  1.00  0.00     0.154 HD
ENDROOT
BRANCH   1   3
HETATM    3  C5  UNL     1      48.585  28.180  13.103  1.00  0.00     0.148 C
BRANCH   3   4
HETATM    4  C4  UNL     1      47.956  27.960  11.714  1.00  0.00     0.159 C
BRANCH   4   5
HETATM    5  C3  UNL     1      48.062  29.196  10.856  1.00  0.00     0.210 C
BRANCH   5   6
HETATM    6  O1  UNL     1      47.363  28.959   9.621  1.00  0.00    -0.337 OA
BRANCH   6   7
HETATM    7  C2  UNL     1      46.344  29.784   9.211  1.00  0.00     0.107 C
HETATM    8  C1  UNL     1      46.601  30.990   8.370  1.00  0.00     0.097 C
HETATM    9  N1  UNL     1      45.132  29.460   9.592  1.00  0.00    -0.384 N
ATOM     10  H12 UNL     1      44.375  30.072   9.288  1.00  0.00     0.157 HD
ATOM     11  H11 UNL     1      44.956  28.636  10.166  1.00  0.00     0.157 HD
ENDBRANCH   6   7
ENDBRANCH   5   6
ENDBRANCH   4   5
BRANCH   4  12
HETATM   12  O2  UNL     1      46.583  27.719  11.880  1.00  0.00    -0.392 OA
ATOM     13  H2  UNL     1      46.150  28.550  11.724  1.00  0.00     0.210 HD
ENDBRANCH   4  12
ENDBRANCH   3   4
ENDBRANCH   1   3
BRANCH   1  14
HETATM   14  C6  UNL     1      49.558  26.845  14.934  1.00  0.00     0.022 C
HETATM   15  C7  UNL     1      50.626  27.964  15.091  1.00  0.00     0.038 C
HETATM   16  C8  UNL     1      48.612  27.158  16.128  1.00  0.00     0.038 C
BRANCH  14  17
HETATM   17  C9  UNL     1      50.248  25.602  15.312  1.00  0.00     0.017 C
HETATM   18  C10 UNL     1      51.744  25.587  15.343  1.00  0.00     0.012 C
HETATM   19  C11 UNL     1      51.972  24.074  15.137  1.00  0.00    -0.014 C
HETATM   20  C12 UNL     1      51.145  23.294  16.107  1.00  0.00     0.005 C
HETATM   21  C15 UNL     1      51.121  23.943  13.860  1.00  0.00     0.010 C
HETATM   22  C13 UNL     1      49.717  23.237  15.539  1.00  0.00     0.005 C
HETATM   23  C14 UNL     1      49.815  24.389  14.531  1.00  0.00    -0.008 C
ENDBRANCH  14  17
ENDBRANCH   1  14
TORSDOF 8
ENDMDL