MODEL 3
REMARK VINA RESULT: -5.562025192      3.208      6.586
REMARK  13 active torsions:
REMARK  status: ('A' for Active; 'I' for Inactive)
REMARK    1  A    between atoms: N1_2  and  C2_5
REMARK    2  A    between atoms: C3_6  and  O1_7
REMARK    3  A    between atoms: O1_7  and  C4_8
REMARK    4  A    between atoms: C5_9  and  N2_10
REMARK    5  A    between atoms: C7_15  and  O2_16
REMARK    6  A    between atoms: O2_16  and  S1_17
REMARK    7  A    between atoms: C8_21  and  O6_22
REMARK    8  A    between atoms: C12_28  and  C13_29
REMARK    9  A    between atoms: C13_29  and  N3_30
REMARK   10  A    between atoms: N3_30  and  N4_32
REMARK   11  A    between atoms: N4_32  and  N5_33
REMARK   12  A    between atoms: C14_36  and  O8_37
REMARK   13  A    between atoms: C15_39  and  O9_40
ROOT
HETATM    1  C2  UNL     1       3.374  42.572  50.184  1.00  0.00     0.271 C
HETATM    2  C3  UNL     1       3.773  41.140  50.195  1.00  0.00     0.294 C
HETATM    3  O7  UNL     1       2.684  40.427  50.719  1.00  0.00    -0.349 OA
HETATM    4  C12 UNL     1       1.664  40.318  49.782  1.00  0.00     0.176 C
HETATM    5  C14 UNL     1       1.567  41.464  48.841  1.00  0.00     0.179 C
HETATM    6  C15 UNL     1       2.099  42.765  49.384  1.00  0.00     0.185 C
ENDROOT
BRANCH   2   7
HETATM    7  O1  UNL     1       4.833  40.909  51.035  1.00  0.00    -0.351 OA
BRANCH   7   8
HETATM    8  C4  UNL     1       6.059  40.971  50.387  1.00  0.00     0.165 C
HETATM    9  C5  UNL     1       6.189  39.796  49.440  1.00  0.00     0.215 C
HETATM   10  C6  UNL     1       7.604  39.794  48.836  1.00  0.00     0.071 C
HETATM   11  C7  UNL     1       8.515  39.421  49.960  1.00  0.00     0.176 C
HETATM   12  C8  UNL     1       8.266  40.106  51.260  1.00  0.00     0.159 C
HETATM   13  C9  UNL     1       7.214  41.156  51.287  1.00  0.00     0.009 C
HETATM   14  C10 UNL     1       7.876  42.523  51.068  1.00  0.00     0.020 C
HETATM   15  C11 UNL     1       6.659  41.213  52.720  1.00  0.00     0.020 C
BRANCH   9  16
HETATM   16  N2  UNL     1       5.892  38.541  50.093  1.00  0.00    -0.072 N
ATOM     17  H23 UNL     1       5.389  38.689  50.968  1.00  0.00     0.274 HD
ATOM     18  H22 UNL     1       5.179  38.018  49.584  1.00  0.00     0.274 HD
ATOM     19  H21 UNL     1       6.731  37.979  50.238  1.00  0.00     0.274 HD
ENDBRANCH   9  16
BRANCH  11  20
HETATM   20  O2  UNL     1       9.850  39.373  49.604  1.00  0.00    -0.249 OA
BRANCH  20  21
HETATM   21  S1  UNL     1      10.668  38.004  49.936  1.00  0.00     0.252 S
HETATM   22  O3  UNL     1       9.882  36.738  49.847  1.00  0.00    -0.572 OA
HETATM   23  O4  UNL     1      11.154  38.094  51.378  1.00  0.00    -0.572 OA
HETATM   24  O5  UNL     1      12.060  37.788  49.013  1.00  0.00    -0.572 OA
ENDBRANCH  20  21
ENDBRANCH  11  20
BRANCH  12  25
HETATM   25  O6  UNL     1       9.455  40.724  51.729  1.00  0.00    -0.392 OA
ATOM     26  H6  UNL     1       9.866  40.188  52.396  1.00  0.00     0.210 HD
ENDBRANCH  12  25
ENDBRANCH   7   8
ENDBRANCH   2   7
BRANCH   1  27
HETATM   27  N1  UNL     1       3.081  43.030  51.529  1.00  0.00    -0.068 N
HETATM   28  C1  UNL     1       4.108  43.888  52.077  1.00  0.00     0.267 C
ATOM     29  H12 UNL     1       2.899  42.241  52.149  1.00  0.00     0.277 HD
ATOM     30  H11 UNL     1       2.170  43.487  51.566  1.00  0.00     0.277 HD
ENDBRANCH   1  27
BRANCH   6  31
HETATM   31  O9  UNL     1       1.105  43.420  50.107  1.00  0.00    -0.391 OA
ATOM     32  H9  UNL     1       1.212  44.364  50.103  1.00  0.00     0.210 HD
ENDBRANCH   6  31
BRANCH   4  33
HETATM   33  C13 UNL     1       1.950  39.067  48.938  1.00  0.00     0.190 C
BRANCH  33  34
HETATM   34  N3  UNL     1       2.288  37.945  49.763  1.00  0.00    -0.250 N
ATOM     35  H3  UNL     1       1.942  37.945  50.722  1.00  0.00     0.197 HD
BRANCH  34  36
HETATM   36  N4  UNL     1       2.961  36.985  49.405  1.00  0.00    -0.248 NA
BRANCH  36  37
HETATM   37  N5  UNL     1       3.578  35.917  49.366  1.00  0.00    -0.261 N
ATOM     38  H52 UNL     1       2.989  35.469  50.069  1.00  0.00     0.193 HD
ATOM     39  H51 UNL     1       4.241  35.174  49.142  1.00  0.00     0.193 HD
ENDBRANCH  36  37
ENDBRANCH  34  36
ENDBRANCH  33  34
ENDBRANCH   4  33
BRANCH   5  40
HETATM   40  O8  UNL     1       2.098  41.178  47.578  1.00  0.00    -0.390 OA
ATOM     41  H8  UNL     1       1.639  40.475  47.134  1.00  0.00     0.210 HD
ENDBRANCH   5  40
TORSDOF 13
ENDMDL