MODEL 1
REMARK VINA RESULT: -6.961592875      0.000      0.000
REMARK  12 active torsions:
REMARK  status: ('A' for Active; 'I' for Inactive)
REMARK    1  A    between atoms: C4_4  and  N1_5
REMARK    2  A    between atoms: C5_9  and  O1_10
REMARK    3  A    between atoms: C6_12  and  S1_13
REMARK    4  A    between atoms: S1_13  and  C7_14
REMARK    5  A    between atoms: C8_16  and  C9_17
REMARK    6  A    between atoms: C9_17  and  O3_18
REMARK    7  A    between atoms: O3_18  and  S2_19
REMARK    8  A    between atoms: S2_19  and  N2_22
REMARK    9  A    between atoms: N2_22  and  C10_24
REMARK   10  A    between atoms: C15_29  and  O6_30
REMARK   11  A    between atoms: C16_32  and  O7_33
REMARK   12  A    between atoms: C17_35  and  O8_36
ROOT
HETATM    1  C7  UNL     1       6.968  41.148  50.307  1.00  0.00     0.215 C
HETATM    2  O2  UNL     1       6.571  41.428  51.599  1.00  0.00    -0.363 OA
HETATM    3  C8  UNL     1       7.636  42.103  52.167  1.00  0.00     0.179 C
HETATM    4  C15 UNL     1       8.900  41.644  51.515  1.00  0.00     0.181 C
HETATM    5  C16 UNL     1       8.366  40.583  50.542  1.00  0.00     0.188 C
ENDROOT
BRANCH   1   6
HETATM    6  S1  UNL     1       5.905  40.060  49.392  1.00  0.00    -0.125 SA
BRANCH   6   7
HETATM    7  C6  UNL     1       4.200  40.036  50.007  1.00  0.00     0.109 C
HETATM    8  C5  UNL     1       3.738  41.443  50.162  1.00  0.00     0.164 C
HETATM    9  C4  UNL     1       2.294  41.598  49.746  1.00  0.00     0.213 C
HETATM   10  C3  UNL     1       1.542  40.399  50.241  1.00  0.00     0.042 C
HETATM   11  C2  UNL     1       1.914  39.242  49.337  1.00  0.00     0.013 C
HETATM   12  C1  UNL     1       1.384  37.932  49.881  1.00  0.00     0.012 C
HETATM   13  C17 UNL     1       3.390  39.202  49.050  1.00  0.00     0.138 C
BRANCH   8  14
HETATM   14  O1  UNL     1       4.465  42.340  49.374  1.00  0.00    -0.392 OA
ATOM     15  H1  UNL     1       4.591  43.115  49.908  1.00  0.00     0.210 HD
ENDBRANCH   8  14
BRANCH   9  16
HETATM   16  N1  UNL     1       1.734  42.853  50.214  1.00  0.00    -0.073 N
ATOM     17  H13 UNL     1       0.741  42.753  50.424  1.00  0.00     0.274 HD
ATOM     18  H12 UNL     1       2.080  43.081  51.146  1.00  0.00     0.274 HD
ATOM     19  H11 UNL     1       1.893  43.626  49.569  1.00  0.00     0.274 HD
ENDBRANCH   9  16
BRANCH  13  20
HETATM   20  O8  UNL     1       3.814  37.872  49.201  1.00  0.00    -0.394 OA
ATOM     21  H8  UNL     1       4.096  37.564  48.348  1.00  0.00     0.210 HD
ENDBRANCH  13  20
ENDBRANCH   6   7
ENDBRANCH   1   6
BRANCH   5  22
HETATM   22  O7  UNL     1       9.127  40.596  49.390  1.00  0.00    -0.389 OA
ATOM     23  H7  UNL     1       9.687  39.830  49.327  1.00  0.00     0.210 HD
ENDBRANCH   5  22
BRANCH   3  24
HETATM   24  C9  UNL     1       7.391  43.604  51.958  1.00  0.00     0.226 C
BRANCH  24  25
HETATM   25  O3  UNL     1       6.228  43.921  52.619  1.00  0.00    -0.257 OA
BRANCH  25  26
HETATM   26  S2  UNL     1       5.440  45.261  51.987  1.00  0.00     0.358 S
HETATM   27  O4  UNL     1       6.502  46.186  51.468  1.00  0.00    -0.176 OA
HETATM   28  O5  UNL     1       4.584  44.737  50.841  1.00  0.00    -0.176 OA
BRANCH  26  29
HETATM   29  N2  UNL     1       4.461  45.954  53.176  1.00  0.00    -0.292 N
ATOM     30  H2  UNL     1       4.861  46.449  53.974  1.00  0.00     0.174 HD
BRANCH  29  31
HETATM   31  C10 UNL     1       3.063  45.817  53.015  1.00  0.00     0.095 C
HETATM   32  C11 UNL     1       2.236  46.819  53.769  1.00  0.00     0.026 C
HETATM   33  C12 UNL     1       1.162  46.001  54.454  1.00  0.00     0.002 C
HETATM   34  C13 UNL     1       1.074  44.728  53.635  1.00  0.00     0.002 C
HETATM   35  C14 UNL     1       2.533  44.447  53.343  1.00  0.00     0.026 C
ENDBRANCH  29  31
ENDBRANCH  26  29
ENDBRANCH  25  26
ENDBRANCH  24  25
ENDBRANCH   3  24
BRANCH   4  36
HETATM   36  O6  UNL     1       9.845  41.142  52.371  1.00  0.00    -0.390 OA
ATOM     37  H6  UNL     1      10.690  41.575  52.335  1.00  0.00     0.210 HD
ENDBRANCH   4  36
TORSDOF 12
ENDMDL