MODEL 1
REMARK VINA RESULT: -6.504746060      0.000      0.000
REMARK  12 active torsions:
REMARK  status: ('A' for Active; 'I' for Inactive)
REMARK    1  A    between atoms: C2_2  and  C4_4
REMARK    2  A    between atoms: C5_6  and  O2_7
REMARK    3  A    between atoms: O2_7  and  C6_8
REMARK    4  A    between atoms: C9_12  and  C10_13
REMARK    5  A    between atoms: C10_13  and  N1_14
REMARK    6  A    between atoms: C12_17  and  O4_18
REMARK    7  A    between atoms: O4_18  and  C13_19
REMARK    8  A    between atoms: C16_22  and  O5_23
REMARK    9  A    between atoms: C17_25  and  O6_26
REMARK   10  A    between atoms: C18_28  and  O7_29
REMARK   11  A    between atoms: C20_32  and  N2_33
REMARK   12  A    between atoms: C21_37  and  O8_38
ROOT
HETATM    1  C6  UNL     1       3.863  41.852  49.810  1.00  0.00     0.184 C
HETATM    2  C7  UNL     1       2.683  41.044  50.305  1.00  0.00     0.149 C
HETATM    3  C8  UNL     1       1.930  40.354  49.247  1.00  0.00     0.042 C
HETATM    4  O3  UNL     1       1.920  42.012  50.971  1.00  0.00    -0.374 OA
HETATM    5  C9  UNL     1       2.823  42.793  51.603  1.00  0.00     0.170 C
HETATM    6  C12 UNL     1       4.220  42.207  51.503  1.00  0.00     0.184 C
ENDROOT
BRANCH   1   7
HETATM    7  O2  UNL     1       4.798  41.202  49.337  1.00  0.00    -0.351 OA
BRANCH   7   8
HETATM    8  C5  UNL     1       5.406  40.223  48.808  1.00  0.00     0.263 C
HETATM    9  O1  UNL     1       6.755  40.374  48.610  1.00  0.00    -0.349 OA
HETATM   10  C4  UNL     1       7.535  39.923  49.673  1.00  0.00     0.183 C
HETATM   11  C21 UNL     1       7.566  38.417  49.729  1.00  0.00     0.181 C
HETATM   12  C20 UNL     1       6.207  37.952  49.141  1.00  0.00     0.219 C
HETATM   13  C19 UNL     1       5.238  38.929  49.766  1.00  0.00     0.096 C
BRANCH  10  14
HETATM   14  C2  UNL     1       8.917  40.410  49.585  1.00  0.00    -0.062 C
HETATM   15  C1  UNL     1       9.402  40.968  48.446  1.00  0.00     0.016 C
HETATM   16  C3  UNL     1       9.873  40.384  50.724  1.00  0.00     0.045 C
ENDBRANCH  10  14
BRANCH  11  17
HETATM   17  O8  UNL     1       8.594  37.800  49.124  1.00  0.00    -0.391 OA
ATOM     18  H8  UNL     1       8.615  36.851  49.161  1.00  0.00     0.210 HD
ENDBRANCH  11  17
BRANCH  12  19
HETATM   19  N2  UNL     1       6.276  37.954  47.721  1.00  0.00    -0.072 N
ATOM     20  H23 UNL     1       5.570  38.583  47.342  1.00  0.00     0.274 HD
ATOM     21  H22 UNL     1       7.127  38.428  47.419  1.00  0.00     0.274 HD
ATOM     22  H21 UNL     1       6.208  37.045  47.264  1.00  0.00     0.274 HD
ENDBRANCH  12  19
ENDBRANCH   7   8
ENDBRANCH   1   7
BRANCH   6  23
HETATM   23  O4  UNL     1       5.156  42.992  51.383  1.00  0.00    -0.373 OA
BRANCH  23  24
HETATM   24  C13 UNL     1       6.130  43.821  51.257  1.00  0.00     0.153 C
HETATM   25  C14 UNL     1       7.496  43.057  51.504  1.00  0.00     0.037 C
HETATM   26  C15 UNL     1       8.500  43.891  52.220  1.00  0.00     0.037 C
HETATM   27  C16 UNL     1       8.571  45.312  51.785  1.00  0.00     0.149 C
HETATM   28  C17 UNL     1       7.220  45.977  51.946  1.00  0.00     0.178 C
HETATM   29  C18 UNL     1       6.075  45.035  52.136  1.00  0.00     0.178 C
BRANCH  27  30
HETATM   30  O5  UNL     1       9.477  45.994  52.588  1.00  0.00    -0.393 OA
ATOM     31  H5  UNL     1       9.009  46.619  53.129  1.00  0.00     0.210 HD
ENDBRANCH  27  30
BRANCH  28  32
HETATM   32  O6  UNL     1       7.266  46.912  52.986  1.00  0.00    -0.390 OA
ATOM     33  H6  UNL     1       6.498  47.470  52.958  1.00  0.00     0.210 HD
ENDBRANCH  28  32
BRANCH  29  34
HETATM   34  O7  UNL     1       4.908  45.801  51.823  1.00  0.00    -0.390 OA
ATOM     35  H7  UNL     1       5.126  46.726  51.816  1.00  0.00     0.210 HD
ENDBRANCH  29  34
ENDBRANCH  23  24
ENDBRANCH   6  23
BRANCH   5  36
HETATM   36  C10 UNL     1       2.342  43.405  52.835  1.00  0.00     0.147 C
BRANCH  36  37
HETATM   37  N1  UNL     1       2.527  44.790  53.075  1.00  0.00    -0.423 N
HETATM   38  C11 UNL     1       1.491  45.442  53.816  1.00  0.00     0.139 C
ATOM     39  H1  UNL     1       3.350  45.291  52.740  1.00  0.00     0.152 HD
ENDBRANCH  36  37
ENDBRANCH   5  36
TORSDOF 12
ENDMDL