MODEL 2
REMARK VINA RESULT: -5.683736296      1.394      1.761
REMARK  13 active torsions:
REMARK  status: ('A' for Active; 'I' for Inactive)
REMARK    1  A    between atoms: N1_1  and  C1_5
REMARK    2  A    between atoms: C1_5  and  C2_6
REMARK    3  A    between atoms: C2_6  and  C3_7
REMARK    4  A    between atoms: C12_16  and  O1_17
REMARK    5  A    between atoms: C13_19  and  O2_20
REMARK    6  A    between atoms: O2_20  and  C14_21
REMARK    7  A    between atoms: C15_23  and  C16_24
REMARK    8  A    between atoms: C16_24  and  O4_25
REMARK    9  A    between atoms: O4_25  and  C17_26
REMARK   10  A    between atoms: C19_29  and  O6_30
REMARK   11  A    between atoms: C20_32  and  O7_33
REMARK   12  A    between atoms: C21_35  and  O8_36
REMARK   13  A    between atoms: C22_38  and  O9_39
ROOT
HETATM    1  C14 UNL     1       7.523  40.686  50.865  1.00  0.00     0.292 C
HETATM    2  O3  UNL     1       6.841  40.921  49.644  1.00  0.00    -0.348 OA
HETATM    3  C15 UNL     1       6.788  39.530  49.524  1.00  0.00     0.182 C
HETATM    4  C22 UNL     1       6.614  39.478  51.023  1.00  0.00     0.204 C
ENDROOT
BRANCH   1   5
HETATM    5  O2  UNL     1       7.350  41.672  51.801  1.00  0.00    -0.350 OA
BRANCH   5   6
HETATM    6  C13 UNL     1       7.750  42.952  51.414  1.00  0.00     0.157 C
HETATM    7  C3  UNL     1       6.905  43.985  52.075  1.00  0.00     0.019 C
HETATM    8  C4  UNL     1       7.586  45.224  52.530  1.00  0.00     0.007 C
HETATM    9  C5  UNL     1       7.985  46.173  51.429  1.00  0.00     0.000 C
HETATM   10  C6  UNL     1       9.169  47.042  51.871  1.00  0.00     0.000 C
HETATM   11  C7  UNL     1      10.200  47.119  50.781  1.00  0.00     0.000 C
HETATM   12  C8  UNL     1      11.315  46.101  50.985  1.00  0.00     0.000 C
HETATM   13  C9  UNL     1      11.273  45.112  49.868  1.00  0.00     0.000 C
HETATM   14  C10 UNL     1      11.271  43.669  50.322  1.00  0.00     0.002 C
HETATM   15  C11 UNL     1       9.902  43.046  50.244  1.00  0.00     0.034 C
HETATM   16  C12 UNL     1       9.212  43.051  51.609  1.00  0.00     0.147 C
BRANCH   7  17
HETATM   17  C2  UNL     1       5.776  44.326  51.138  1.00  0.00     0.034 C
BRANCH  17  18
HETATM   18  C1  UNL     1       4.549  43.503  51.306  1.00  0.00     0.230 C
BRANCH  18  19
HETATM   19  N1  UNL     1       4.474  42.433  50.301  1.00  0.00    -0.079 N
ATOM     20  H13 UNL     1       3.573  42.433  49.824  1.00  0.00     0.274 HD
ATOM     21  H12 UNL     1       5.077  42.630  49.502  1.00  0.00     0.274 HD
ATOM     22  H11 UNL     1       4.680  41.521  50.709  1.00  0.00     0.274 HD
ENDBRANCH  18  19
ENDBRANCH  17  18
ENDBRANCH   7  17
BRANCH  16  23
HETATM   23  O1  UNL     1       9.766  41.954  52.283  1.00  0.00    -0.393 OA
ATOM     24  H1  UNL     1      10.455  41.644  51.707  1.00  0.00     0.210 HD
ENDBRANCH  16  23
ENDBRANCH   5   6
ENDBRANCH   1   5
BRANCH   4  25
HETATM   25  O9  UNL     1       5.318  39.793  51.422  1.00  0.00    -0.388 OA
ATOM     26  H9  UNL     1       4.871  39.087  51.872  1.00  0.00     0.210 HD
ENDBRANCH   4  25
BRANCH   3  27
HETATM   27  C16 UNL     1       5.617  39.011  48.732  1.00  0.00     0.205 C
BRANCH  27  28
HETATM   28  O4  UNL     1       4.705  39.989  48.414  1.00  0.00    -0.356 OA
BRANCH  28  29
HETATM   29  C17 UNL     1       3.427  39.424  48.503  1.00  0.00     0.290 C
HETATM   30  O5  UNL     1       3.325  38.560  49.589  1.00  0.00    -0.356 OA
HETATM   31  C18 UNL     1       2.110  37.890  49.470  1.00  0.00     0.205 C
HETATM   32  C19 UNL     1       0.962  38.889  49.604  1.00  0.00     0.173 C
HETATM   33  C20 UNL     1       1.524  40.300  49.794  1.00  0.00     0.182 C
HETATM   34  C21 UNL     1       2.411  40.545  48.583  1.00  0.00     0.204 C
BRANCH  32  35
HETATM   35  O6  UNL     1       0.192  38.617  50.738  1.00  0.00    -0.391 OA
ATOM     36  H6  UNL     1       0.415  39.204  51.450  1.00  0.00     0.210 HD
ENDBRANCH  32  35
BRANCH  33  37
HETATM   37  O7  UNL     1       2.249  40.390  50.964  1.00  0.00    -0.390 OA
ATOM     38  H7  UNL     1       2.823  39.640  51.067  1.00  0.00     0.210 HD
ENDBRANCH  33  37
BRANCH  34  39
HETATM   39  O8  UNL     1       1.564  40.561  47.475  1.00  0.00    -0.388 OA
ATOM     40  H8  UNL     1       1.679  41.345  46.951  1.00  0.00     0.210 HD
ENDBRANCH  34  39
ENDBRANCH  28  29
ENDBRANCH  27  28
ENDBRANCH   3  27
TORSDOF 13
ENDMDL