MODEL 4
REMARK VINA RESULT: -7.017176453      2.153      3.340
REMARK  13 active torsions:
REMARK  status: ('A' for Active; 'I' for Inactive)
REMARK    1  A    between atoms: C2_2  and  C3_3
REMARK    2  A    between atoms: C3_3  and  C4_4
REMARK    3  A    between atoms: C9_9  and  O1_10
REMARK    4  A    between atoms: O1_10  and  C10_11
REMARK    5  A    between atoms: C12_13  and  O2_14
REMARK    6  A    between atoms: C13_16  and  O3_17
REMARK    7  A    between atoms: C14_19  and  C15_20
REMARK    8  A    between atoms: C15_20  and  O4_21
REMARK    9  A    between atoms: O4_21  and  C16_22
REMARK   10  A    between atoms: C17_24  and  C18_25
REMARK   11  A    between atoms: C19_28  and  O8_29
REMARK   12  A    between atoms: C20_31  and  O9_32
REMARK   13  A    between atoms: C21_34  and  O10_35
ROOT
HETATM    1  C10 UNL     1       7.938  40.648  49.924  1.00  0.00     0.263 C
HETATM    2  C11 UNL     1       9.207  40.350  49.152  1.00  0.00     0.095 C
HETATM    3  C12 UNL     1       8.935  39.231  48.172  1.00  0.00     0.154 C
HETATM    4  C13 UNL     1       7.479  38.868  48.156  1.00  0.00     0.178 C
HETATM    5  C14 UNL     1       6.910  38.646  49.533  1.00  0.00     0.179 C
HETATM    6  O11 UNL     1       7.471  39.474  50.490  1.00  0.00    -0.351 OA
ENDROOT
BRANCH   5   7
HETATM    7  C15 UNL     1       5.413  38.856  49.437  1.00  0.00     0.205 C
BRANCH   7   8
HETATM    8  O4  UNL     1       5.006  39.454  48.276  1.00  0.00    -0.356 OA
BRANCH   8   9
HETATM    9  C16 UNL     1       3.692  39.831  48.199  1.00  0.00     0.292 C
HETATM   10  O5  UNL     1       3.004  39.063  49.169  1.00  0.00    -0.340 OA
HETATM   11  C17 UNL     1       1.648  39.288  49.146  1.00  0.00     0.256 C
HETATM   12  C19 UNL     1       1.432  40.683  49.746  1.00  0.00     0.189 C
HETATM   13  C20 UNL     1       2.086  41.661  48.808  1.00  0.00     0.183 C
HETATM   14  C21 UNL     1       3.480  41.307  48.436  1.00  0.00     0.204 C
BRANCH  11  15
HETATM   15  C18 UNL     1       0.993  38.261  49.982  1.00  0.00     0.206 C
HETATM   16  O6  UNL     1       1.540  37.177  50.300  1.00  0.00    -0.646 OA
HETATM   17  O7  UNL     1      -0.292  38.490  50.444  1.00  0.00    -0.646 OA
ENDBRANCH  11  15
BRANCH  12  18
HETATM   18  O8  UNL     1       2.067  40.758  50.972  1.00  0.00    -0.390 OA
ATOM     19  H8  UNL     1       1.993  41.642  51.310  1.00  0.00     0.210 HD
ENDBRANCH  12  18
BRANCH  13  20
HETATM   20  O9  UNL     1       2.109  42.900  49.462  1.00  0.00    -0.390 OA
ATOM     21  H9  UNL     1       2.002  43.567  48.794  1.00  0.00     0.210 HD
ENDBRANCH  13  20
BRANCH  14  22
HETATM   22  O10 UNL     1       4.377  41.821  49.379  1.00  0.00    -0.388 OA
ATOM     23  H10 UNL     1       4.795  42.618  49.075  1.00  0.00     0.210 HD
ENDBRANCH  14  22
ENDBRANCH   8   9
ENDBRANCH   7   8
ENDBRANCH   5   7
BRANCH   4  24
HETATM   24  O3  UNL     1       7.381  37.634  47.475  1.00  0.00    -0.390 OA
ATOM     25  H3  UNL     1       6.525  37.279  47.684  1.00  0.00     0.210 HD
ENDBRANCH   4  24
BRANCH   3  26
HETATM   26  O2  UNL     1       9.694  38.085  48.474  1.00  0.00    -0.393 OA
ATOM     27  H2  UNL     1       9.523  37.777  49.356  1.00  0.00     0.210 HD
ENDBRANCH   3  26
BRANCH   1  28
HETATM   28  O1  UNL     1       8.041  41.704  50.748  1.00  0.00    -0.356 OA
BRANCH  28  29
HETATM   29  C9  UNL     1       6.972  42.160  51.442  1.00  0.00     0.129 C
HETATM   30  C4  UNL     1       6.707  43.629  51.327  1.00  0.00     0.018 C
HETATM   31  C5  UNL     1       5.421  43.955  52.051  1.00  0.00     0.007 C
HETATM   32  C6  UNL     1       4.601  42.728  52.379  1.00  0.00     0.001 C
HETATM   33  C7  UNL     1       5.370  41.725  53.201  1.00  0.00     0.002 C
HETATM   34  C8  UNL     1       6.860  41.757  52.866  1.00  0.00     0.032 C
BRANCH  30  35
HETATM   35  C3  UNL     1       7.762  44.487  51.968  1.00  0.00     0.033 C
BRANCH  35  36
HETATM   36  C2  UNL     1       7.256  45.887  52.009  1.00  0.00    -0.036 C
HETATM   37  C1  UNL     1       7.960  46.879  52.554  1.00  0.00     0.007 C
ENDBRANCH  35  36
ENDBRANCH  30  35
ENDBRANCH  28  29
ENDBRANCH   1  28
TORSDOF 13
ENDMDL