MODEL 2
REMARK VINA RESULT: -7.356379229      3.456      5.607
REMARK  13 active torsions:
REMARK  status: ('A' for Active; 'I' for Inactive)
REMARK    1  A    between atoms: N1_1  and  C1_5
REMARK    2  A    between atoms: C3_7  and  N2_8
REMARK    3  A    between atoms: C4_12  and  O1_13
REMARK    4  A    between atoms: O1_13  and  C5_14
REMARK    5  A    between atoms: C5_14  and  C6_15
REMARK    6  A    between atoms: C12_21  and  O2_22
REMARK    7  A    between atoms: C13_24  and  N3_25
REMARK    8  A    between atoms: N3_25  and  C14_28
REMARK    9  A    between atoms: C16_30  and  O3_31
REMARK   10  A    between atoms: O3_31  and  C17_32
REMARK   11  A    between atoms: C17_32  and  C18_34
REMARK   12  A    between atoms: C22_39  and  O6_40
REMARK   13  A    between atoms: C23_42  and  N4_43
ROOT
HETATM    1  C1  UNL     1       9.407  42.762  50.301  1.00  0.00     0.218 C
HETATM    2  C2  UNL     1      10.092  43.780  51.185  1.00  0.00     0.070 C
HETATM    3  C3  UNL     1       9.116  44.024  52.348  1.00  0.00     0.216 C
HETATM    4  C4  UNL     1       7.764  44.139  51.717  1.00  0.00     0.183 C
HETATM    5  C12 UNL     1       7.268  42.647  51.608  1.00  0.00     0.181 C
HETATM    6  C13 UNL     1       8.430  41.887  51.063  1.00  0.00     0.247 C
ENDROOT
BRANCH   6   7
HETATM    7  N3  UNL     1       8.050  40.818  50.169  1.00  0.00    -0.060 N
ATOM      8  H32 UNL     1       7.477  41.180  49.407  1.00  0.00     0.278 HD
ATOM      9  H31 UNL     1       8.860  40.494  49.641  1.00  0.00     0.278 HD
BRANCH   7  10
HETATM   10  C14 UNL     1       7.398  39.720  50.799  1.00  0.00     0.222 C
HETATM   11  C15 UNL     1       5.910  39.835  50.479  1.00  0.00     0.070 C
HETATM   12  C16 UNL     1       5.512  38.538  49.850  1.00  0.00     0.165 C
HETATM   13  C22 UNL     1       6.827  38.111  49.185  1.00  0.00     0.180 C
HETATM   14  C23 UNL     1       7.805  38.371  50.314  1.00  0.00     0.245 C
BRANCH  12  15
HETATM   15  O3  UNL     1       4.580  38.692  48.793  1.00  0.00    -0.309 OA
BRANCH  15  16
HETATM   16  C17 UNL     1       3.266  39.012  49.058  1.00  0.00     0.291 C
HETATM   17  O4  UNL     1       2.509  38.067  49.416  1.00  0.00    -0.260 OA
BRANCH  16  18
HETATM   18  C18 UNL     1       2.743  40.377  48.937  1.00  0.00     0.041 C
HETATM   19  C19 UNL     1       3.154  41.269  48.056  1.00  0.00     0.147 C
HETATM   20  O5  UNL     1       2.456  42.467  48.203  1.00  0.00    -0.362 OA
HETATM   21  C20 UNL     1       1.928  42.481  49.526  1.00  0.00     0.179 C
HETATM   22  C21 UNL     1       1.694  41.002  49.741  1.00  0.00     0.073 C
ENDBRANCH  16  18
ENDBRANCH  15  16
ENDBRANCH  12  15
BRANCH  13  23
HETATM   23  O6  UNL     1       6.802  36.792  48.799  1.00  0.00    -0.391 OA
ATOM     24  H6  UNL     1       7.672  36.463  48.606  1.00  0.00     0.210 HD
ENDBRANCH  13  23
BRANCH  14  25
HETATM   25  N4  UNL     1       7.527  37.411  51.366  1.00  0.00    -0.070 N
ATOM     26  H43 UNL     1       6.932  37.794  52.101  1.00  0.00     0.274 HD
ATOM     27  H42 UNL     1       6.905  36.662  51.061  1.00  0.00     0.274 HD
ATOM     28  H41 UNL     1       8.418  37.064  51.721  1.00  0.00     0.274 HD
ENDBRANCH  14  25
ENDBRANCH   7  10
ENDBRANCH   6   7
BRANCH   1  29
HETATM   29  N1  UNL     1      10.427  41.864  49.750  1.00  0.00    -0.073 N
ATOM     30  H13 UNL     1      11.329  42.323  49.629  1.00  0.00     0.274 HD
ATOM     31  H12 UNL     1      10.721  41.150  50.418  1.00  0.00     0.274 HD
ATOM     32  H11 UNL     1      10.070  41.464  48.882  1.00  0.00     0.274 HD
ENDBRANCH   1  29
BRANCH   5  33
HETATM   33  O2  UNL     1       6.937  42.319  52.922  1.00  0.00    -0.391 OA
ATOM     34  H2  UNL     1       7.592  41.673  53.160  1.00  0.00     0.210 HD
ENDBRANCH   5  33
BRANCH   4  35
HETATM   35  O1  UNL     1       6.885  44.811  52.528  1.00  0.00    -0.377 OA
BRANCH  35  36
HETATM   36  C5  UNL     1       5.908  45.528  51.900  1.00  0.00     0.207 C
BRANCH  36  37
HETATM   37  C6  UNL     1       4.581  45.337  52.502  1.00  0.00    -0.035 A
HETATM   38  C7  UNL     1       3.832  46.322  53.105  1.00  0.00     0.009 A
HETATM   39  C8  UNL     1       2.576  46.095  53.646  1.00  0.00     0.001 A
HETATM   40  C9  UNL     1       2.014  44.838  53.599  1.00  0.00     0.000 A
HETATM   41  C10 UNL     1       2.758  43.847  52.998  1.00  0.00     0.001 A
HETATM   42  C11 UNL     1       3.992  44.072  52.466  1.00  0.00     0.009 A
ENDBRANCH  36  37
ENDBRANCH  35  36
ENDBRANCH   4  35
BRANCH   3  43
HETATM   43  N2  UNL     1       9.570  45.156  53.073  1.00  0.00    -0.072 N
ATOM     44  H23 UNL     1      10.567  45.117  53.281  1.00  0.00     0.274 HD
ATOM     45  H22 UNL     1       9.580  46.006  52.510  1.00  0.00     0.274 HD
ATOM     46  H21 UNL     1       8.995  45.245  53.911  1.00  0.00     0.274 HD
ENDBRANCH   3  43
TORSDOF 13
ENDMDL