MODEL 3
REMARK VINA RESULT: -7.864181484      1.827      2.519
REMARK  8 active torsions:
REMARK  status: ('A' for Active; 'I' for Inactive)
REMARK    1  A    between atoms: N1_2  and  C1_4
REMARK    2  A    between atoms: C4_7  and  S1_8
REMARK    3  A    between atoms: S1_8  and  N2_11
REMARK    4  A    between atoms: N2_11  and  N3_13
REMARK    5  A    between atoms: N3_13  and  C5_14
REMARK    6  A    between atoms: N3_13  and  S2_23
REMARK    7  A    between atoms: C6_20  and  O5_21
REMARK    8  A    between atoms: S2_23  and  C7_26
ROOT
HETATM    1  N3  UNL     1       5.354  41.070  50.102  1.00  0.00    -0.178 N
ENDROOT
BRANCH   1   2
HETATM    2  N2  UNL     1       5.100  41.426  51.406  1.00  0.00    -0.209 N
ATOM      3  H2  UNL     1       4.584  40.840  52.062  1.00  0.00     0.201 HD
BRANCH   2   4
HETATM    4  S1  UNL     1       5.753  42.982  51.818  1.00  0.00     0.276 S
HETATM    5  O3  UNL     1       6.857  42.863  52.831  1.00  0.00    -0.199 OA
HETATM    6  O4  UNL     1       6.261  43.682  50.564  1.00  0.00    -0.199 OA
BRANCH   4   7
HETATM    7  C4  UNL     1       4.526  44.026  52.494  1.00  0.00     0.081 A
HETATM    8  C3  UNL     1       4.741  45.392  52.667  1.00  0.00     0.028 A
HETATM    9  C2  UNL     1       3.739  46.138  53.199  1.00  0.00     0.037 A
HETATM   10  C1  UNL     1       2.532  45.567  53.561  1.00  0.00     0.102 A
HETATM   11  C14 UNL     1       2.320  44.210  53.388  1.00  0.00     0.037 A
HETATM   12  C13 UNL     1       3.325  43.454  52.854  1.00  0.00     0.028 A
BRANCH  10  13
HETATM   13  N1  UNL     1       1.483  46.340  54.116  1.00  0.00    -0.116 N
HETATM   14  O1  UNL     1       0.366  45.782  54.255  1.00  0.00    -0.532 OA
HETATM   15  O2  UNL     1       1.701  47.639  54.480  1.00  0.00    -0.532 OA
ENDBRANCH  10  13
ENDBRANCH   4   7
ENDBRANCH   2   4
ENDBRANCH   1   2
BRANCH   1  16
HETATM   16  C5  UNL     1       6.245  39.992  49.909  1.00  0.00     0.280 C
HETATM   17  N4  UNL     1       6.557  39.365  51.197  1.00  0.00    -0.095 NA
HETATM   18  N5  UNL     1       7.540  38.404  50.932  1.00  0.00    -0.015 NA
HETATM   19  N6  UNL     1       8.776  38.957  50.619  1.00  0.00    -0.015 NA
HETATM   20  N7  UNL     1       8.702  40.072  49.812  1.00  0.00    -0.290 N
HETATM   21  C6  UNL     1       7.466  40.221  49.099  1.00  0.00     0.273 C
ATOM     22  H7  UNL     1       9.468  40.740  49.729  1.00  0.00     0.180 HD
BRANCH  21  23
HETATM   23  O5  UNL     1       7.532  39.283  48.033  1.00  0.00    -0.372 OA
ATOM     24  H5  UNL     1       7.274  39.696  47.217  1.00  0.00     0.212 HD
ENDBRANCH  21  23
ENDBRANCH   1  16
BRANCH   1  25
HETATM   25  S2  UNL     1       4.018  41.060  49.072  1.00  0.00     0.280 S
HETATM   26  O6  UNL     1       3.262  42.388  49.217  1.00  0.00    -0.199 OA
HETATM   27  O7  UNL     1       4.414  41.025  47.618  1.00  0.00    -0.199 OA
BRANCH  25  28
HETATM   28  C7  UNL     1       2.834  39.831  49.435  1.00  0.00     0.081 A
HETATM   29  C8  UNL     1       1.599  40.171  49.928  1.00  0.00     0.025 A
HETATM   30  C9  UNL     1       0.681  39.182  50.188  1.00  0.00     0.002 A
HETATM   31  C10 UNL     1       0.955  37.846  49.971  1.00  0.00     0.000 A
HETATM   32  C11 UNL     1       2.196  37.509  49.475  1.00  0.00     0.002 A
HETATM   33  C12 UNL     1       3.121  38.510  49.213  1.00  0.00     0.025 A
ENDBRANCH  25  28
ENDBRANCH   1  25
TORSDOF 8
ENDMDL