MODEL 2
REMARK VINA RESULT: -6.393007864      1.578      2.261
REMARK  11 active torsions:
REMARK  status: ('A' for Active; 'I' for Inactive)
REMARK    1  A    between atoms: C5_5  and  O1_6
REMARK    2  A    between atoms: O1_6  and  C6_7
REMARK    3  A    between atoms: C7_9  and  C8_10
REMARK    4  A    between atoms: C8_10  and  O3_11
REMARK    5  A    between atoms: C9_13  and  O4_14
REMARK    6  A    between atoms: C10_16  and  N1_17
REMARK    7  A    between atoms: N1_17  and  C11_19
REMARK    8  A    between atoms: C11_19  and  C12_20
REMARK    9  A    between atoms: C12_20  and  O5_21
REMARK   10  A    between atoms: C13_23  and  O6_24
REMARK   11  A    between atoms: C17_31  and  C18_32
ROOT
HETATM    1  C1  UNL     1       8.284  35.821  50.412  1.00  0.00     0.047 C
HETATM    2  C2  UNL     1       7.863  37.272  50.160  1.00  0.00     0.068 C
HETATM    3  C3  UNL     1       7.466  37.491  48.723  1.00  0.00     0.041 C
HETATM    4  C4  UNL     1       6.009  37.800  48.594  1.00  0.00     0.037 C
HETATM    5  C5  UNL     1       5.528  39.087  49.069  1.00  0.00     0.154 C
HETATM    6  C13 UNL     1       6.521  40.153  49.389  1.00  0.00     0.160 C
HETATM    7  C14 UNL     1       7.378  39.926  50.577  1.00  0.00     0.038 C
HETATM    8  C15 UNL     1       7.435  41.198  51.405  1.00  0.00     0.024 C
HETATM    9  C16 UNL     1       6.879  38.867  51.523  1.00  0.00     0.273 C
HETATM   10  O7  UNL     1       6.780  37.614  50.964  1.00  0.00    -0.349 OA
HETATM   11  O8  UNL     1       7.810  38.788  52.561  1.00  0.00    -0.342 OA
HETATM   12  C17 UNL     1       9.042  38.336  52.091  1.00  0.00     0.123 C
HETATM   13  C19 UNL     1      10.074  39.469  52.200  1.00  0.00     0.046 C
HETATM   14  C20 UNL     1       9.834  40.294  50.969  1.00  0.00     0.009 C
HETATM   15  C21 UNL     1       8.779  39.593  50.152  1.00  0.00     0.011 C
HETATM   16  C22 UNL     1       9.023  38.139  50.587  1.00  0.00     0.067 C
ENDROOT
BRANCH   5  17
HETATM   17  O1  UNL     1       4.666  39.650  48.124  1.00  0.00    -0.351 OA
BRANCH  17  18
HETATM   18  C6  UNL     1       3.348  39.664  48.516  1.00  0.00     0.285 C
HETATM   19  O2  UNL     1       3.160  39.259  49.831  1.00  0.00    -0.349 OA
HETATM   20  C7  UNL     1       1.938  39.748  50.241  1.00  0.00     0.179 C
HETATM   21  C9  UNL     1       1.597  40.927  49.354  1.00  0.00     0.176 C
HETATM   22  C10 UNL     1       2.890  41.105  48.600  1.00  0.00     0.163 C
BRANCH  20  23
HETATM   23  C8  UNL     1       0.853  38.696  50.209  1.00  0.00     0.198 C
BRANCH  23  24
HETATM   24  O3  UNL     1       0.828  37.929  51.369  1.00  0.00    -0.398 OA
ATOM     25  H3  UNL     1      -0.028  37.550  51.531  1.00  0.00     0.209 HD
ENDBRANCH  23  24
ENDBRANCH  20  23
BRANCH  21  26
HETATM   26  O4  UNL     1       1.301  42.044  50.140  1.00  0.00    -0.391 OA
ATOM     27  H4  UNL     1       0.376  42.250  50.073  1.00  0.00     0.210 HD
ENDBRANCH  21  26
BRANCH  22  28
HETATM   28  N1  UNL     1       2.776  41.673  47.322  1.00  0.00    -0.408 N
ATOM     29  H1  UNL     1       3.296  42.513  47.071  1.00  0.00     0.153 HD
BRANCH  28  30
HETATM   30  C11 UNL     1       1.917  41.042  46.395  1.00  0.00     0.140 C
BRANCH  30  31
HETATM   31  C12 UNL     1       2.355  41.517  44.998  1.00  0.00     0.183 C
BRANCH  31  32
HETATM   32  O5  UNL     1       3.077  40.526  44.340  1.00  0.00    -0.399 OA
ATOM     33  H5  UNL     1       3.226  39.780  44.910  1.00  0.00     0.209 HD
ENDBRANCH  31  32
ENDBRANCH  30  31
ENDBRANCH  28  30
ENDBRANCH  22  28
ENDBRANCH  17  18
ENDBRANCH   5  17
BRANCH   6  34
HETATM   34  O6  UNL     1       7.271  40.479  48.258  1.00  0.00    -0.392 OA
ATOM     35  H6  UNL     1       7.649  41.346  48.347  1.00  0.00     0.210 HD
ENDBRANCH   6  34
BRANCH  12  36
HETATM   36  C18 UNL     1       9.523  37.158  52.839  1.00  0.00     0.269 C
HETATM   37  O9  UNL     1      10.685  37.032  53.104  1.00  0.00    -0.304 OA
ENDBRANCH  12  36
TORSDOF 11
ENDMDL