MODEL 1
REMARK VINA RESULT: -6.482609226      0.000      0.000
REMARK  12 active torsions:
REMARK  status: ('A' for Active; 'I' for Inactive)
REMARK    1  A    between atoms: O1_2  and  C2_3
REMARK    2  A    between atoms: C3_4  and  N1_5
REMARK    3  A    between atoms: C5_10  and  O2_11
REMARK    4  A    between atoms: O2_11  and  C6_12
REMARK    5  A    between atoms: C7_13  and  O3_14
REMARK    6  A    between atoms: C8_17  and  C9_18
REMARK    7  A    between atoms: C14_23  and  N2_24
REMARK    8  A    between atoms: N2_24  and  C15_27
REMARK    9  A    between atoms: C15_27  and  C17_29
REMARK   10  A    between atoms: C17_29  and  O5_30
REMARK   11  A    between atoms: C18_32  and  O6_33
REMARK   12  A    between atoms: C19_35  and  O7_36
ROOT
HETATM    1  C6  UNL     1       2.851  40.105  49.099  1.00  0.00     0.210 C
HETATM    2  C7  UNL     1       3.755  41.053  48.343  1.00  0.00     0.288 C
HETATM    3  O4  UNL     1       4.531  41.825  49.205  1.00  0.00    -0.350 OA
HETATM    4  C8  UNL     1       3.703  42.639  50.019  1.00  0.00     0.162 C
HETATM    5  C18 UNL     1       3.112  41.627  51.011  1.00  0.00     0.179 C
HETATM    6  C19 UNL     1       2.113  40.798  50.215  1.00  0.00     0.183 C
ENDROOT
BRANCH   1   7
HETATM    7  O2  UNL     1       3.648  39.122  49.675  1.00  0.00    -0.348 OA
BRANCH   7   8
HETATM    8  C5  UNL     1       4.056  38.162  48.739  1.00  0.00     0.263 C
HETATM    9  C4  UNL     1       3.590  36.838  49.206  1.00  0.00     0.096 C
HETATM   10  C3  UNL     1       4.479  35.683  48.885  1.00  0.00     0.219 C
HETATM   11  C2  UNL     1       5.933  36.034  48.768  1.00  0.00     0.179 C
HETATM   12  C20 UNL     1       6.000  37.274  47.864  1.00  0.00     0.151 C
HETATM   13  O8  UNL     1       5.428  38.298  48.614  1.00  0.00    -0.354 OA
HETATM   14  C21 UNL     1       7.470  37.604  47.703  1.00  0.00     0.042 C
BRANCH  10  15
HETATM   15  N1  UNL     1       4.357  34.669  49.922  1.00  0.00    -0.072 N
ATOM     16  H13 UNL     1       4.753  33.770  49.647  1.00  0.00     0.274 HD
ATOM     17  H12 UNL     1       4.965  34.843  50.723  1.00  0.00     0.274 HD
ATOM     18  H11 UNL     1       3.371  34.609  50.176  1.00  0.00     0.274 HD
ENDBRANCH  10  15
BRANCH  11  19
HETATM   19  O1  UNL     1       6.415  36.456  50.006  1.00  0.00    -0.386 OA
HETATM   20  C1  UNL     1       7.472  35.681  50.443  1.00  0.00     0.202 C
ENDBRANCH  11  19
ENDBRANCH   7   8
ENDBRANCH   1   7
BRANCH   2  21
HETATM   21  O3  UNL     1       3.049  41.827  47.428  1.00  0.00    -0.369 OA
ATOM     22  H3  UNL     1       3.627  42.303  46.843  1.00  0.00     0.212 HD
ENDBRANCH   2  21
BRANCH   6  23
HETATM   23  O7  UNL     1       1.188  41.669  49.659  1.00  0.00    -0.390 OA
ATOM     24  H7  UNL     1       0.889  41.308  48.833  1.00  0.00     0.210 HD
ENDBRANCH   6  23
BRANCH   5  25
HETATM   25  O6  UNL     1       4.124  40.819  51.530  1.00  0.00    -0.390 OA
ATOM     26  H6  UNL     1       4.586  40.382  50.825  1.00  0.00     0.210 HD
ENDBRANCH   5  25
BRANCH   4  27
HETATM   27  C9  UNL     1       4.607  43.554  50.767  1.00  0.00     0.048 C
HETATM   28  C10 UNL     1       3.815  44.042  52.023  1.00  0.00     0.009 C
HETATM   29  C11 UNL     1       4.614  45.187  52.574  1.00  0.00     0.001 C
HETATM   30  C12 UNL     1       5.943  45.401  51.941  1.00  0.00     0.002 C
HETATM   31  C13 UNL     1       6.749  44.154  51.692  1.00  0.00     0.033 C
HETATM   32  C14 UNL     1       5.840  42.966  51.357  1.00  0.00     0.193 C
BRANCH  32  33
HETATM   33  N2  UNL     1       6.514  41.966  50.611  1.00  0.00    -0.065 N
ATOM     34  H22 UNL     1       5.845  41.350  50.149  1.00  0.00     0.278 HD
ATOM     35  H21 UNL     1       6.966  42.373  49.792  1.00  0.00     0.278 HD
BRANCH  33  36
HETATM   36  C15 UNL     1       7.457  41.202  51.383  1.00  0.00     0.205 C
HETATM   37  C16 UNL     1       7.066  41.159  52.854  1.00  0.00     0.042 C
BRANCH  36  38
HETATM   38  C17 UNL     1       7.411  39.763  50.875  1.00  0.00     0.196 C
BRANCH  38  39
HETATM   39  O5  UNL     1       6.223  39.132  51.298  1.00  0.00    -0.399 OA
ATOM     40  H5  UNL     1       6.393  38.224  51.517  1.00  0.00     0.209 HD
ENDBRANCH  38  39
ENDBRANCH  36  38
ENDBRANCH  33  36
ENDBRANCH  32  33
ENDBRANCH   4  27
TORSDOF 12
ENDMDL