MODEL 5
REMARK VINA RESULT: -6.648697986      3.153      5.950
REMARK  12 active torsions:
REMARK  status: ('A' for Active; 'I' for Inactive)
REMARK    1  A    between atoms: C5_6  and  C6_7
REMARK    2  A    between atoms: C8_9  and  O2_10
REMARK    3  A    between atoms: O2_10  and  C9_11
REMARK    4  A    between atoms: C10_13  and  C11_14
REMARK    5  A    between atoms: C11_14  and  O4_15
REMARK    6  A    between atoms: C12_17  and  O5_18
REMARK    7  A    between atoms: C13_20  and  O6_21
REMARK    8  A    between atoms: C14_23  and  O7_24
REMARK    9  A    between atoms: C15_26  and  O8_27
REMARK   10  A    between atoms: C16_29  and  C17_30
REMARK   11  A    between atoms: C17_30  and  N1_31
REMARK   12  A    between atoms: N1_31  and  C18_33
ROOT
HETATM    1  C6  UNL     1       7.966  45.299  52.338  1.00  0.00     0.158 C
HETATM    2  C7  UNL     1       6.704  44.916  51.643  1.00  0.00     0.069 C
HETATM    3  C8  UNL     1       6.545  43.420  51.766  1.00  0.00     0.158 C
HETATM    4  C15 UNL     1       7.741  42.674  52.222  1.00  0.00     0.177 C
HETATM    5  C16 UNL     1       9.062  43.310  51.984  1.00  0.00     0.170 C
HETATM    6  O9  UNL     1       9.000  44.652  51.640  1.00  0.00    -0.373 OA
ENDROOT
BRANCH   3   7
HETATM    7  O2  UNL     1       6.041  42.957  50.578  1.00  0.00    -0.351 OA
BRANCH   7   8
HETATM    8  C9  UNL     1       4.704  42.695  50.535  1.00  0.00     0.292 C
HETATM    9  O3  UNL     1       4.335  41.780  49.552  1.00  0.00    -0.348 OA
HETATM   10  C10 UNL     1       3.009  41.974  49.189  1.00  0.00     0.179 C
HETATM   11  C12 UNL     1       2.067  42.202  50.303  1.00  0.00     0.180 C
HETATM   12  C13 UNL     1       2.608  42.302  51.676  1.00  0.00     0.183 C
HETATM   13  C14 UNL     1       4.103  42.226  51.814  1.00  0.00     0.204 C
BRANCH  10  14
HETATM   14  C11 UNL     1       2.569  40.856  48.255  1.00  0.00     0.198 C
BRANCH  14  15
HETATM   15  O4  UNL     1       3.425  40.714  47.167  1.00  0.00    -0.398 OA
ATOM     16  H4  UNL     1       3.852  39.866  47.156  1.00  0.00     0.209 HD
ENDBRANCH  14  15
ENDBRANCH  10  14
BRANCH  11  17
HETATM   17  O5  UNL     1       1.220  43.301  50.014  1.00  0.00    -0.390 OA
ATOM     18  H5  UNL     1       0.972  43.745  50.816  1.00  0.00     0.210 HD
ENDBRANCH  11  17
BRANCH  12  19
HETATM   19  O6  UNL     1       2.241  43.559  52.213  1.00  0.00    -0.390 OA
ATOM     20  H6  UNL     1       3.005  44.124  52.206  1.00  0.00     0.210 HD
ENDBRANCH  12  19
BRANCH  13  21
HETATM   21  O7  UNL     1       4.430  40.913  52.133  1.00  0.00    -0.388 OA
ATOM     22  H7  UNL     1       5.337  40.801  52.397  1.00  0.00     0.210 HD
ENDBRANCH  13  21
ENDBRANCH   7   8
ENDBRANCH   3   7
BRANCH   4  23
HETATM   23  O8  UNL     1       7.647  42.323  53.590  1.00  0.00    -0.390 OA
ATOM     24  H8  UNL     1       7.833  41.403  53.730  1.00  0.00     0.210 HD
ENDBRANCH   4  23
BRANCH   1  25
HETATM   25  C5  UNL     1       8.168  46.786  52.241  1.00  0.00     0.178 C
HETATM   26  C2  UNL     1       9.604  47.113  52.108  1.00  0.00    -0.056 C
HETATM   27  C1  UNL     1      10.308  47.312  51.012  1.00  0.00     0.017 C
HETATM   28  C3  UNL     1      10.108  47.192  53.500  1.00  0.00     0.062 C
HETATM   29  C4  UNL     1       8.854  47.387  54.303  1.00  0.00     0.173 C
HETATM   30  O1  UNL     1       7.780  47.315  53.472  1.00  0.00    -0.379 OA
ENDBRANCH   1  25
BRANCH   5  31
HETATM   31  C17 UNL     1       9.863  42.609  50.894  1.00  0.00     0.149 C
BRANCH  31  32
HETATM   32  N1  UNL     1       8.939  42.082  49.936  1.00  0.00    -0.415 N
ATOM     33  H1  UNL     1       8.162  42.639  49.578  1.00  0.00     0.153 HD
BRANCH  32  34
HETATM   34  C18 UNL     1       9.158  40.745  49.508  1.00  0.00     0.076 C
HETATM   35  C19 UNL     1       7.827  40.250  48.922  1.00  0.00     0.024 C
HETATM   36  C20 UNL     1       7.107  39.602  50.068  1.00  0.00     0.002 C
HETATM   37  C21 UNL     1       8.154  39.164  51.035  1.00  0.00     0.002 C
HETATM   38  C22 UNL     1       9.467  39.761  50.616  1.00  0.00     0.024 C
ENDBRANCH  32  34
ENDBRANCH  31  32
ENDBRANCH   5  31
TORSDOF 12
ENDMDL