MODEL 2
REMARK VINA RESULT: -7.098039224      0.701      1.249
REMARK  8 active torsions:
REMARK  status: ('A' for Active; 'I' for Inactive)
REMARK    1  A    between atoms: N1_1  and  C1_5
REMARK    2  A    between atoms: C1_5  and  C2_6
REMARK    3  A    between atoms: C2_6  and  N2_7
REMARK    4  A    between atoms: C2_6  and  C3_11
REMARK    5  A    between atoms: C3_11  and  C4_12
REMARK    6  A    between atoms: C4_12  and  C5_13
REMARK    7  A    between atoms: C5_13  and  O1_14
REMARK    8  A    between atoms: O1_14  and  N3_15
ROOT
HETATM    1  O1  UNL     1      43.051  31.002  17.681  1.00  0.00    -0.275 OA
ENDROOT
BRANCH   1   2
HETATM    2  C5  UNL     1      42.206  31.987  18.093  1.00  0.00     0.201 C
BRANCH   2   3
HETATM    3  C4  UNL     1      41.613  31.574  19.424  1.00  0.00     0.031 C
BRANCH   3   4
HETATM    4  C3  UNL     1      40.157  31.243  19.226  1.00  0.00     0.036 C
BRANCH   4   5
HETATM    5  C2  UNL     1      39.807  29.864  19.689  1.00  0.00     0.208 C
BRANCH   5   6
HETATM    6  C1  UNL     1      40.961  28.905  19.644  1.00  0.00     0.262 C
BRANCH   6   7
HETATM    7  N1  UNL     1      40.429  27.559  19.562  1.00  0.00    -0.077 N
ATOM      8  H13 UNL     1      40.646  26.999  20.388  1.00  0.00     0.274 HD
ATOM      9  H12 UNL     1      39.412  27.533  19.641  1.00  0.00     0.274 HD
ATOM     10  H11 UNL     1      40.768  27.134  18.699  1.00  0.00     0.274 HD
ENDBRANCH   6   7
ENDBRANCH   5   6
BRANCH   5  11
HETATM   11  N2  UNL     1      38.662  29.350  18.937  1.00  0.00    -0.073 N
ATOM     12  H23 UNL     1      37.903  29.067  19.556  1.00  0.00     0.274 HD
ATOM     13  H22 UNL     1      38.181  30.095  18.431  1.00  0.00     0.274 HD
ATOM     14  H21 UNL     1      38.940  28.592  18.313  1.00  0.00     0.274 HD
ENDBRANCH   5  11
ENDBRANCH   4   5
ENDBRANCH   3   4
ENDBRANCH   2   3
ENDBRANCH   1   2
BRANCH   1  15
HETATM   15  N3  UNL     1      42.786  30.328  16.633  1.00  0.00    -0.221 N
HETATM   16  C6  UNL     1      41.498  29.963  16.267  1.00  0.00     0.206 C
HETATM   17  N4  UNL     1      41.658  28.674  15.616  1.00  0.00    -0.380 N
HETATM   18  C7  UNL     1      42.941  28.791  14.945  1.00  0.00     0.178 C
ATOM     19  H4  UNL     1      41.021  27.876  15.628  1.00  0.00     0.160 HD
HETATM   20  C8  UNL     1      43.769  29.559  15.987  1.00  0.00     0.167 C
HETATM   21  C9  UNL     1      44.536  28.612  16.864  1.00  0.00     0.182 C
HETATM   22  N6  UNL     1      44.790  30.361  15.349  1.00  0.00    -0.311 N
HETATM   23  N5  UNL     1      45.783  28.419  16.151  1.00  0.00    -0.339 N
HETATM   24  C10 UNL     1      46.002  29.630  15.408  1.00  0.00     0.318 C
ATOM     25  H5  UNL     1      46.382  27.594  16.172  1.00  0.00     0.164 HD
HETATM   26  O2  UNL     1      47.089  29.971  14.901  1.00  0.00    -0.247 OA
ATOM     27  H6  UNL     1      44.661  31.284  14.934  1.00  0.00     0.167 HD
ENDBRANCH   1  15
TORSDOF 8
ENDMDL