MODEL 1
REMARK VINA RESULT: -8.129107979      0.000      0.000
REMARK  8 active torsions:
REMARK  status: ('A' for Active; 'I' for Inactive)
REMARK    1  A    between atoms: N1_2  and  C2_5
REMARK    2  A    between atoms: C2_5  and  C3_6
REMARK    3  A    between atoms: C3_6  and  C4_7
REMARK    4  A    between atoms: C4_7  and  N2_8
REMARK    5  A    between atoms: N2_8  and  C5_11
REMARK    6  A    between atoms: C5_11  and  C6_12
REMARK    7  A    between atoms: C8_18  and  N5_19
REMARK    8  A    between atoms: N5_19  and  N6_21
ROOT
HETATM    1  C6  UNL     1      43.002  29.381  15.149  1.00  0.00     0.109 A
HETATM    2  N3  UNL     1      41.822  28.954  15.629  1.00  0.00    -0.328 N
ATOM      3  H3  UNL     1      41.247  28.228  15.200  1.00  0.00     0.168 HD
HETATM    4  C7  UNL     1      41.502  29.621  16.760  1.00  0.00     0.155 A
HETATM    5  N4  UNL     1      40.468  29.591  17.621  1.00  0.00    -0.173 N
ATOM      6  H4  UNL     1      39.706  28.936  17.445  1.00  0.00     0.186 HD
HETATM    7  C8  UNL     1      40.395  30.392  18.707  1.00  0.00     0.701 A
HETATM    8  N7  UNL     1      41.391  31.254  18.940  1.00  0.00    -0.153 N
ATOM      9  H7  UNL     1      41.354  31.867  19.754  1.00  0.00     0.187 HD
HETATM   10  C9  UNL     1      42.450  31.314  18.097  1.00  0.00     0.290 A
HETATM   11  O1  UNL     1      43.362  32.139  18.357  1.00  0.00    -0.265 OA
HETATM   12  C10 UNL     1      42.548  30.511  16.986  1.00  0.00     0.148 A
HETATM   13  N8  UNL     1      43.427  30.334  15.996  1.00  0.00    -0.337 N
ATOM     14  H8  UNL     1      44.300  30.851  15.897  1.00  0.00     0.167 HD
ENDROOT
BRANCH   1  15
HETATM   15  C5  UNL     1      43.738  28.920  13.914  1.00  0.00     0.308 C
BRANCH  15  16
HETATM   16  N2  UNL     1      42.874  28.204  13.037  1.00  0.00    -0.069 N
ATOM     17  H22 UNL     1      41.900  28.361  13.292  1.00  0.00     0.277 HD
ATOM     18  H21 UNL     1      42.943  27.202  13.212  1.00  0.00     0.277 HD
BRANCH  16  19
HETATM   19  C4  UNL     1      43.076  28.482  11.644  1.00  0.00     0.234 C
BRANCH  19  20
HETATM   20  C3  UNL     1      42.674  27.303  10.821  1.00  0.00     0.055 C
BRANCH  20  21
HETATM   21  C2  UNL     1      42.534  26.032  11.638  1.00  0.00     0.233 C
BRANCH  21  22
HETATM   22  N1  UNL     1      41.176  25.564  11.615  1.00  0.00    -0.079 N
HETATM   23  C1  UNL     1      41.035  24.204  12.075  1.00  0.00     0.266 C
ATOM     24  H12 UNL     1      40.769  25.676  10.686  1.00  0.00     0.276 HD
ATOM     25  H11 UNL     1      40.568  26.190  12.142  1.00  0.00     0.276 HD
ENDBRANCH  21  22
ENDBRANCH  20  21
ENDBRANCH  19  20
ENDBRANCH  16  19
ENDBRANCH  15  16
ENDBRANCH   1  15
BRANCH   7  26
HETATM   26  N5  UNL     1      39.352  30.253  19.436  1.00  0.00    -0.138 N
ATOM     27  H5  UNL     1      39.296  29.409  20.006  1.00  0.00     0.205 HD
BRANCH  26  28
HETATM   28  N6  UNL     1      38.304  31.131  19.524  1.00  0.00    -0.331 N
ATOM     29  H62 UNL     1      38.488  32.078  19.191  1.00  0.00     0.177 HD
ATOM     30  H61 UNL     1      37.373  30.923  19.887  1.00  0.00     0.177 HD
ENDBRANCH  26  28
ENDBRANCH   7  26
TORSDOF 8
ENDMDL