MODEL 5
REMARK VINA RESULT: -6.201865528      1.342      2.356
REMARK  10 active torsions:
REMARK  status: ('A' for Active; 'I' for Inactive)
REMARK    1  A    between atoms: O1_2  and  C2_3
REMARK    2  A    between atoms: C5_6  and  C6_7
REMARK    3  A    between atoms: C6_7  and  C7_8
REMARK    4  A    between atoms: C7_8  and  N1_9
REMARK    5  A    between atoms: N1_9  and  N2_11
REMARK    6  A    between atoms: C8_13  and  N3_14
REMARK    7  A    between atoms: N3_14  and  N4_16
REMARK    8  A    between atoms: N5_19  and  C9_20
REMARK    9  A    between atoms: C9_20  and  N6_21
REMARK   10  A    between atoms: C10_25  and  O2_26
ROOT
HETATM    1  C2  UNL     1      37.962  29.990  19.864  1.00  0.00     0.119 A
HETATM    2  C3  UNL     1      38.406  31.208  19.404  1.00  0.00     0.043 A
HETATM    3  C4  UNL     1      39.743  31.348  19.064  1.00  0.00     0.028 A
HETATM    4  C5  UNL     1      40.648  30.316  19.168  1.00  0.00     0.017 A
HETATM    5  N5  UNL     1      40.190  29.134  19.622  1.00  0.00    -0.305 N
HETATM    6  C10 UNL     1      38.873  28.977  19.962  1.00  0.00     0.178 A
ENDROOT
BRANCH   4   7
HETATM    7  C6  UNL     1      42.048  30.498  18.801  1.00  0.00     0.078 C
BRANCH   7   8
HETATM    8  C7  UNL     1      42.360  30.539  17.349  1.00  0.00     0.145 C
BRANCH   8   9
HETATM    9  N1  UNL     1      42.938  29.370  16.789  1.00  0.00    -0.335 N
ATOM     10  H1  UNL     1      43.563  28.780  17.339  1.00  0.00     0.180 HD
BRANCH   9  11
HETATM   11  N2  UNL     1      42.632  29.047  15.473  1.00  0.00    -0.299 N
HETATM   12  C8  UNL     1      43.471  28.871  14.540  1.00  0.00     0.212 C
ATOM     13  H2  UNL     1      41.644  28.944  15.237  1.00  0.00     0.187 HD
BRANCH  12  14
HETATM   14  N3  UNL     1      42.996  28.544  13.239  1.00  0.00    -0.301 N
ATOM     15  H3  UNL     1      42.434  27.710  13.071  1.00  0.00     0.187 HD
BRANCH  14  16
HETATM   16  N4  UNL     1      43.335  29.420  12.199  1.00  0.00    -0.344 N
ATOM     17  H42 UNL     1      42.609  29.876  11.647  1.00  0.00     0.176 HD
ATOM     18  H41 UNL     1      44.329  29.573  12.027  1.00  0.00     0.176 HD
ENDBRANCH  14  16
ENDBRANCH  12  14
ENDBRANCH   9  11
ENDBRANCH   8   9
ENDBRANCH   7   8
ENDBRANCH   4   7
BRANCH   5  19
HETATM   19  C9  UNL     1      41.039  27.982  19.764  1.00  0.00     0.360 C
BRANCH  19  20
HETATM   20  N6  UNL     1      40.371  26.765  19.286  1.00  0.00    -0.063 N
ATOM     21  H63 UNL     1      40.502  25.987  19.931  1.00  0.00     0.276 HD
ATOM     22  H62 UNL     1      39.356  26.847  19.343  1.00  0.00     0.276 HD
ATOM     23  H61 UNL     1      40.674  26.523  18.342  1.00  0.00     0.276 HD
ENDBRANCH  19  20
ENDBRANCH   5  19
BRANCH   6  24
HETATM   24  O2  UNL     1      38.419  27.748  20.429  1.00  0.00    -0.344 OA
ATOM     25  H2  UNL     1      38.161  27.693  21.342  1.00  0.00     0.219 HD
ENDBRANCH   6  24
BRANCH   1  26
HETATM   26  O1  UNL     1      36.635  29.817  20.212  1.00  0.00    -0.352 OA
HETATM   27  C1  UNL     1      36.284  29.440  21.535  1.00  0.00     0.210 C
ENDBRANCH   1  26
TORSDOF 10
ENDMDL