MODEL 1
REMARK VINA RESULT: -7.071390255      0.000      0.000
REMARK  12 active torsions:
REMARK  status: ('A' for Active; 'I' for Inactive)
REMARK    1  A    between atoms: N1_1  and  C1_5
REMARK    2  A    between atoms: C1_5  and  N2_6
REMARK    3  A    between atoms: C1_5  and  C2_10
REMARK    4  A    between atoms: C2_10  and  C3_11
REMARK    5  A    between atoms: C3_11  and  C4_12
REMARK    6  A    between atoms: C4_12  and  N3_13
REMARK    7  A    between atoms: C4_12  and  N4_17
REMARK    8  A    between atoms: N4_17  and  C5_19
REMARK    9  A    between atoms: C8_24  and  N6_25
REMARK   10  A    between atoms: N6_25  and  C9_27
REMARK   11  A    between atoms: C9_27  and  C10_28
REMARK   12  A    between atoms: C10_28  and  O1_29
ROOT
HETATM    1  C4  UNL     1      41.945  30.186  18.708  1.00  0.00     0.283 C
ENDROOT
BRANCH   1   2
HETATM    2  C3  UNL     1      41.058  29.238  19.475  1.00  0.00     0.058 C
BRANCH   2   3
HETATM    3  C2  UNL     1      39.684  29.126  18.808  1.00  0.00     0.066 C
BRANCH   3   4
HETATM    4  C1  UNL     1      38.605  29.623  19.750  1.00  0.00     0.378 C
BRANCH   4   5
HETATM    5  N1  UNL     1      38.299  31.011  19.473  1.00  0.00    -0.051 N
ATOM      6  H13 UNL     1      38.786  31.340  18.640  1.00  0.00     0.276 HD
ATOM      7  H12 UNL     1      37.337  31.124  19.151  1.00  0.00     0.276 HD
ATOM      8  H11 UNL     1      38.494  31.606  20.278  1.00  0.00     0.276 HD
ENDBRANCH   4   5
BRANCH   4   9
HETATM    9  N2  UNL     1      37.443  28.782  19.593  1.00  0.00    -0.051 N
ATOM     10  H23 UNL     1      37.701  27.796  19.543  1.00  0.00     0.276 HD
ATOM     11  H22 UNL     1      36.882  28.757  20.444  1.00  0.00     0.276 HD
ATOM     12  H21 UNL     1      36.884  29.062  18.787  1.00  0.00     0.276 HD
ENDBRANCH   4   9
ENDBRANCH   3   4
ENDBRANCH   2   3
ENDBRANCH   1   2
BRANCH   1  13
HETATM   13  N3  UNL     1      41.781  31.506  19.243  1.00  0.00    -0.058 N
ATOM     14  H33 UNL     1      42.372  31.672  20.058  1.00  0.00     0.276 HD
ATOM     15  H32 UNL     1      42.174  32.224  18.635  1.00  0.00     0.276 HD
ATOM     16  H31 UNL     1      40.793  31.661  19.441  1.00  0.00     0.276 HD
ENDBRANCH   1  13
BRANCH   1  17
HETATM   17  N4  UNL     1      41.794  30.084  17.298  1.00  0.00    -0.348 N
ATOM     18  H4  UNL     1      40.862  30.263  16.923  1.00  0.00     0.163 HD
BRANCH  17  19
HETATM   19  C5  UNL     1      42.699  29.793  16.458  1.00  0.00     0.119 A
HETATM   20  C6  UNL     1      44.016  30.071  16.754  1.00  0.00     0.066 A
HETATM   21  C7  UNL     1      44.959  29.734  15.807  1.00  0.00     0.110 A
HETATM   22  N5  UNL     1      44.582  29.163  14.661  1.00  0.00    -0.202 N
HETATM   23  C8  UNL     1      43.297  28.886  14.360  1.00  0.00     0.679 A
ATOM     24  H5  UNL     1      45.301  28.924  13.978  1.00  0.00     0.183 HD
HETATM   25  N7  UNL     1      42.372  29.213  15.281  1.00  0.00    -0.177 N
ATOM     26  H7  UNL     1      41.390  29.017  15.084  1.00  0.00     0.185 HD
BRANCH  23  27
HETATM   27  N6  UNL     1      42.928  28.335  13.255  1.00  0.00    -0.224 N
ATOM     28  H6  UNL     1      42.342  27.501  13.313  1.00  0.00     0.177 HD
BRANCH  27  29
HETATM   29  C9  UNL     1      43.281  28.812  11.957  1.00  0.00     0.164 C
BRANCH  29  30
HETATM   30  C10 UNL     1      42.879  27.741  10.939  1.00  0.00     0.184 C
BRANCH  30  31
HETATM   31  O1  UNL     1      41.962  26.862  11.456  1.00  0.00    -0.399 OA
ATOM     32  H1  UNL     1      41.217  27.311  11.838  1.00  0.00     0.209 HD
ENDBRANCH  30  31
ENDBRANCH  29  30
ENDBRANCH  27  29
ENDBRANCH  23  27
ENDBRANCH  17  19
ENDBRANCH   1  17
TORSDOF 12
ENDMDL