MODEL 4
REMARK VINA RESULT: -6.518107805      1.763      6.309
REMARK  10 active torsions:
REMARK  status: ('A' for Active; 'I' for Inactive)
REMARK    1  A    between atoms: N1_1  and  C1_5
REMARK    2  A    between atoms: C1_5  and  C2_6
REMARK    3  A    between atoms: C2_6  and  C3_7
REMARK    4  A    between atoms: C5_12  and  C6_13
REMARK    5  A    between atoms: C6_13  and  O1_14
REMARK    6  A    between atoms: O1_14  and  C7_15
REMARK    7  A    between atoms: C8_19  and  C9_20
REMARK    8  A    between atoms: C9_20  and  N4_21
REMARK    9  A    between atoms: C10_25  and  O2_26
REMARK   10  A    between atoms: C11_28  and  O3_29
ROOT
HETATM    1  C7  UNL     1      41.862  30.324  18.000  1.00  0.00     0.353 C
HETATM    2  N3  UNL     1      41.083  31.450  18.499  1.00  0.00    -0.038 N
ATOM      3  H31 UNL     1      40.614  31.967  17.755  1.00  0.00     0.281 HD
ATOM      4  H32 UNL     1      41.667  32.212  18.846  1.00  0.00     0.281 HD
HETATM    5  C8  UNL     1      40.178  30.954  19.484  1.00  0.00     0.245 C
HETATM    6  C10 UNL     1      40.225  29.444  19.425  1.00  0.00     0.183 C
HETATM    7  C11 UNL     1      41.705  29.235  19.071  1.00  0.00     0.205 C
ENDROOT
BRANCH   1   8
HETATM    8  O1  UNL     1      43.193  30.624  17.862  1.00  0.00    -0.355 OA
BRANCH   8   9
HETATM    9  C6  UNL     1      43.890  29.562  17.299  1.00  0.00     0.204 C
BRANCH   9  10
HETATM   10  C5  UNL     1      44.842  30.098  16.270  1.00  0.00     0.215 C
HETATM   11  C3  UNL     1      44.767  29.415  14.919  1.00  0.00     0.045 C
HETATM   12  C4  UNL     1      45.641  28.392  15.564  1.00  0.00     0.239 C
HETATM   13  N2  UNL     1      46.145  29.433  16.442  1.00  0.00    -0.068 N
ATOM     14  H22 UNL     1      46.510  29.214  17.369  1.00  0.00     0.277 HD
ATOM     15  H21 UNL     1      47.019  29.919  16.242  1.00  0.00     0.277 HD
BRANCH  11  16
HETATM   16  C2  UNL     1      43.392  28.951  14.519  1.00  0.00     0.036 C
BRANCH  16  17
HETATM   17  C1  UNL     1      43.429  28.549  13.059  1.00  0.00     0.230 C
BRANCH  17  18
HETATM   18  N1  UNL     1      43.375  29.688  12.194  1.00  0.00    -0.079 N
ATOM     19  H13 UNL     1      42.437  30.088  12.163  1.00  0.00     0.274 HD
ATOM     20  H12 UNL     1      43.874  30.482  12.595  1.00  0.00     0.274 HD
ATOM     21  H11 UNL     1      43.717  29.468  11.259  1.00  0.00     0.274 HD
ENDBRANCH  17  18
ENDBRANCH  16  17
ENDBRANCH  11  16
ENDBRANCH   9  10
ENDBRANCH   8   9
ENDBRANCH   1   8
BRANCH   7  22
HETATM   22  O3  UNL     1      42.488  29.530  20.185  1.00  0.00    -0.389 OA
ATOM     23  H3  UNL     1      42.597  28.758  20.728  1.00  0.00     0.210 HD
ENDBRANCH   7  22
BRANCH   5  24
HETATM   24  C9  UNL     1      38.767  31.423  19.312  1.00  0.00     0.265 C
BRANCH  24  25
HETATM   25  N4  UNL     1      37.793  30.584  19.930  1.00  0.00    -0.077 N
ATOM     26  H43 UNL     1      38.227  29.726  20.273  1.00  0.00     0.274 HD
ATOM     27  H42 UNL     1      37.483  30.987  20.814  1.00  0.00     0.274 HD
ATOM     28  H41 UNL     1      36.993  30.366  19.336  1.00  0.00     0.274 HD
ENDBRANCH  24  25
ENDBRANCH   5  24
BRANCH   6  29
HETATM   29  O2  UNL     1      39.479  28.967  18.374  1.00  0.00    -0.391 OA
ATOM     30  H2  UNL     1      39.949  28.291  17.901  1.00  0.00     0.210 HD
ENDBRANCH   6  29
TORSDOF 10
ENDMDL