MODEL 3
REMARK VINA RESULT: -7.279876462      1.757      6.397
REMARK  10 active torsions:
REMARK  status: ('A' for Active; 'I' for Inactive)
REMARK    1  A    between atoms: C2_4  and  O1_5
REMARK    2  A    between atoms: O1_5  and  C3_6
REMARK    3  A    between atoms: C3_6  and  C4_7
REMARK    4  A    between atoms: C4_7  and  N2_8
REMARK    5  A    between atoms: N2_8  and  C5_10
REMARK    6  A    between atoms: C6_13  and  N4_14
REMARK    7  A    between atoms: C7_19  and  N6_20
REMARK    8  A    between atoms: N6_20  and  C8_22
REMARK    9  A    between atoms: C8_22  and  C9_23
REMARK   10  A    between atoms: C9_23  and  O2_24
ROOT
HETATM    1  C5  UNL     1      43.352  28.854  14.265  1.00  0.00     0.707 A
HETATM    2  N3  UNL     1      44.640  29.218  14.380  1.00  0.00    -0.022 N
ATOM      3  H3  UNL     1      45.265  29.127  13.581  1.00  0.00     0.203 HD
HETATM    4  C6  UNL     1      45.104  29.700  15.537  1.00  0.00     0.705 A
HETATM    5  N5  UNL     1      44.260  29.810  16.571  1.00  0.00    -0.022 N
ATOM      6  H5  UNL     1      44.601  30.179  17.459  1.00  0.00     0.203 HD
HETATM    7  C7  UNL     1      42.974  29.446  16.459  1.00  0.00     0.707 A
HETATM    8  N7  UNL     1      42.490  28.961  15.305  1.00  0.00    -0.022 N
ATOM      9  H7  UNL     1      41.512  28.684  15.214  1.00  0.00     0.203 HD
ENDROOT
BRANCH   1  10
HETATM   10  N2  UNL     1      42.867  28.384  13.164  1.00  0.00    -0.223 N
ATOM     11  H2  UNL     1      42.137  27.671  13.175  1.00  0.00     0.177 HD
BRANCH  10  12
HETATM   12  C4  UNL     1      43.382  28.892  11.924  1.00  0.00     0.164 C
BRANCH  12  13
HETATM   13  C3  UNL     1      43.177  27.877  10.795  1.00  0.00     0.196 C
BRANCH  13  14
HETATM   14  O1  UNL     1      41.880  27.362  10.957  1.00  0.00    -0.345 OA
BRANCH  14  15
HETATM   15  C2  UNL     1      41.733  25.973  10.953  1.00  0.00     0.221 C
HETATM   16  N1  UNL     1      41.247  25.469  12.031  1.00  0.00    -0.385 N
HETATM   17  C1  UNL     1      41.075  24.032  12.076  1.00  0.00     0.147 C
ATOM     18  H1  UNL     1      40.992  26.058  12.824  1.00  0.00     0.160 HD
ENDBRANCH  14  15
ENDBRANCH  13  14
ENDBRANCH  12  13
ENDBRANCH  10  12
ENDBRANCH   1  10
BRANCH   4  19
HETATM   19  N4  UNL     1      46.340  30.050  15.648  1.00  0.00    -0.234 N
ATOM     20  H42 UNL     1      47.068  29.591  15.100  1.00  0.00     0.174 HD
ATOM     21  H41 UNL     1      46.609  30.796  16.290  1.00  0.00     0.174 HD
ENDBRANCH   4  19
BRANCH   7  22
HETATM   22  N6  UNL     1      42.172  29.555  17.457  1.00  0.00    -0.223 N
ATOM     23  H6  UNL     1      42.165  28.793  18.135  1.00  0.00     0.177 HD
BRANCH  22  24
HETATM   24  C8  UNL     1      41.288  30.653  17.697  1.00  0.00     0.164 C
BRANCH  24  25
HETATM   25  C9  UNL     1      41.792  31.588  18.790  1.00  0.00     0.184 C
BRANCH  25  26
HETATM   26  O2  UNL     1      42.958  32.189  18.285  1.00  0.00    -0.399 OA
ATOM     27  H2  UNL     1      43.678  31.619  18.534  1.00  0.00     0.209 HD
ENDBRANCH  25  26
ENDBRANCH  24  25
ENDBRANCH  22  24
ENDBRANCH   7  22
TORSDOF 10
ENDMDL