MODEL 4
REMARK VINA RESULT: -4.091793934      1.457      6.702
REMARK  9 active torsions:
REMARK  status: ('A' for Active; 'I' for Inactive)
REMARK    1  A    between atoms: C4_7  and  N3_8
REMARK    2  A    between atoms: N3_8  and  C5_10
REMARK    3  A    between atoms: C5_10  and  C6_11
REMARK    4  A    between atoms: C6_11  and  N4_12
REMARK    5  A    between atoms: N4_12  and  C7_15
REMARK    6  A    between atoms: C7_15  and  C8_16
REMARK    7  A    between atoms: C8_16  and  N5_17
REMARK    8  A    between atoms: C9_21  and  N6_22
REMARK    9  A    between atoms: C10_27  and  N8_28
ROOT
HETATM    1  C1  UNL     1      47.025  28.540  15.459  1.00  0.00     0.158 C
HETATM    2  N1  UNL     1      45.954  29.232  16.174  1.00  0.00    -0.331 N
HETATM    3  C2  UNL     1      46.083  30.000  17.276  1.00  0.00     0.184 A
HETATM    4  N2  UNL     1      44.880  30.470  17.657  1.00  0.00    -0.347 N
ATOM      5  H2  UNL     1      44.707  31.075  18.460  1.00  0.00     0.167 HD
HETATM    6  C3  UNL     1      43.947  30.013  16.810  1.00  0.00     0.109 A
HETATM    7  C4  UNL     1      42.589  30.273  16.869  1.00  0.00     0.107 C
HETATM    8  C9  UNL     1      41.638  29.518  16.223  1.00  0.00     0.144 C
HETATM    9  N7  UNL     1      41.748  28.895  15.015  1.00  0.00    -0.175 N
ATOM     10  H7  UNL     1      40.872  28.679  14.539  1.00  0.00     0.186 HD
HETATM   11  C10 UNL     1      42.893  28.526  14.369  1.00  0.00     0.679 C
HETATM   12  N9  UNL     1      44.154  28.558  14.832  1.00  0.00    -0.174 N
ATOM     13  H9  UNL     1      44.826  27.991  14.314  1.00  0.00     0.186 HD
HETATM   14  C11 UNL     1      44.654  29.232  15.880  1.00  0.00     0.153 A
ENDROOT
BRANCH   7  15
HETATM   15  N3  UNL     1      42.234  31.239  17.545  1.00  0.00    -0.363 N
ATOM     16  H3  UNL     1      42.007  32.032  16.945  1.00  0.00     0.165 HD
BRANCH  15  17
HETATM   17  C5  UNL     1      42.049  31.572  18.886  1.00  0.00     0.088 C
BRANCH  17  18
HETATM   18  C6  UNL     1      40.929  30.891  19.597  1.00  0.00     0.276 C
BRANCH  18  19
HETATM   19  N4  UNL     1      39.779  31.766  19.617  1.00  0.00    -0.069 N
ATOM     20  H42 UNL     1      39.841  32.425  20.392  1.00  0.00     0.277 HD
ATOM     21  H41 UNL     1      39.810  32.420  18.835  1.00  0.00     0.277 HD
BRANCH  19  22
HETATM   22  C7  UNL     1      38.526  31.067  19.645  1.00  0.00     0.260 C
BRANCH  22  23
HETATM   23  C8  UNL     1      38.787  29.556  19.642  1.00  0.00     0.257 C
BRANCH  23  24
HETATM   24  N5  UNL     1      37.516  28.870  19.673  1.00  0.00    -0.078 N
ATOM     25  H53 UNL     1      36.725  29.507  19.571  1.00  0.00     0.274 HD
ATOM     26  H52 UNL     1      37.353  28.310  18.837  1.00  0.00     0.274 HD
ATOM     27  H51 UNL     1      37.465  28.319  20.530  1.00  0.00     0.274 HD
ENDBRANCH  23  24
ENDBRANCH  22  23
ENDBRANCH  19  22
ENDBRANCH  18  19
ENDBRANCH  17  18
ENDBRANCH  15  17
ENDBRANCH   7  15
BRANCH   8  28
HETATM   28  N6  UNL     1      40.496  29.353  16.794  1.00  0.00    -0.383 N
ATOM     29  H62 UNL     1      40.063  30.219  17.112  1.00  0.00     0.157 HD
ATOM     30  H61 UNL     1      40.128  28.404  16.877  1.00  0.00     0.157 HD
ENDBRANCH   8  28
BRANCH  11  31
HETATM   31  N8  UNL     1      42.719  28.090  13.150  1.00  0.00    -0.234 N
ATOM     32  H82 UNL     1      43.397  28.390  12.449  1.00  0.00     0.174 HD
ATOM     33  H81 UNL     1      41.908  27.484  13.024  1.00  0.00     0.174 HD
ENDBRANCH  11  31
TORSDOF 9
ENDMDL