MODEL 3
REMARK VINA RESULT: -6.480049122      1.328      3.022
REMARK  8 active torsions:
REMARK  status: ('A' for Active; 'I' for Inactive)
REMARK    1  A    between atoms: N1_1  and  C1_4
REMARK    2  A    between atoms: C2_7  and  N3_8
REMARK    3  A    between atoms: N3_8  and  C3_9
REMARK    4  A    between atoms: N3_8  and  C6_16
REMARK    5  A    between atoms: C3_9  and  C4_10
REMARK    6  A    between atoms: C4_10  and  C5_11
REMARK    7  A    between atoms: C5_11  and  N4_12
REMARK    8  A    between atoms: C6_16  and  C7_17
ROOT
HETATM    1  N3  UNL     1      41.684  29.516  18.337  1.00  0.00    -0.215 N
ENDROOT
BRANCH   1   2
HETATM    2  C2  UNL     1      42.641  29.494  17.283  1.00  0.00     0.699 A
HETATM    3  N2  UNL     1      42.299  29.130  16.011  1.00  0.00    -0.022 N
HETATM    4  C1  UNL     1      43.241  29.107  15.035  1.00  0.00     0.694 A
ATOM      5  H2  UNL     1      41.335  28.874  15.795  1.00  0.00     0.203 HD
HETATM    6  N7  UNL     1      44.516  29.437  15.287  1.00  0.00    -0.141 N
HETATM    7  C10 UNL     1      44.882  29.804  16.538  1.00  0.00     0.352 A
ATOM      8  H7  UNL     1      45.208  29.412  14.538  1.00  0.00     0.189 HD
HETATM    9  N6  UNL     1      43.915  29.807  17.454  1.00  0.00    -0.140 N
HETATM   10  O1  UNL     1      46.063  30.125  16.836  1.00  0.00    -0.246 OA
ATOM     11  H6  UNL     1      44.188  30.083  18.397  1.00  0.00     0.189 HD
BRANCH   4  12
HETATM   12  N1  UNL     1      42.908  28.757  13.815  1.00  0.00    -0.234 N
ATOM     13  H12 UNL     1      43.186  29.358  13.039  1.00  0.00     0.174 HD
ATOM     14  H11 UNL     1      42.381  27.897  13.660  1.00  0.00     0.174 HD
ENDBRANCH   4  12
ENDBRANCH   1   2
BRANCH   1  15
HETATM   15  C3  UNL     1      40.568  28.635  18.415  1.00  0.00     0.143 C
BRANCH  15  16
HETATM   16  C4  UNL     1      40.176  28.125  19.772  1.00  0.00     0.048 C
BRANCH  16  17
HETATM   17  C5  UNL     1      38.739  27.550  19.630  1.00  0.00     0.231 C
BRANCH  17  18
HETATM   18  N4  UNL     1      37.779  28.628  19.696  1.00  0.00    -0.079 N
ATOM     19  H43 UNL     1      38.110  29.402  20.272  1.00  0.00     0.274 HD
ATOM     20  H42 UNL     1      37.700  29.128  18.811  1.00  0.00     0.274 HD
ATOM     21  H41 UNL     1      36.881  28.265  20.016  1.00  0.00     0.274 HD
ENDBRANCH  17  18
ENDBRANCH  16  17
ENDBRANCH  15  16
ENDBRANCH   1  15
BRANCH   1  22
HETATM   22  C6  UNL     1      41.836  30.496  19.417  1.00  0.00     0.174 C
BRANCH  22  23
HETATM   23  C7  UNL     1      41.221  31.806  19.016  1.00  0.00     0.205 C
HETATM   24  C8  UNL     1      39.899  31.613  18.254  1.00  0.00     0.062 C
HETATM   25  C9  UNL     1      39.170  31.859  19.549  1.00  0.00     0.235 C
HETATM   26  N5  UNL     1      40.385  32.444  20.046  1.00  0.00    -0.069 N
ATOM     27  H52 UNL     1      40.628  32.303  21.026  1.00  0.00     0.277 HD
ATOM     28  H51 UNL     1      40.429  33.459  20.149  1.00  0.00     0.277 HD
ENDBRANCH  22  23
ENDBRANCH   1  22
TORSDOF 8
ENDMDL