MODEL 1
REMARK VINA RESULT: -6.681276975      0.000      0.000
REMARK  7 active torsions:
REMARK  status: ('A' for Active; 'I' for Inactive)
REMARK    1  A    between atoms: N1_2  and  C2_3
REMARK       I    between atoms: N1_2  and  C11_26
REMARK    2  A    between atoms: C2_3  and  C3_4
REMARK    3  A    between atoms: C3_4  and  N2_5
REMARK    4  A    between atoms: N2_5  and  C4_8
REMARK    5  A    between atoms: C4_8  and  C5_9
REMARK    6  A    between atoms: C6_10  and  N3_11
REMARK    7  A    between atoms: C10_21  and  N5_22
REMARK       I    between atoms: C11_26  and  N6_27
REMARK       I    between atoms: C11_26  and  N7_31
ROOT
HETATM    1  C5  UNL     1      40.794  29.698  19.536  1.00  0.00     0.073 C
HETATM    2  C6  UNL     1      40.612  31.107  19.086  1.00  0.00     0.192 C
HETATM    3  C7  UNL     1      39.171  31.413  18.721  1.00  0.00     0.060 C
HETATM    4  C8  UNL     1      38.235  31.106  19.867  1.00  0.00     0.234 C
HETATM    5  N4  UNL     1      37.693  29.789  19.863  1.00  0.00    -0.073 N
ATOM      6  H41 UNL     1      37.241  29.594  18.970  1.00  0.00     0.277 HD
ATOM      7  H42 UNL     1      36.885  29.736  20.484  1.00  0.00     0.277 HD
HETATM    8  C9  UNL     1      38.631  28.759  20.180  1.00  0.00     0.265 C
HETATM    9  C10 UNL     1      39.710  28.752  19.089  1.00  0.00     0.216 C
ENDROOT
BRANCH   1  10
HETATM   10  C4  UNL     1      42.175  29.193  19.206  1.00  0.00     0.241 C
BRANCH  10  11
HETATM   11  N2  UNL     1      42.584  29.610  17.862  1.00  0.00    -0.073 N
ATOM     12  H22 UNL     1      42.199  30.520  17.614  1.00  0.00     0.277 HD
ATOM     13  H21 UNL     1      42.132  29.051  17.138  1.00  0.00     0.277 HD
BRANCH  11  14
HETATM   14  C3  UNL     1      44.001  29.584  17.742  1.00  0.00     0.262 C
BRANCH  14  15
HETATM   15  C2  UNL     1      44.579  28.627  16.730  1.00  0.00     0.304 C
BRANCH  15  16
HETATM   16  N1  UNL     1      44.513  29.344  15.462  1.00  0.00     0.143 N
HETATM   17  C1  UNL     1      45.857  29.631  14.987  1.00  0.00     0.315 C
HETATM   18  C11 UNL     1      43.681  28.755  14.477  1.00  0.00     0.611 C
HETATM   19  N6  UNL     1      42.317  28.712  14.982  1.00  0.00    -0.024 N
HETATM   20  N7  UNL     1      43.691  29.490  13.245  1.00  0.00    -0.024 N
ATOM     21  H63 UNL     1      42.250  28.239  15.883  1.00  0.00     0.279 HD
ATOM     22  H62 UNL     1      41.981  29.629  15.279  1.00  0.00     0.279 HD
ATOM     23  H61 UNL     1      41.718  28.288  14.274  1.00  0.00     0.279 HD
ATOM     24  H73 UNL     1      43.444  30.469  13.398  1.00  0.00     0.279 HD
ATOM     25  H72 UNL     1      44.642  29.614  12.898  1.00  0.00     0.279 HD
ATOM     26  H71 UNL     1      43.092  29.067  12.537  1.00  0.00     0.279 HD
ENDBRANCH  15  16
ENDBRANCH  14  15
ENDBRANCH  11  14
ENDBRANCH  10  11
ENDBRANCH   1  10
BRANCH   2  27
HETATM   27  N3  UNL     1      41.048  32.102  20.030  1.00  0.00    -0.074 N
ATOM     28  H33 UNL     1      40.531  32.011  20.904  1.00  0.00     0.274 HD
ATOM     29  H32 UNL     1      41.990  31.889  20.359  1.00  0.00     0.274 HD
ATOM     30  H31 UNL     1      41.001  33.063  19.691  1.00  0.00     0.274 HD
ENDBRANCH   2  27
BRANCH   9  31
HETATM   31  N5  UNL     1      40.213  27.383  19.024  1.00  0.00    -0.073 N
ATOM     32  H53 UNL     1      40.698  27.200  18.146  1.00  0.00     0.274 HD
ATOM     33  H52 UNL     1      40.993  27.236  19.664  1.00  0.00     0.274 HD
ATOM     34  H51 UNL     1      39.461  26.713  19.186  1.00  0.00     0.274 HD
ENDBRANCH   9  31
TORSDOF 7
ENDMDL