MODEL 2
REMARK VINA RESULT: -5.910150111      1.810      2.494
REMARK  10 active torsions:
REMARK  status: ('A' for Active; 'I' for Inactive)
REMARK    1  A    between atoms: N1_1  and  C1_5
REMARK    2  A    between atoms: C1_5  and  C2_6
REMARK    3  A    between atoms: C2_6  and  C3_7
REMARK    4  A    between atoms: C2_6  and  C4_12
REMARK    5  A    between atoms: C2_6  and  N3_16
REMARK    6  A    between atoms: C3_7  and  N2_8
REMARK    7  A    between atoms: C4_12  and  C5_13
REMARK    8  A    between atoms: C5_13  and  O1_14
REMARK    9  A    between atoms: N3_16  and  C6_18
REMARK   10  A    between atoms: C6_18  and  C7_19
ROOT
HETATM    1  C2  UNL     1      40.464  29.484  19.245  1.00  0.00     0.075 C
ENDROOT
BRANCH   1   2
HETATM    2  C1  UNL     1      39.284  30.272  18.804  1.00  0.00     0.261 C
BRANCH   2   3
HETATM    3  N1  UNL     1      38.166  30.300  19.699  1.00  0.00    -0.077 N
ATOM      4  H13 UNL     1      38.258  29.552  20.387  1.00  0.00     0.274 HD
ATOM      5  H12 UNL     1      38.231  31.118  20.305  1.00  0.00     0.274 HD
ATOM      6  H11 UNL     1      37.241  30.263  19.272  1.00  0.00     0.274 HD
ENDBRANCH   2   3
ENDBRANCH   1   2
BRANCH   1   7
HETATM    7  C3  UNL     1      40.003  28.267  20.024  1.00  0.00     0.261 C
BRANCH   7   8
HETATM    8  N2  UNL     1      40.057  27.049  19.287  1.00  0.00    -0.077 N
ATOM      9  H23 UNL     1      39.201  26.511  19.424  1.00  0.00     0.274 HD
ATOM     10  H22 UNL     1      39.988  27.234  18.286  1.00  0.00     0.274 HD
ATOM     11  H21 UNL     1      40.876  26.475  19.489  1.00  0.00     0.274 HD
ENDBRANCH   7   8
ENDBRANCH   1   7
BRANCH   1  12
HETATM   12  C4  UNL     1      41.490  30.273  19.989  1.00  0.00     0.060 C
BRANCH  12  13
HETATM   13  C5  UNL     1      41.575  31.723  19.715  1.00  0.00     0.166 C
BRANCH  13  14
HETATM   14  O1  UNL     1      42.525  32.236  20.644  1.00  0.00    -0.401 OA
ATOM     15  H1  UNL     1      42.765  33.095  20.318  1.00  0.00     0.209 HD
ENDBRANCH  13  14
ENDBRANCH  12  13
ENDBRANCH   1  12
BRANCH   1  16
HETATM   16  N3  UNL     1      41.156  29.003  18.068  1.00  0.00    -0.408 N
ATOM     17  H3  UNL     1      41.754  28.178  18.107  1.00  0.00     0.154 HD
BRANCH  16  18
HETATM   18  C6  UNL     1      40.974  29.714  16.869  1.00  0.00     0.139 C
BRANCH  18  19
HETATM   19  C7  UNL     1      42.387  30.088  16.380  1.00  0.00     0.094 C
HETATM   20  C8  UNL     1      43.354  29.546  17.367  1.00  0.00     0.028 C
HETATM   21  C9  UNL     1      44.778  29.948  17.045  1.00  0.00     0.029 C
HETATM   22  C10 UNL     1      45.582  28.771  16.602  1.00  0.00     0.232 C
HETATM   23  N4  UNL     1      45.882  28.753  15.199  1.00  0.00    -0.074 N
HETATM   24  C11 UNL     1      44.834  29.276  14.366  1.00  0.00     0.251 C
ATOM     25  H42 UNL     1      46.760  29.239  15.015  1.00  0.00     0.277 HD
ATOM     26  H41 UNL     1      46.139  27.812  14.900  1.00  0.00     0.277 HD
HETATM   27  C12 UNL     1      43.470  28.688  14.727  1.00  0.00     0.141 C
HETATM   28  N5  UNL     1      42.598  29.774  15.019  1.00  0.00    -0.414 N
ATOM     29  H5  UNL     1      42.142  30.303  14.275  1.00  0.00     0.153 HD
ENDBRANCH  18  19
ENDBRANCH  16  18
ENDBRANCH   1  16
TORSDOF 10
ENDMDL