MODEL 4
REMARK VINA RESULT: -7.225264529      3.046      6.871
REMARK  13 active torsions:
REMARK  status: ('A' for Active; 'I' for Inactive)
REMARK       I    between atoms: C1_4  and  N2_5
REMARK       I    between atoms: C1_4  and  N9_33
REMARK    1  A    between atoms: C3_9  and  C4_10
REMARK    2  A    between atoms: C4_10  and  O2_11
REMARK    3  A    between atoms: C4_10  and  C5_13
REMARK    4  A    between atoms: C5_13  and  N3_14
REMARK    5  A    between atoms: C6_16  and  N4_17
REMARK    6  A    between atoms: C7_22  and  O3_23
REMARK    7  A    between atoms: N7_27  and  C8_28
REMARK    8  A    between atoms: C8_28  and  O4_29
REMARK    9  A    between atoms: O4_29  and  C9_30
REMARK   10  A    between atoms: N9_33  and  C10_35
REMARK   11  A    between atoms: C10_35  and  S2_39
REMARK   12  A    between atoms: S2_39  and  N11_40
REMARK   13  A    between atoms: N11_40  and  N12_41
ROOT
HETATM    1  N1  UNL     1      12.964 -13.401  48.424  1.00  0.00    -0.234 N
ATOM      2  H11 UNL     1      12.428 -13.711  47.614  1.00  0.00     0.174 HD
ATOM      3  H12 UNL     1      12.849 -13.784  49.362  1.00  0.00     0.174 HD
HETATM    4  C1  UNL     1      13.836 -12.475  48.247  1.00  0.00     0.681 C
HETATM    5  N2  UNL     1      14.583 -12.045  49.376  1.00  0.00    -0.153 N
ATOM      6  H2  UNL     1      14.700 -11.049  49.563  1.00  0.00     0.188 HD
HETATM    7  C2  UNL     1      15.125 -12.938  50.179  1.00  0.00     0.268 A
HETATM    8  O1  UNL     1      15.025 -14.248  50.015  1.00  0.00    -0.260 OA
HETATM    9  C3  UNL     1      15.673 -14.893  50.972  1.00  0.00     0.173 A
HETATM   10  N6  UNL     1      16.181 -13.926  51.740  1.00  0.00    -0.270 N
ATOM     11  H6  UNL     1      16.743 -14.088  52.575  1.00  0.00     0.189 HD
HETATM   12  N7  UNL     1      15.852 -12.710  51.267  1.00  0.00    -0.205 N
HETATM   13  N9  UNL     1      13.997 -11.943  46.943  1.00  0.00    -0.170 N
ATOM     14  H9  UNL     1      14.198 -10.954  46.796  1.00  0.00     0.186 HD
ENDROOT
BRANCH  12  15
HETATM   15  C8  UNL     1      16.223 -11.495  51.899  1.00  0.00     0.267 C
BRANCH  15  16
HETATM   16  O4  UNL     1      15.304 -10.496  52.045  1.00  0.00    -0.257 OA
BRANCH  16  17
HETATM   17  C9  UNL     1      15.168  -9.258  51.544  1.00  0.00     0.378 C
HETATM   18  N8  UNL     1      13.874  -8.609  51.488  1.00  0.00    -0.032 NA
HETATM   19  O5  UNL     1      16.154  -8.631  51.109  1.00  0.00    -0.242 OA
ENDBRANCH  16  17
ENDBRANCH  15  16
ENDBRANCH  12  15
BRANCH   9  20
HETATM   20  C4  UNL     1      15.759 -16.371  51.085  1.00  0.00     0.213 C
BRANCH  20  21
HETATM   21  O2  UNL     1      16.147 -16.860  49.822  1.00  0.00    -0.386 OA
ATOM     22  H2  UNL     1      17.089 -16.750  49.758  1.00  0.00     0.210 HD
ENDBRANCH  20  21
BRANCH  20  23
HETATM   23  C5  UNL     1      16.686 -16.814  52.153  1.00  0.00     0.181 C
BRANCH  23  24
HETATM   24  N3  UNL     1      18.070 -17.012  51.729  1.00  0.00    -0.277 N
HETATM   25  S1  UNL     1      18.789 -18.345  51.012  1.00  0.00     0.028 SA
HETATM   26  C6  UNL     1      20.362 -17.727  50.830  1.00  0.00     0.162 A
HETATM   27  N5  UNL     1      20.251 -16.499  51.342  1.00  0.00    -0.301 N
HETATM   28  C7  UNL     1      19.077 -16.130  51.803  1.00  0.00     0.232 A
ATOM     29  H5  UNL     1      21.051 -15.868  51.374  1.00  0.00     0.171 HD
BRANCH  26  30
HETATM   30  N4  UNL     1      21.443 -18.282  50.322  1.00  0.00    -0.378 N
ATOM     31  H42 UNL     1      21.485 -19.068  49.674  1.00  0.00     0.158 HD
ATOM     32  H41 UNL     1      22.429 -18.056  50.459  1.00  0.00     0.158 HD
ENDBRANCH  26  30
BRANCH  28  33
HETATM   33  O3  UNL     1      18.866 -14.956  52.320  1.00  0.00    -0.332 OA
ATOM     34  H3  UNL     1      18.918 -14.842  53.262  1.00  0.00     0.221 HD
ENDBRANCH  28  33
ENDBRANCH  23  24
ENDBRANCH  20  23
ENDBRANCH   9  20
BRANCH  13  35
HETATM   35  C10 UNL     1      13.866 -12.838  45.851  1.00  0.00     0.171 C
HETATM   36  N10 UNL     1      12.915 -12.681  44.999  1.00  0.00    -0.378 N
ATOM     37 2H10 UNL     1      12.241 -11.921  45.086  1.00  0.00     0.158 HD
ATOM     38 1H10 UNL     1      12.821 -13.325  44.214  1.00  0.00     0.158 HD
BRANCH  35  39
HETATM   39  S2  UNL     1      15.043 -14.167  45.699  1.00  0.00     0.036 SA
BRANCH  39  40
HETATM   40  N11 UNL     1      16.453 -13.863  46.674  1.00  0.00    -0.065 NA
BRANCH  40  41
HETATM   41  N12 UNL     1      16.743 -14.858  47.584  1.00  0.00    -0.337 N
ATOM     42 2H12 UNL     1      16.011 -15.416  48.023  1.00  0.00     0.173 HD
ATOM     43 1H12 UNL     1      17.738 -14.980  47.773  1.00  0.00     0.173 HD
ENDBRANCH  40  41
ENDBRANCH  39  40
ENDBRANCH  35  39
ENDBRANCH  13  35
TORSDOF 13
ENDMDL