MODEL 4
REMARK VINA RESULT: -8.454443947      1.624      2.484
REMARK  11 active torsions:
REMARK  status: ('A' for Active; 'I' for Inactive)
REMARK    1  A    between atoms: N1_2  and  N2_3
REMARK    2  A    between atoms: N1_2  and  C9_32
REMARK       I    between atoms: N2_3  and  C2_4
REMARK    3  A    between atoms: C2_4  and  C3_6
REMARK    4  A    between atoms: C4_11  and  C5_12
REMARK    5  A    between atoms: C5_12  and  C6_13
REMARK    6  A    between atoms: C7_16  and  N6_17
REMARK    7  A    between atoms: C8_22  and  N8_23
REMARK    8  A    between atoms: N10_28  and  N11_29
REMARK    9  A    between atoms: C10_35  and  C11_36
REMARK   10  A    between atoms: C12_42  and  N15_43
REMARK   11  A    between atoms: C13_48  and  N17_49
ROOT
HETATM    1  N2  UNL     1      14.809 -12.576  48.345  1.00  0.00    -0.261 NA
HETATM    2  C2  UNL     1      15.527 -11.507  49.021  1.00  0.00     0.383 C
HETATM    3  O1  UNL     1      15.977 -10.545  48.509  1.00  0.00    -0.246 OA
ENDROOT
BRANCH   2   4
HETATM    4  C3  UNL     1      15.659 -11.726  50.481  1.00  0.00     0.229 A
HETATM    5  N3  UNL     1      15.831 -12.852  51.157  1.00  0.00    -0.277 N
HETATM    6  N4  UNL     1      15.968 -12.542  52.446  1.00  0.00    -0.285 N
ATOM      7  H3  UNL     1      15.854 -13.792  50.761  1.00  0.00     0.189 HD
HETATM    8  C4  UNL     1      15.886 -11.187  52.612  1.00  0.00     0.126 A
ATOM      9  H4  UNL     1      16.113 -13.216  53.198  1.00  0.00     0.188 HD
HETATM   10  N10 UNL     1      15.694 -10.704  51.399  1.00  0.00    -0.225 N
BRANCH   8  11
HETATM   11  C5  UNL     1      16.037 -10.498  53.904  1.00  0.00     0.157 C
BRANCH  11  12
HETATM   12  C6  UNL     1      16.968 -11.211  54.821  1.00  0.00     0.120 A
HETATM   13  N5  UNL     1      16.494 -11.879  55.867  1.00  0.00    -0.179 N
HETATM   14  C7  UNL     1      17.294 -12.540  56.735  1.00  0.00     0.691 A
ATOM     15  H5  UNL     1      15.486 -11.894  56.021  1.00  0.00     0.185 HD
HETATM   16  N7  UNL     1      18.632 -12.488  56.485  1.00  0.00    -0.023 N
HETATM   17  C8  UNL     1      19.139 -11.823  55.440  1.00  0.00     0.691 A
ATOM     18  H7  UNL     1      19.271 -12.974  57.115  1.00  0.00     0.203 HD
HETATM   19  N9  UNL     1      18.310 -11.196  54.626  1.00  0.00    -0.179 N
ATOM     20  H9  UNL     1      18.689 -10.687  53.828  1.00  0.00     0.185 HD
BRANCH  14  21
HETATM   21  N6  UNL     1      16.864 -13.171  57.744  1.00  0.00    -0.234 N
ATOM     22  H62 UNL     1      15.969 -12.915  58.160  1.00  0.00     0.174 HD
ATOM     23  H61 UNL     1      17.360 -13.950  58.177  1.00  0.00     0.174 HD
ENDBRANCH  14  21
BRANCH  17  24
HETATM   24  N8  UNL     1      20.448 -11.814  55.263  1.00  0.00    -0.234 N
ATOM     25  H82 UNL     1      21.084 -11.339  55.903  1.00  0.00     0.174 HD
ATOM     26  H81 UNL     1      20.840 -12.301  54.456  1.00  0.00     0.174 HD
ENDBRANCH  17  24
ENDBRANCH  11  12
ENDBRANCH   8  11
BRANCH  10  27
HETATM   27  N11 UNL     1      15.531  -9.363  51.036  1.00  0.00    -0.335 N
ATOM     28 2H11 UNL     1      15.435  -8.983  50.094  1.00  0.00     0.177 HD
ATOM     29 1H11 UNL     1      15.501  -8.609  51.722  1.00  0.00     0.177 HD
ENDBRANCH  10  27
ENDBRANCH   2   4
BRANCH   1  30
HETATM   30  N1  UNL     1      14.193 -13.489  47.753  1.00  0.00    -0.057 N
HETATM   31  C1  UNL     1      14.089 -14.883  48.232  1.00  0.00     0.213 C
BRANCH  30  32
HETATM   32  C9  UNL     1      13.550 -13.230  46.468  1.00  0.00     0.725 A
HETATM   33  N12 UNL     1      12.755 -14.137  45.938  1.00  0.00    -0.171 N
HETATM   34  C10 UNL     1      12.163 -13.908  44.718  1.00  0.00     0.169 A
ATOM     35  H12 UNL     1      12.578 -15.011  46.434  1.00  0.00     0.186 HD
HETATM   36  N16 UNL     1      12.437 -12.759  44.143  1.00  0.00    -0.173 N
HETATM   37  C13 UNL     1      13.259 -11.795  44.667  1.00  0.00     0.692 A
ATOM     38  H16 UNL     1      12.007 -12.570  43.238  1.00  0.00     0.186 HD
HETATM   39  N18 UNL     1      13.816 -12.039  45.842  1.00  0.00    -0.020 N
ATOM     40  H18 UNL     1      14.433 -11.351  46.275  1.00  0.00     0.203 HD
BRANCH  34  41
HETATM   41  C11 UNL     1      11.348 -14.981  44.152  1.00  0.00     0.146 A
HETATM   42  N13 UNL     1      11.576 -16.297  44.347  1.00  0.00    -0.234 N
HETATM   43  O2  UNL     1      10.779 -17.039  43.701  1.00  0.00    -0.155 OA
ATOM     44  H13 UNL     1      12.315 -16.656  44.952  1.00  0.00     0.197 HD
HETATM   45  N14 UNL     1       9.984 -16.272  43.051  1.00  0.00    -0.224 N
HETATM   46  C12 UNL     1      10.284 -14.946  43.282  1.00  0.00     0.154 A
ATOM     47  H14 UNL     1       9.231 -16.598  42.444  1.00  0.00     0.198 HD
BRANCH  46  48
HETATM   48  N15 UNL     1       9.705 -13.984  42.711  1.00  0.00    -0.382 N
ATOM     49 2H15 UNL     1      10.189 -13.160  42.354  1.00  0.00     0.157 HD
ATOM     50 1H15 UNL     1       8.717 -13.791  42.549  1.00  0.00     0.157 HD
ENDBRANCH  46  48
ENDBRANCH  34  41
BRANCH  37  51
HETATM   51  N17 UNL     1      13.453 -10.696  44.006  1.00  0.00    -0.234 N
ATOM     52 2H17 UNL     1      12.750 -10.283  43.393  1.00  0.00     0.174 HD
ATOM     53 1H17 UNL     1      14.347 -10.212  44.089  1.00  0.00     0.174 HD
ENDBRANCH  37  51
ENDBRANCH  30  32
ENDBRANCH   1  30
TORSDOF 11
ENDMDL