MODEL 2
REMARK VINA RESULT: -6.774219209      4.797      9.328
REMARK  9 active torsions:
REMARK  status: ('A' for Active; 'I' for Inactive)
REMARK    1  A    between atoms: C2_7  and  N3_8
REMARK    2  A    between atoms: C4_10  and  C5_11
REMARK    3  A    between atoms: C5_11  and  O1_12
REMARK    4  A    between atoms: C7_15  and  C8_16
REMARK    5  A    between atoms: C8_16  and  S1_17
REMARK    6  A    between atoms: S1_17  and  N4_18
REMARK    7  A    between atoms: N10_33  and  C13_34
REMARK    8  A    between atoms: C13_34  and  O2_35
REMARK    9  A    between atoms: C14_40  and  O3_41
ROOT
HETATM    1  N1  UNL     1      11.291 -11.002  41.940  1.00  0.00    -0.384 N
ATOM      2  H11 UNL     1      10.529 -10.988  41.261  1.00  0.00     0.157 HD
ATOM      3  H12 UNL     1      11.802 -10.133  41.784  1.00  0.00     0.157 HD
HETATM    4  C1  UNL     1      11.622 -11.869  42.834  1.00  0.00     0.130 A
HETATM    5  N2  UNL     1      12.657 -11.888  43.757  1.00  0.00    -0.324 N
ATOM      6  H2  UNL     1      13.347 -11.143  43.845  1.00  0.00     0.169 HD
HETATM    7  C2  UNL     1      12.653 -12.970  44.507  1.00  0.00     0.158 A
HETATM    8  C10 UNL     1      11.509 -13.815  44.090  1.00  0.00     0.116 A
HETATM    9  C11 UNL     1      10.882 -13.126  43.060  1.00  0.00     0.108 A
HETATM   10  N9  UNL     1       9.843 -13.873  42.670  1.00  0.00    -0.347 N
ATOM     11  H9  UNL     1       9.182 -13.643  41.929  1.00  0.00     0.167 HD
HETATM   12  C12 UNL     1       9.829 -14.972  43.421  1.00  0.00     0.188 A
HETATM   13  N10 UNL     1      10.855 -14.966  44.318  1.00  0.00    -0.286 N
ENDROOT
BRANCH   7  14
HETATM   14  N3  UNL     1      13.611 -13.208  45.514  1.00  0.00    -0.248 N
HETATM   15  C3  UNL     1      14.787 -13.920  45.199  1.00  0.00     0.127 A
HETATM   16  C4  UNL     1      15.707 -14.188  46.102  1.00  0.00    -0.015 A
HETATM   17  C6  UNL     1      15.503 -13.729  47.492  1.00  0.00     0.038 A
HETATM   18  C7  UNL     1      14.419 -13.059  47.837  1.00  0.00     0.038 A
HETATM   19  N8  UNL     1      13.430 -12.782  46.824  1.00  0.00    -0.296 N
ATOM     20  H8  UNL     1      12.586 -12.266  47.073  1.00  0.00     0.187 HD
BRANCH  16  21
HETATM   21  C5  UNL     1      16.919 -14.940  45.710  1.00  0.00     0.204 C
BRANCH  21  22
HETATM   22  O1  UNL     1      17.912 -13.978  45.443  1.00  0.00    -0.396 OA
ATOM     23  H1  UNL     1      18.732 -14.351  45.745  1.00  0.00     0.209 HD
ENDBRANCH  21  22
ENDBRANCH  16  21
BRANCH  18  24
HETATM   24  C8  UNL     1      14.271 -12.627  49.239  1.00  0.00     0.159 C
BRANCH  24  25
HETATM   25  S1  UNL     1      15.245 -11.148  49.610  1.00  0.00    -0.003 SA
BRANCH  25  26
HETATM   26  N4  UNL     1      16.163 -11.489  51.100  1.00  0.00    -0.152 N
HETATM   27  N5  UNL     1      15.670 -12.020  52.215  1.00  0.00    -0.267 N
HETATM   28  C9  UNL     1      16.635 -12.134  53.127  1.00  0.00     0.218 A
ATOM     29  H5  UNL     1      14.698 -12.298  52.351  1.00  0.00     0.190 HD
HETATM   30  N6  UNL     1      17.756 -11.659  52.557  1.00  0.00    -0.279 N
HETATM   31  N7  UNL     1      17.436 -11.277  51.335  1.00  0.00    -0.214 N
ATOM     32  H6  UNL     1      18.679 -11.603  52.987  1.00  0.00     0.189 HD
ATOM     33  H7  UNL     1      18.090 -10.873  50.664  1.00  0.00     0.211 HD
ENDBRANCH  25  26
ENDBRANCH  24  25
ENDBRANCH  18  24
ENDBRANCH   7  14
BRANCH  13  34
HETATM   34  C13 UNL     1      11.196 -15.940  45.294  1.00  0.00     0.275 C
HETATM   35  N11 UNL     1      12.359 -16.746  44.898  1.00  0.00    -0.065 NA
HETATM   36  N12 UNL     1      11.873 -17.869  44.285  1.00  0.00    -0.032 NA
HETATM   37  N13 UNL     1      10.524 -17.986  44.467  1.00  0.00    -0.091 NA
HETATM   38  C14 UNL     1      10.172 -17.038  45.450  1.00  0.00     0.304 C
BRANCH  34  39
HETATM   39  O2  UNL     1      11.410 -15.449  46.578  1.00  0.00    -0.353 OA
ATOM     40  H2  UNL     1      12.262 -15.640  46.950  1.00  0.00     0.214 HD
ENDBRANCH  34  39
BRANCH  38  41
HETATM   41  O3  UNL     1       8.874 -16.611  45.478  1.00  0.00    -0.372 OA
ATOM     42  H3  UNL     1       8.406 -16.707  44.657  1.00  0.00     0.212 HD
ENDBRANCH  38  41
ENDBRANCH  13  34
TORSDOF 9
ENDMDL