MODEL 5
REMARK VINA RESULT: -7.786061070      3.182      9.963
REMARK  11 active torsions:
REMARK  status: ('A' for Active; 'I' for Inactive)
REMARK       I    between atoms: N1_1  and  C1_4
REMARK       I    between atoms: C1_4  and  N2_5
REMARK    1  A    between atoms: N2_5  and  N3_7
REMARK       I    between atoms: N4_10  and  C2_12
REMARK    2  A    between atoms: C2_12  and  C3_14
REMARK    3  A    between atoms: C3_14  and  C4_15
REMARK    4  A    between atoms: C3_14  and  N5_18
REMARK    5  A    between atoms: C4_15  and  O2_16
REMARK    6  A    between atoms: N5_18  and  C5_20
REMARK    7  A    between atoms: C8_25  and  C9_26
REMARK    8  A    between atoms: C9_26  and  N7_27
REMARK    9  A    between atoms: C11_29  and  C12_30
REMARK   10  A    between atoms: C12_30  and  O4_31
REMARK   11  A    between atoms: C12_30  and  O5_33
ROOT
HETATM    1  C5  UNL     1      11.905 -15.135  45.161  1.00  0.00     0.108 A
HETATM    2  C6  UNL     1      12.975 -14.302  45.023  1.00  0.00     0.123 A
HETATM    3  C7  UNL     1      13.778 -13.868  46.090  1.00  0.00     0.257 A
HETATM    4  O3  UNL     1      14.727 -13.100  45.800  1.00  0.00    -0.268 OA
HETATM    5  N6  UNL     1      13.503 -14.288  47.369  1.00  0.00    -0.260 N
HETATM    6  C8  UNL     1      14.175 -13.946  48.446  1.00  0.00     0.048 A
HETATM    7  C13 UNL     1      13.702 -14.502  49.645  1.00  0.00     0.080 A
HETATM    8  S1  UNL     1      12.381 -15.434  49.157  1.00  0.00    -0.063 SA
HETATM    9  C14 UNL     1      12.468 -15.093  47.467  1.00  0.00     0.159 A
HETATM   10  N10 UNL     1      11.679 -15.520  46.431  1.00  0.00    -0.322 N
ATOM     11  H10 UNL     1      10.899 -16.147  46.629  1.00  0.00     0.169 HD
ENDROOT
BRANCH   1  12
HETATM   12  N5  UNL     1      11.046 -15.584  44.110  1.00  0.00    -0.361 N
ATOM     13  H5  UNL     1      11.457 -16.188  43.398  1.00  0.00     0.162 HD
BRANCH  12  14
HETATM   14  C3  UNL     1       9.658 -15.257  43.971  1.00  0.00     0.199 C
BRANCH  14  15
HETATM   15  C2  UNL     1       8.947 -16.445  43.448  1.00  0.00     0.260 C
HETATM   16  N4  UNL     1       8.457 -16.499  42.054  1.00  0.00    -0.157 N
HETATM   17  C1  UNL     1       7.813 -17.577  41.611  1.00  0.00     0.692 C
ATOM     18  H4  UNL     1       8.613 -15.707  41.430  1.00  0.00     0.187 HD
HETATM   19  N1  UNL     1       7.222 -18.566  41.204  1.00  0.00    -0.233 N
HETATM   20  N2  UNL     1       7.507 -16.826  40.031  1.00  0.00    -0.139 N
ATOM     21  H12 UNL     1       6.729 -19.392  40.863  1.00  0.00     0.174 HD
ATOM     22  H11 UNL     1       7.398 -18.997  42.111  1.00  0.00     0.174 HD
ATOM     23  H2  UNL     1       6.707 -16.260  39.749  1.00  0.00     0.205 HD
HETATM   24  O1  UNL     1       8.747 -17.425  44.182  1.00  0.00    -0.270 OA
BRANCH  20  25
HETATM   25  N3  UNL     1       8.540 -17.165  39.315  1.00  0.00    -0.331 N
ATOM     26  H32 UNL     1       9.475 -17.399  39.651  1.00  0.00     0.177 HD
ATOM     27  H31 UNL     1       8.195 -17.140  38.356  1.00  0.00     0.177 HD
ENDBRANCH  20  25
ENDBRANCH  14  15
BRANCH  14  28
HETATM   28  C4  UNL     1       9.556 -14.183  42.850  1.00  0.00     0.199 C
BRANCH  28  29
HETATM   29  O2  UNL     1      10.676 -14.187  42.044  1.00  0.00    -0.398 OA
ATOM     30  H2  UNL     1      11.140 -13.359  42.090  1.00  0.00     0.209 HD
ENDBRANCH  28  29
ENDBRANCH  14  28
ENDBRANCH  12  14
ENDBRANCH   1  12
BRANCH   6  31
HETATM   31  C9  UNL     1      15.363 -13.015  48.592  1.00  0.00     0.208 C
BRANCH  31  32
HETATM   32  N7  UNL     1      15.427 -12.321  49.829  1.00  0.00    -0.281 N
HETATM   33  C10 UNL     1      15.169 -10.999  49.950  1.00  0.00     0.143 A
HETATM   34  C11 UNL     1      15.350 -10.588  51.254  1.00  0.00     0.098 A
HETATM   35  N8  UNL     1      15.730 -11.721  51.906  1.00  0.00    -0.284 N
HETATM   36  N9  UNL     1      15.764 -12.729  51.030  1.00  0.00    -0.240 N
ATOM     37  H8  UNL     1      15.952 -11.789  52.899  1.00  0.00     0.188 HD
ATOM     38  H9  UNL     1      16.018 -13.689  51.264  1.00  0.00     0.208 HD
BRANCH  34  39
HETATM   39  C12 UNL     1      15.153  -9.214  51.777  1.00  0.00     0.308 C
BRANCH  39  40
HETATM   40  O4  UNL     1      16.166  -8.353  51.344  1.00  0.00    -0.366 OA
ATOM     41  H4  UNL     1      16.557  -7.884  52.072  1.00  0.00     0.213 HD
ENDBRANCH  39  40
BRANCH  39  42
HETATM   42  O5  UNL     1      13.885  -8.767  51.361  1.00  0.00    -0.366 OA
ATOM     43  H5  UNL     1      13.529  -8.215  52.046  1.00  0.00     0.213 HD
ENDBRANCH  39  42
ENDBRANCH  34  39
ENDBRANCH  31  32
ENDBRANCH   6  31
TORSDOF 11
ENDMDL