MODEL 3
REMARK VINA RESULT: -6.839427549      2.444     10.009
REMARK  14 active torsions:
REMARK  status: ('A' for Active; 'I' for Inactive)
REMARK    1  A    between atoms: C2_2  and  C3_3
REMARK    2  A    between atoms: C2_2  and  N4_11
REMARK    3  A    between atoms: C3_3  and  N2_7
REMARK    4  A    between atoms: C5_14  and  N6_15
REMARK    5  A    between atoms: N6_15  and  C6_17
REMARK    6  A    between atoms: C8_19  and  N7_20
REMARK    7  A    between atoms: C10_22  and  C11_23
REMARK    8  A    between atoms: C11_23  and  O1_24
REMARK    9  A    between atoms: C11_23  and  O2_26
REMARK   10  A    between atoms: C12_33  and  O4_34
REMARK   11  A    between atoms: C12_33  and  C13_36
REMARK   12  A    between atoms: C13_36  and  O5_37
REMARK   13  A    between atoms: C13_36  and  O6_39
REMARK   14  A    between atoms: C15_42  and  O7_43
ROOT
HETATM    1  N2  UNL     1      17.696 -12.830  55.964  1.00  0.00    -0.281 N
ATOM      2  H2  UNL     1      18.696 -12.667  55.852  1.00  0.00     0.179 HD
HETATM    3  C4  UNL     1      17.014 -12.358  57.101  1.00  0.00     0.183 C
HETATM    4  N3  UNL     1      16.465 -11.963  58.048  1.00  0.00    -0.172 NA
ENDROOT
BRANCH   1   5
HETATM    5  C3  UNL     1      16.959 -13.539  54.973  1.00  0.00     0.108 C
HETATM    6  N1  UNL     1      15.788 -13.950  55.261  1.00  0.00    -0.387 N
ATOM      7  H12 UNL     1      15.260 -14.458  54.552  1.00  0.00     0.157 HD
ATOM      8  H11 UNL     1      15.361 -13.788  56.173  1.00  0.00     0.157 HD
BRANCH   5   9
HETATM    9  C2  UNL     1      17.580 -13.775  53.646  1.00  0.00     0.174 C
HETATM   10  C1  UNL     1      17.305 -15.217  53.235  1.00  0.00     0.043 C
BRANCH   9  11
HETATM   11  N4  UNL     1      16.914 -12.890  52.693  1.00  0.00    -0.258 N
HETATM   12  N5  UNL     1      16.040 -13.207  51.767  1.00  0.00    -0.281 N
HETATM   13  C5  UNL     1      15.647 -12.095  51.074  1.00  0.00     0.120 A
ATOM     14  H5  UNL     1      15.701 -14.152  51.588  1.00  0.00     0.189 HD
HETATM   15  C14 UNL     1      16.360 -11.074  51.664  1.00  0.00     0.106 A
HETATM   16  C15 UNL     1      17.154 -11.566  52.677  1.00  0.00     0.161 A
BRANCH  13  17
HETATM   17  N6  UNL     1      14.703 -12.040  50.016  1.00  0.00    -0.365 N
ATOM     18  H6  UNL     1      13.796 -11.606  50.187  1.00  0.00     0.161 HD
BRANCH  17  19
HETATM   19  C6  UNL     1      14.979 -12.568  48.730  1.00  0.00     0.155 C
HETATM   20  C7  UNL     1      13.949 -12.048  47.692  1.00  0.00     0.086 C
HETATM   21  C8  UNL     1      14.270 -13.017  46.580  1.00  0.00     0.250 C
HETATM   22  O3  UNL     1      14.305 -14.229  47.216  1.00  0.00    -0.322 OA
HETATM   23  C12 UNL     1      14.737 -14.038  48.537  1.00  0.00     0.235 C
BRANCH  21  24
HETATM   24  N7  UNL     1      13.319 -12.964  45.503  1.00  0.00    -0.257 N
HETATM   25  C9  UNL     1      12.508 -13.894  45.025  1.00  0.00     0.146 A
HETATM   26  C10 UNL     1      11.790 -13.355  43.987  1.00  0.00     0.098 A
HETATM   27  N8  UNL     1      12.200 -12.082  43.866  1.00  0.00    -0.284 N
HETATM   28  N9  UNL     1      13.108 -11.871  44.775  1.00  0.00    -0.238 N
ATOM     29  H8  UNL     1      11.861 -11.402  43.184  1.00  0.00     0.188 HD
ATOM     30  H9  UNL     1      13.593 -10.984  44.910  1.00  0.00     0.208 HD
BRANCH  26  31
HETATM   31  C11 UNL     1      10.754 -13.966  43.117  1.00  0.00     0.308 C
BRANCH  31  32
HETATM   32  O1  UNL     1      11.067 -13.605  41.787  1.00  0.00    -0.366 OA
ATOM     33  H1  UNL     1      10.249 -13.375  41.362  1.00  0.00     0.213 HD
ENDBRANCH  31  32
BRANCH  31  34
HETATM   34  O2  UNL     1      10.846 -15.361  43.187  1.00  0.00    -0.366 OA
ATOM     35  H2  UNL     1      11.717 -15.608  43.476  1.00  0.00     0.213 HD
ENDBRANCH  31  34
ENDBRANCH  26  31
ENDBRANCH  21  24
BRANCH  23  36
HETATM   36  O4  UNL     1      15.933 -14.728  48.721  1.00  0.00    -0.360 OA
ATOM     37  H4  UNL     1      15.790 -15.653  48.555  1.00  0.00     0.213 HD
ENDBRANCH  23  36
BRANCH  23  38
HETATM   38  C13 UNL     1      13.711 -14.657  49.419  1.00  0.00     0.319 C
BRANCH  38  39
HETATM   39  O5  UNL     1      14.160 -15.046  50.662  1.00  0.00    -0.366 OA
ATOM     40  H5  UNL     1      13.582 -15.631  51.138  1.00  0.00     0.212 HD
ENDBRANCH  38  39
BRANCH  38  41
HETATM   41  O6  UNL     1      12.525 -13.926  49.493  1.00  0.00    -0.366 OA
ATOM     42  H6  UNL     1      12.114 -13.956  50.349  1.00  0.00     0.212 HD
ENDBRANCH  38  41
ENDBRANCH  23  38
ENDBRANCH  17  19
ENDBRANCH  13  17
BRANCH  16  43
HETATM   43  O7  UNL     1      18.004 -10.832  53.484  1.00  0.00    -0.345 OA
ATOM     44  H7  UNL     1      17.785 -10.244  54.196  1.00  0.00     0.219 HD
ENDBRANCH  16  43
ENDBRANCH   9  11
ENDBRANCH   5   9
ENDBRANCH   1   5
TORSDOF 14
ENDMDL