MODEL 4
REMARK VINA RESULT: -6.465170218      3.739      7.308
REMARK  12 active torsions:
REMARK  status: ('A' for Active; 'I' for Inactive)
REMARK    1  A    between atoms: N1_1  and  C1_4
REMARK    2  A    between atoms: C4_9  and  C5_10
REMARK    3  A    between atoms: C6_11  and  O1_12
REMARK    4  A    between atoms: C7_17  and  N4_18
REMARK    5  A    between atoms: N6_23  and  C8_24
REMARK    6  A    between atoms: C8_24  and  C9_25
REMARK    7  A    between atoms: C9_25  and  O3_26
REMARK    8  A    between atoms: C10_28  and  C11_29
REMARK    9  A    between atoms: C11_29  and  N7_30
REMARK   10  A    between atoms: C11_29  and  S1_34
REMARK   11  A    between atoms: S1_34  and  N8_37
REMARK   12  A    between atoms: C12_42  and  N11_43
ROOT
HETATM    1  C1  UNL     1      15.839 -13.169  51.127  1.00  0.00     0.677 A
HETATM    2  N2  UNL     1      15.603 -11.961  51.643  1.00  0.00    -0.174 N
ATOM      3  H2  UNL     1      15.037 -11.292  51.122  1.00  0.00     0.186 HD
HETATM    4  C2  UNL     1      16.100 -11.619  52.836  1.00  0.00     0.152 A
HETATM    5  C3  UNL     1      16.890 -12.518  53.589  1.00  0.00     0.066 A
HETATM    6  C4  UNL     1      17.258 -11.888  54.743  1.00  0.00     0.083 A
HETATM    7  N5  UNL     1      16.699 -10.637  54.684  1.00  0.00    -0.295 N
ATOM      8  H5  UNL     1      16.791  -9.921  55.405  1.00  0.00     0.187 HD
HETATM    9  N6  UNL     1      16.030 -10.496  53.571  1.00  0.00    -0.273 N
HETATM   10  C10 UNL     1      17.132 -13.766  53.056  1.00  0.00     0.090 A
HETATM   11  N13 UNL     1      16.581 -14.020  51.832  1.00  0.00    -0.192 N
ATOM     12  H13 UNL     1      16.752 -14.939  51.425  1.00  0.00     0.184 HD
ENDROOT
BRANCH  10  13
HETATM   13  C11 UNL     1      17.950 -14.755  53.706  1.00  0.00     0.379 C
BRANCH  13  14
HETATM   14  N7  UNL     1      18.802 -15.244  52.503  1.00  0.00    -0.054 N
ATOM     15  H73 UNL     1      18.337 -15.888  51.864  1.00  0.00     0.276 HD
ATOM     16  H72 UNL     1      19.000 -14.545  51.787  1.00  0.00     0.276 HD
ATOM     17  H71 UNL     1      19.615 -15.616  52.994  1.00  0.00     0.276 HD
ENDBRANCH  13  14
BRANCH  13  18
HETATM   18  S1  UNL     1      17.125 -16.233  54.163  1.00  0.00     0.301 S
HETATM   19  O4  UNL     1      16.411 -16.849  52.967  1.00  0.00    -0.200 OA
HETATM   20  O5  UNL     1      18.121 -17.282  54.628  1.00  0.00    -0.200 OA
BRANCH  18  21
HETATM   21  N8  UNL     1      15.966 -16.084  55.407  1.00  0.00    -0.085 N
HETATM   22  N9  UNL     1      16.113 -16.413  56.690  1.00  0.00    -0.196 N
HETATM   23  N10 UNL     1      15.015 -16.163  57.363  1.00  0.00    -0.114 N
ATOM     24  H9  UNL     1      16.963 -16.806  57.094  1.00  0.00     0.212 HD
HETATM   25  C12 UNL     1      14.136 -15.659  56.492  1.00  0.00     0.708 A
ATOM     26  H10 UNL     1      14.862 -16.322  58.359  1.00  0.00     0.207 HD
HETATM   27  N12 UNL     1      14.735 -15.616  55.295  1.00  0.00    -0.099 N
ATOM     28  H12 UNL     1      14.308 -15.277  54.433  1.00  0.00     0.208 HD
BRANCH  25  29
HETATM   29  N11 UNL     1      12.942 -15.300  56.828  1.00  0.00    -0.232 N
ATOM     30 2H11 UNL     1      12.361 -15.620  57.603  1.00  0.00     0.174 HD
ATOM     31 1H11 UNL     1      12.406 -14.603  56.311  1.00  0.00     0.174 HD
ENDBRANCH  25  29
ENDBRANCH  18  21
ENDBRANCH  13  18
ENDBRANCH  10  13
BRANCH   6  32
HETATM   32  C5  UNL     1      18.073 -12.352  55.851  1.00  0.00     0.098 A
HETATM   33  C6  UNL     1      17.591 -13.041  56.961  1.00  0.00     0.177 A
HETATM   34  N3  UNL     1      18.639 -13.348  57.746  1.00  0.00    -0.236 N
HETATM   35  O2  UNL     1      19.692 -12.883  57.164  1.00  0.00    -0.217 OA
ATOM     36  H3  UNL     1      18.607 -13.852  58.632  1.00  0.00     0.197 HD
HETATM   37  C7  UNL     1      19.432 -12.280  56.035  1.00  0.00     0.181 A
BRANCH  33  38
HETATM   38  O1  UNL     1      16.268 -13.356  57.215  1.00  0.00    -0.344 OA
ATOM     39  H1  UNL     1      15.743 -13.029  57.935  1.00  0.00     0.219 HD
ENDBRANCH  33  38
BRANCH  37  40
HETATM   40  N4  UNL     1      20.284 -11.718  55.225  1.00  0.00    -0.377 N
ATOM     41  H42 UNL     1      20.977 -12.180  54.637  1.00  0.00     0.158 HD
ATOM     42  H41 UNL     1      20.377 -10.715  55.059  1.00  0.00     0.158 HD
ENDBRANCH  37  40
ENDBRANCH   6  32
BRANCH   1  43
HETATM   43  N1  UNL     1      15.354 -13.515  49.952  1.00  0.00    -0.234 N
ATOM     44  H12 UNL     1      14.463 -13.141  49.626  1.00  0.00     0.174 HD
ATOM     45  H11 UNL     1      15.855 -14.162  49.344  1.00  0.00     0.174 HD
ENDBRANCH   1  43
BRANCH   9  46
HETATM   46  C8  UNL     1      15.323  -9.275  53.218  1.00  0.00     0.177 C
BRANCH  46  47
HETATM   47  C9  UNL     1      15.253  -9.080  51.726  1.00  0.00     0.185 C
BRANCH  47  48
HETATM   48  O3  UNL     1      13.944  -8.695  51.424  1.00  0.00    -0.399 OA
ATOM     49  H3  UNL     1      13.993  -7.846  51.001  1.00  0.00     0.209 HD
ENDBRANCH  47  48
ENDBRANCH  46  47
ENDBRANCH   9  46
TORSDOF 12
ENDMDL