MODEL 4
REMARK VINA RESULT: -7.540407380      1.921      7.138
REMARK  11 active torsions:
REMARK  status: ('A' for Active; 'I' for Inactive)
REMARK    1  A    between atoms: C2_5  and  N3_6
REMARK    2  A    between atoms: C4_14  and  N6_15
REMARK    3  A    between atoms: C5_18  and  N7_19
REMARK    4  A    between atoms: N7_19  and  N8_21
REMARK    5  A    between atoms: N8_21  and  C6_23
REMARK    6  A    between atoms: C7_27  and  N11_28
REMARK    7  A    between atoms: C8_33  and  N13_34
REMARK    8  A    between atoms: N15_40  and  C10_41
REMARK    9  A    between atoms: C10_41  and  O2_42
REMARK   10  A    between atoms: O2_42  and  C11_43
REMARK   11  A    between atoms: C11_43  and  C12_44
ROOT
HETATM    1  C6  UNL     1      17.253 -12.995  52.788  1.00  0.00     0.731 A
HETATM    2  N9  UNL     1      18.118 -14.019  52.887  1.00  0.00    -0.094 N
ATOM      3  H9  UNL     1      18.425 -14.637  52.136  1.00  0.00     0.207 HD
HETATM    4  N10 UNL     1      18.491 -14.065  54.154  1.00  0.00     0.106 N
HETATM    5  C7  UNL     1      19.350 -14.926  54.735  1.00  0.00     0.727 A
HETATM    6  N12 UNL     1      19.618 -14.828  56.049  1.00  0.00    -0.020 N
ATOM      7  H12 UNL     1      20.265 -15.469  56.507  1.00  0.00     0.203 HD
HETATM    8  C8  UNL     1      19.002 -13.856  56.731  1.00  0.00     0.705 A
HETATM    9  N14 UNL     1      18.143 -12.990  56.167  1.00  0.00    -0.019 N
ATOM     10  H14 UNL     1      17.701 -12.267  56.735  1.00  0.00     0.203 HD
HETATM   11  C9  UNL     1      17.864 -13.078  54.844  1.00  0.00     0.752 A
HETATM   12  N15 UNL     1      17.087 -12.403  53.994  1.00  0.00     0.013 N
ENDROOT
BRANCH   1  13
HETATM   13  N8  UNL     1      16.561 -12.522  51.637  1.00  0.00    -0.129 N
ATOM     14  H8  UNL     1      16.879 -11.689  51.142  1.00  0.00     0.205 HD
BRANCH  13  15
HETATM   15  N7  UNL     1      15.522 -13.172  51.233  1.00  0.00    -0.280 N
ATOM     16  H7  UNL     1      14.871 -13.569  51.910  1.00  0.00     0.188 HD
BRANCH  15  17
HETATM   17  C5  UNL     1      15.289 -13.332  49.822  1.00  0.00     0.139 A
HETATM   18  C4  UNL     1      15.129 -12.241  48.997  1.00  0.00     0.135 A
HETATM   19  N5  UNL     1      14.918 -12.506  47.701  1.00  0.00    -0.292 N
HETATM   20  C3  UNL     1      14.864 -13.767  47.214  1.00  0.00     0.348 A
ATOM     21  H5  UNL     1      14.793 -11.726  47.056  1.00  0.00     0.172 HD
HETATM   22  N4  UNL     1      15.023 -14.821  48.034  1.00  0.00    -0.076 N
HETATM   23  O1  UNL     1      14.665 -13.985  45.990  1.00  0.00    -0.245 OA
HETATM   24  C2  UNL     1      15.020 -16.160  47.847  1.00  0.00     0.703 A
HETATM   25  C13 UNL     1      15.242 -14.645  49.370  1.00  0.00     0.182 A
HETATM   26  N2  UNL     1      15.235 -16.757  49.061  1.00  0.00    -0.128 N
HETATM   27  N1  UNL     1      15.370 -15.836  49.989  1.00  0.00    -0.264 N
ATOM     28  H2  UNL     1      15.283 -17.763  49.220  1.00  0.00     0.206 HD
HETATM   29  C1  UNL     1      15.611 -16.019  51.413  1.00  0.00     0.180 C
BRANCH  18  30
HETATM   30  N6  UNL     1      15.180 -11.043  49.461  1.00  0.00    -0.383 N
ATOM     31  H62 UNL     1      15.167 -10.865  50.465  1.00  0.00     0.157 HD
ATOM     32  H61 UNL     1      15.234 -10.222  48.858  1.00  0.00     0.157 HD
ENDBRANCH  18  30
BRANCH  24  33
HETATM   33  N3  UNL     1      14.847 -16.772  46.731  1.00  0.00    -0.233 N
ATOM     34  H32 UNL     1      13.983 -17.209  46.409  1.00  0.00     0.174 HD
ATOM     35  H31 UNL     1      15.555 -16.904  46.008  1.00  0.00     0.174 HD
ENDBRANCH  24  33
ENDBRANCH  15  17
ENDBRANCH  13  15
ENDBRANCH   1  13
BRANCH  12  36
HETATM   36  C10 UNL     1      16.263 -11.286  54.342  1.00  0.00     0.337 C
BRANCH  36  37
HETATM   37  O2  UNL     1      15.409 -10.897  53.316  1.00  0.00    -0.360 OA
BRANCH  37  38
HETATM   38  C11 UNL     1      15.455  -9.507  53.243  1.00  0.00     0.282 C
BRANCH  38  39
HETATM   39  C12 UNL     1      15.188  -8.999  51.895  1.00  0.00     0.197 C
HETATM   40  O3  UNL     1      16.158  -8.799  51.121  1.00  0.00    -0.646 OA
HETATM   41  O4  UNL     1      13.919  -8.723  51.413  1.00  0.00    -0.646 OA
ENDBRANCH  38  39
ENDBRANCH  37  38
ENDBRANCH  36  37
ENDBRANCH  12  36
BRANCH   5  42
HETATM   42  N11 UNL     1      19.936 -15.864  54.044  1.00  0.00    -0.232 N
ATOM     43 2H11 UNL     1      19.851 -16.830  54.360  1.00  0.00     0.174 HD
ATOM     44 1H11 UNL     1      20.471 -15.644  53.204  1.00  0.00     0.174 HD
ENDBRANCH   5  42
BRANCH   8  45
HETATM   45  N13 UNL     1      19.227 -13.719  58.008  1.00  0.00    -0.234 N
ATOM     46 2H13 UNL     1      19.653 -14.510  58.491  1.00  0.00     0.174 HD
ATOM     47 1H13 UNL     1      18.977 -12.847  58.475  1.00  0.00     0.174 HD
ENDBRANCH   8  45
TORSDOF 11
ENDMDL