MODEL 4
REMARK VINA RESULT: -7.107040191      1.041      1.228
REMARK  12 active torsions:
REMARK  status: ('A' for Active; 'I' for Inactive)
REMARK    1  A    between atoms: C2_2  and  O1_5
REMARK    2  A    between atoms: O1_5  and  N1_6
REMARK    3  A    between atoms: C5_8  and  C6_9
REMARK    4  A    between atoms: C8_15  and  C9_16
REMARK    5  A    between atoms: C9_16  and  O2_17
REMARK    6  A    between atoms: C9_16  and  C10_19
REMARK    7  A    between atoms: C10_19  and  O3_20
REMARK    8  A    between atoms: C10_19  and  C11_22
REMARK    9  A    between atoms: C11_22  and  O4_23
REMARK   10  A    between atoms: C13_32  and  N8_33
REMARK   11  A    between atoms: N11_40  and  O5_42
REMARK   12  A    between atoms: C15_44  and  O6_45
ROOT
HETATM    1  C6  UNL     1      14.767 -15.515  48.799  1.00  0.00     0.206 C
HETATM    2  N2  UNL     1      15.439 -14.773  49.844  1.00  0.00    -0.208 N
ATOM      3  H2  UNL     1      16.067 -15.294  50.457  1.00  0.00     0.178 HD
HETATM    4  C7  UNL     1      15.300 -13.392  50.085  1.00  0.00     0.717 A
HETATM    5  N3  UNL     1      15.703 -12.549  51.077  1.00  0.00    -0.173 N
ATOM      6  H3  UNL     1      16.235 -12.821  51.902  1.00  0.00     0.185 HD
HETATM    7  C8  UNL     1      15.288 -11.300  50.797  1.00  0.00     0.145 A
HETATM    8  N4  UNL     1      14.632 -11.401  49.627  1.00  0.00    -0.249 N
ATOM      9  H4  UNL     1      14.193 -10.619  49.142  1.00  0.00     0.191 HD
HETATM   10  N5  UNL     1      14.631 -12.650  49.187  1.00  0.00     0.001 N
HETATM   11  N6  UNL     1      14.112 -13.302  48.064  1.00  0.00    -0.039 N
HETATM   12  C12 UNL     1      13.816 -12.776  46.782  1.00  0.00     0.742 A
HETATM   13  N7  UNL     1      13.662 -11.619  46.093  1.00  0.00    -0.018 N
ATOM     14  H7  UNL     1      13.762 -10.682  46.482  1.00  0.00     0.203 HD
HETATM   15  C13 UNL     1      13.358 -11.902  44.814  1.00  0.00     0.706 A
HETATM   16  N9  UNL     1      13.319 -13.242  44.704  1.00  0.00    -0.109 N
ATOM     17  H9  UNL     1      13.113 -13.766  43.853  1.00  0.00     0.207 HD
HETATM   18  N10 UNL     1      13.598 -13.773  45.907  1.00  0.00    -0.050 N
HETATM   19  C14 UNL     1      13.750 -15.008  46.592  1.00  0.00     0.203 C
HETATM   20  N11 UNL     1      13.843 -16.142  45.991  1.00  0.00    -0.250 N
ATOM     21  H11 UNL     1      13.950 -16.984  46.557  1.00  0.00     0.195 HD
HETATM   22  C15 UNL     1      13.770 -14.705  48.025  1.00  0.00     0.262 C
ENDROOT
BRANCH   7  23
HETATM   23  C9  UNL     1      15.497 -10.054  51.594  1.00  0.00     0.218 C
BRANCH  23  24
HETATM   24  O2  UNL     1      14.405  -9.208  51.548  1.00  0.00    -0.385 OA
ATOM     25  H2  UNL     1      14.652  -8.293  51.617  1.00  0.00     0.210 HD
ENDBRANCH  23  24
BRANCH  23  26
HETATM   26  C10 UNL     1      15.825 -10.392  53.024  1.00  0.00     0.177 C
BRANCH  26  27
HETATM   27  O3  UNL     1      17.139 -10.765  53.191  1.00  0.00    -0.390 OA
ATOM     28  H3  UNL     1      17.259 -11.361  53.921  1.00  0.00     0.210 HD
ENDBRANCH  26  27
BRANCH  26  29
HETATM   29  C11 UNL     1      15.392  -9.306  53.969  1.00  0.00     0.198 C
BRANCH  29  30
HETATM   30  O4  UNL     1      16.390  -8.313  53.933  1.00  0.00    -0.398 OA
ATOM     31  H4  UNL     1      17.210  -8.740  54.149  1.00  0.00     0.209 HD
ENDBRANCH  29  30
ENDBRANCH  26  29
ENDBRANCH  23  26
ENDBRANCH   7  23
BRANCH   1  32
HETATM   32  C5  UNL     1      15.740 -16.221  47.921  1.00  0.00     0.118 C
HETATM   33  N1  UNL     1      16.989 -15.947  47.902  1.00  0.00    -0.279 N
ATOM     34  H1  UNL     1      17.361 -15.216  48.508  1.00  0.00     0.193 HD
BRANCH  33  35
HETATM   35  O1  UNL     1      17.819 -16.632  47.076  1.00  0.00    -0.271 OA
BRANCH  35  36
HETATM   36  C2  UNL     1      18.815 -17.530  47.461  1.00  0.00     0.078 C
HETATM   37  C1  UNL     1      18.365 -18.947  47.127  1.00  0.00     0.048 C
HETATM   38  C3  UNL     1      20.046 -17.263  46.620  1.00  0.00     0.048 C
HETATM   39  C4  UNL     1      19.077 -17.430  48.931  1.00  0.00     0.048 C
ENDBRANCH  35  36
ENDBRANCH  33  35
ENDBRANCH   1  32
BRANCH  22  40
HETATM   40  O6  UNL     1      12.481 -14.792  48.592  1.00  0.00    -0.361 OA
ATOM     41  H6  UNL     1      12.105 -15.657  48.472  1.00  0.00     0.213 HD
ENDBRANCH  22  40
BRANCH  15  42
HETATM   42  N8  UNL     1      13.131 -11.107  43.821  1.00  0.00    -0.233 N
ATOM     43  H82 UNL     1      13.125 -10.091  43.913  1.00  0.00     0.174 HD
ATOM     44  H81 UNL     1      12.933 -11.321  42.844  1.00  0.00     0.174 HD
ENDBRANCH  15  42
BRANCH  20  45
HETATM   45  O5  UNL     1      13.808 -16.271  44.646  1.00  0.00    -0.288 OA
ATOM     46  H5  UNL     1      13.473 -15.595  44.068  1.00  0.00     0.244 HD
ENDBRANCH  20  45
TORSDOF 12
ENDMDL