MODEL 3
REMARK VINA RESULT: -8.025927711      0.896      1.577
REMARK  12 active torsions:
REMARK  status: ('A' for Active; 'I' for Inactive)
REMARK    1  A    between atoms: C2_3  and  N2_4
REMARK    2  A    between atoms: N2_4  and  C3_7
REMARK    3  A    between atoms: C3_7  and  C4_8
REMARK    4  A    between atoms: N5_13  and  C5_14
REMARK    5  A    between atoms: C5_14  and  C11_34
REMARK    6  A    between atoms: N6_15  and  N7_17
REMARK    7  A    between atoms: N7_17  and  C6_19
REMARK    8  A    between atoms: C7_22  and  N9_23
REMARK    9  A    between atoms: C9_30  and  C10_31
REMARK   10  A    between atoms: C12_35  and  O2_36
REMARK   11  A    between atoms: C13_38  and  O3_39
REMARK   12  A    between atoms: N13_42  and  O4_43
ROOT
HETATM    1  N1  UNL     1      14.205  -8.732  51.378  1.00  0.00    -0.196 NA
HETATM    2  C1  UNL     1      15.052  -9.503  51.531  1.00  0.00     0.086 C
HETATM    3  C2  UNL     1      16.142 -10.469  51.743  1.00  0.00     0.356 C
ENDROOT
BRANCH   3   4
HETATM    4  N2  UNL     1      16.244 -11.273  50.526  1.00  0.00    -0.057 N
ATOM      5  H22 UNL     1      16.318 -10.700  49.685  1.00  0.00     0.278 HD
ATOM      6  H21 UNL     1      17.141 -11.753  50.448  1.00  0.00     0.278 HD
BRANCH   4   7
HETATM    7  C3  UNL     1      15.121 -12.185  50.478  1.00  0.00     0.312 C
BRANCH   7   8
HETATM    8  C4  UNL     1      15.129 -13.059  49.304  1.00  0.00     0.139 A
HETATM    9  N3  UNL     1      14.541 -14.256  49.209  1.00  0.00    -0.270 N
HETATM   10  N4  UNL     1      14.745 -14.768  48.019  1.00  0.00    -0.218 N
ATOM     11  H3  UNL     1      14.010 -14.707  49.955  1.00  0.00     0.190 HD
HETATM   12  N5  UNL     1      15.467 -13.916  47.324  1.00  0.00    -0.160 N
ATOM     13  H4  UNL     1      14.404 -15.670  47.689  1.00  0.00     0.210 HD
HETATM   14  N14 UNL     1      15.710 -12.868  48.091  1.00  0.00    -0.262 N
ATOM     15  H14 UNL     1      16.249 -12.047  47.816  1.00  0.00     0.190 HD
BRANCH  12  16
HETATM   16  C5  UNL     1      15.919 -14.066  45.961  1.00  0.00     0.193 C
HETATM   17  N6  UNL     1      15.211 -13.520  45.051  1.00  0.00    -0.279 N
ATOM     18  H6  UNL     1      15.523 -13.619  44.085  1.00  0.00     0.189 HD
BRANCH  17  19
HETATM   19  N7  UNL     1      14.061 -12.809  45.279  1.00  0.00    -0.282 N
ATOM     20  H7  UNL     1      14.031 -12.201  46.097  1.00  0.00     0.188 HD
BRANCH  19  21
HETATM   21  C6  UNL     1      13.010 -12.858  44.524  1.00  0.00     0.154 A
HETATM   22  N8  UNL     1      12.683 -11.924  43.619  1.00  0.00    -0.174 N
HETATM   23  C7  UNL     1      11.580 -12.018  42.853  1.00  0.00     0.678 A
ATOM     24  H8  UNL     1      13.293 -11.114  43.506  1.00  0.00     0.186 HD
HETATM   25  N10 UNL     1      10.762 -13.092  42.994  1.00  0.00    -0.178 N
HETATM   26  C8  UNL     1      11.017 -14.069  43.878  1.00  0.00     0.151 A
ATOM     27  H10 UNL     1       9.927 -13.158  42.411  1.00  0.00     0.185 HD
HETATM   28  N11 UNL     1      10.173 -15.198  44.036  1.00  0.00    -0.081 NA
HETATM   29  C9  UNL     1      12.171 -13.943  44.657  1.00  0.00     0.116 A
BRANCH  23  30
HETATM   30  N9  UNL     1      11.307 -11.103  42.000  1.00  0.00    -0.234 N
ATOM     31  H92 UNL     1      11.704 -10.169  42.099  1.00  0.00     0.174 HD
ATOM     32  H91 UNL     1      10.688 -11.301  41.214  1.00  0.00     0.174 HD
ENDBRANCH  23  30
BRANCH  29  33
HETATM   33  C10 UNL     1      12.433 -15.007  45.608  1.00  0.00     0.272 C
HETATM   34  N12 UNL     1      13.262 -16.084  45.188  1.00  0.00    -0.057 NA
HETATM   35  O1  UNL     1      11.966 -15.013  46.767  1.00  0.00    -0.271 OA
ENDBRANCH  29  33
ENDBRANCH  19  21
ENDBRANCH  17  19
BRANCH  16  36
HETATM   36  C11 UNL     1      17.132 -14.816  45.680  1.00  0.00     0.146 A
HETATM   37  C12 UNL     1      17.394 -16.120  46.057  1.00  0.00     0.134 A
HETATM   38  C13 UNL     1      18.678 -16.443  45.580  1.00  0.00     0.119 A
HETATM   39  C14 UNL     1      19.142 -15.327  44.936  1.00  0.00     0.163 A
HETATM   40  N13 UNL     1      18.198 -14.347  45.003  1.00  0.00    -0.227 N
BRANCH  37  41
HETATM   41  O2  UNL     1      16.622 -17.003  46.754  1.00  0.00    -0.356 OA
ATOM     42  H2  UNL     1      16.573 -17.165  47.689  1.00  0.00     0.218 HD
ENDBRANCH  37  41
BRANCH  38  43
HETATM   43  O3  UNL     1      19.360 -17.625  45.714  1.00  0.00    -0.357 OA
ATOM     44  H3  UNL     1      19.144 -18.474  45.348  1.00  0.00     0.218 HD
ENDBRANCH  38  43
BRANCH  40  45
HETATM   45  O4  UNL     1      18.329 -13.093  44.462  1.00  0.00    -0.283 OA
ATOM     46  H4  UNL     1      19.145 -12.648  44.265  1.00  0.00     0.245 HD
ENDBRANCH  40  45
ENDBRANCH  16  36
ENDBRANCH  12  16
ENDBRANCH   7   8
ENDBRANCH   4   7
ENDBRANCH   3   4
TORSDOF 12
ENDMDL