MODEL 1
REMARK VINA RESULT: -9.215573911      0.000      0.000
REMARK  7 active torsions:
REMARK  status: ('A' for Active; 'I' for Inactive)
REMARK    1  A    between atoms: C2_2  and  O1_4
REMARK    2  A    between atoms: C2_2  and  C4_6
REMARK    3  A    between atoms: C5_8  and  C6_9
REMARK    4  A    between atoms: C6_9  and  N1_10
REMARK       I    between atoms: N4_19  and  C9_21
REMARK       I    between atoms: C9_21  and  N5_22
REMARK       I    between atoms: C9_21  and  N6_26
REMARK    5  A    between atoms: C14_36  and  N7_37
REMARK    6  A    between atoms: N7_37  and  C15_39
REMARK    7  A    between atoms: C17_46  and  O6_47
ROOT
HETATM    1  N1  UNL     1      15.351 -12.034  50.667  1.00  0.00    -0.201 N
HETATM    2  O3  UNL     1      15.401 -13.397  50.979  1.00  0.00    -0.148 OA
HETATM    3  N2  UNL     1      16.466 -13.871  51.576  1.00  0.00    -0.223 N
ATOM      4  H2  UNL     1      16.894 -14.697  51.159  1.00  0.00     0.198 HD
HETATM    5  C7  UNL     1      17.099 -13.346  52.768  1.00  0.00     0.149 C
HETATM    6  N3  UNL     1      18.127 -13.972  53.171  1.00  0.00    -0.382 N
ATOM      7  H31 UNL     1      18.573 -13.602  54.011  1.00  0.00     0.157 HD
ATOM      8  H32 UNL     1      18.428 -14.788  52.639  1.00  0.00     0.157 HD
HETATM    9  C8  UNL     1      16.668 -12.179  53.529  1.00  0.00     0.093 C
HETATM   10  N4  UNL     1      16.770 -12.046  54.721  1.00  0.00    -0.337 N
ATOM     11  H4  UNL     1      16.380 -11.131  54.948  1.00  0.00     0.163 HD
HETATM   12  C9  UNL     1      17.185 -12.595  55.899  1.00  0.00     0.480 C
HETATM   13  N5  UNL     1      18.588 -12.789  56.055  1.00  0.00    -0.033 N
ATOM     14  H51 UNL     1      18.899 -13.200  56.935  1.00  0.00     0.278 HD
ATOM     15  H52 UNL     1      19.075 -11.906  55.899  1.00  0.00     0.278 HD
ATOM     16  H53 UNL     1      18.946 -13.340  55.275  1.00  0.00     0.278 HD
HETATM   17  N6  UNL     1      16.732 -11.697  57.000  1.00  0.00    -0.033 N
ATOM     18  H61 UNL     1      17.043 -12.108  57.881  1.00  0.00     0.278 HD
ATOM     19  H62 UNL     1      15.729 -11.517  56.978  1.00  0.00     0.278 HD
ATOM     20  H63 UNL     1      17.044 -10.734  56.880  1.00  0.00     0.278 HD
HETATM   21  C10 UNL     1      16.027 -11.017  52.833  1.00  0.00     0.082 A
HETATM   22  C11 UNL     1      15.470 -10.961  51.580  1.00  0.00     0.135 A
HETATM   23  C12 UNL     1      15.141  -9.636  51.755  1.00  0.00     0.252 A
HETATM   24  O4  UNL     1      14.601  -8.676  51.175  1.00  0.00    -0.281 OA
HETATM   25  C13 UNL     1      15.712  -9.712  53.027  1.00  0.00     0.239 A
HETATM   26  O5  UNL     1      15.869  -8.888  53.993  1.00  0.00    -0.283 OA
ENDROOT
BRANCH   1  27
HETATM   27  C6  UNL     1      15.043 -11.876  49.302  1.00  0.00     0.166 C
BRANCH  27  28
HETATM   28  C5  UNL     1      15.312 -12.911  48.328  1.00  0.00     0.123 A
HETATM   29  O2  UNL     1      16.118 -13.899  48.339  1.00  0.00    -0.305 OA
HETATM   30  C4  UNL     1      16.047 -14.651  47.271  1.00  0.00     0.122 A
HETATM   31  C17 UNL     1      15.104 -14.109  46.456  1.00  0.00     0.128 A
HETATM   32  C14 UNL     1      14.613 -12.983  47.112  1.00  0.00     0.106 A
BRANCH  30  33
HETATM   33  C2  UNL     1      16.872 -15.874  47.068  1.00  0.00     0.102 C
HETATM   34  C1  UNL     1      18.043 -15.506  46.129  1.00  0.00     0.053 C
HETATM   35  C3  UNL     1      17.531 -16.375  48.325  1.00  0.00     0.053 C
BRANCH  33  36
HETATM   36  O1  UNL     1      16.139 -16.796  46.376  1.00  0.00    -0.384 OA
ATOM     37  H1  UNL     1      16.707 -17.554  46.296  1.00  0.00     0.211 HD
ENDBRANCH  33  36
ENDBRANCH  30  33
BRANCH  31  38
HETATM   38  O6  UNL     1      14.672 -14.521  45.227  1.00  0.00    -0.356 OA
ATOM     39  H6  UNL     1      13.787 -14.665  44.912  1.00  0.00     0.218 HD
ENDBRANCH  31  38
BRANCH  32  40
HETATM   40  N7  UNL     1      13.734 -12.022  46.593  1.00  0.00    -0.323 N
ATOM     41  H7  UNL     1      13.468 -11.281  47.242  1.00  0.00     0.169 HD
BRANCH  40  42
HETATM   42  C15 UNL     1      13.169 -11.929  45.325  1.00  0.00     0.193 A
HETATM   43  N8  UNL     1      12.356 -12.777  44.813  1.00  0.00    -0.346 N
HETATM   44  C16 UNL     1      11.932 -12.434  43.499  1.00  0.00     0.259 A
ATOM     45  H8  UNL     1      12.042 -13.617  45.301  1.00  0.00     0.163 HD
HETATM   46  N9  UNL     1      12.534 -11.155  43.236  1.00  0.00    -0.119 NA
HETATM   47  N10 UNL     1      13.355 -10.905  44.328  1.00  0.00    -0.274 N
ATOM     48  H10 UNL     1      13.993 -10.115  44.412  1.00  0.00     0.185 HD
ENDBRANCH  40  42
ENDBRANCH  32  40
ENDBRANCH  27  28
ENDBRANCH   1  27
TORSDOF 7
ENDMDL