MODEL 2
REMARK VINA RESULT: -8.650060683      3.281      7.664
REMARK  14 active torsions:
REMARK  status: ('A' for Active; 'I' for Inactive)
REMARK    1  A    between atoms: C2_2  and  C3_3
REMARK    2  A    between atoms: C4_4  and  C5_5
REMARK    3  A    between atoms: C9_9  and  C10_10
REMARK    4  A    between atoms: C10_10  and  C11_11
REMARK    5  A    between atoms: C11_11  and  C12_12
REMARK    6  A    between atoms: C12_12  and  O1_13
REMARK    7  A    between atoms: C12_12  and  N1_15
REMARK    8  A    between atoms: C20_23  and  C21_24
REMARK       I    between atoms: C21_24  and  N2_26
REMARK    9  A    between atoms: N2_26  and  C22_28
REMARK   10  A    between atoms: C22_28  and  C23_29
REMARK   11  A    between atoms: C24_30  and  C25_31
REMARK   12  A    between atoms: C25_31  and  C26_32
REMARK   13  A    between atoms: C26_32  and  C27_33
REMARK   14  A    between atoms: C27_33  and  C28_34
REMARK       I    between atoms: C28_34  and  N3_36
REMARK       I    between atoms: N3_36  and  C29_37
ROOT
HETATM    1  N1  UNL     1     -22.488 -39.127  20.416  1.00  0.00    -0.326 N
HETATM    2  C13 UNL     1     -21.682 -39.542  19.294  1.00  0.00     0.013 C
HETATM    3  C14 UNL     1     -20.672 -40.670  19.346  1.00  0.00     0.068 C
HETATM    4  C15 UNL     1     -21.920 -38.848  18.222  1.00  0.00    -0.055 C
HETATM    5  C16 UNL     1     -21.260 -39.021  16.897  1.00  0.00     0.046 C
HETATM    6  C17 UNL     1     -22.953 -37.873  18.507  1.00  0.00     0.044 C
HETATM    7  C18 UNL     1     -22.484 -36.455  18.698  1.00  0.00     0.005 C
HETATM    8  C19 UNL     1     -21.059 -36.432  19.208  1.00  0.00     0.011 C
HETATM    9  C20 UNL     1     -23.496 -35.930  19.677  1.00  0.00     0.084 C
HETATM   10  C30 UNL     1     -23.720 -37.039  20.627  1.00  0.00     0.041 C
HETATM   11  C31 UNL     1     -23.553 -38.312  19.828  1.00  0.00     0.101 C
ENDROOT
BRANCH   1  12
HETATM   12  C12 UNL     1     -22.159 -39.315  21.766  1.00  0.00     0.142 C
BRANCH  12  13
HETATM   13  C11 UNL     1     -21.038 -39.019  22.548  1.00  0.00     0.057 C
BRANCH  13  14
HETATM   14  C10 UNL     1     -19.786 -38.773  22.561  1.00  0.00     0.015 C
BRANCH  14  15
HETATM   15  C9  UNL     1     -18.855 -37.835  23.117  1.00  0.00    -0.034 A
HETATM   16  C8  UNL     1     -18.416 -37.955  24.446  1.00  0.00     0.019 A
HETATM   17  C6  UNL     1     -17.563 -37.028  24.949  1.00  0.00    -0.041 A
HETATM   18  C5  UNL     1     -17.087 -35.954  24.227  1.00  0.00     0.045 A
HETATM   19  C7  UNL     1     -17.105 -37.185  26.356  1.00  0.00     0.050 C
HETATM   20  C33 UNL     1     -17.516 -35.841  22.931  1.00  0.00     0.054 A
HETATM   21  C32 UNL     1     -18.382 -36.757  22.378  1.00  0.00     0.036 A
HETATM   22 CL1  UNL     1     -16.917 -34.459  22.011  1.00  0.00    -0.083 Cl
BRANCH  18  23
HETATM   23  C4  UNL     1     -16.181 -35.017  24.847  1.00  0.00    -0.065 C
HETATM   24  C3  UNL     1     -15.394 -34.247  25.335  1.00  0.00    -0.101 C
BRANCH  24  25
HETATM   25  C2  UNL     1     -14.410 -33.317  25.883  1.00  0.00     0.090 C
HETATM   26  C1  UNL     1     -14.219 -33.537  27.384  1.00  0.00     0.018 C
ENDBRANCH  24  25
ENDBRANCH  18  23
ENDBRANCH  14  15
ENDBRANCH  13  14
ENDBRANCH  12  13
BRANCH  12  27
HETATM   27  O1  UNL     1     -23.149 -39.925  22.418  1.00  0.00    -0.346 OA
ATOM     28  H1  UNL     1     -23.624 -40.569  21.906  1.00  0.00     0.219 HD
ENDBRANCH  12  27
ENDBRANCH   1  12
BRANCH   9  29
HETATM   29  C21 UNL     1     -22.993 -34.705  20.376  1.00  0.00     0.222 C
HETATM   30  O2  UNL     1     -23.435 -33.556  20.143  1.00  0.00    -0.273 OA
HETATM   31  N2  UNL     1     -21.973 -34.854  21.333  1.00  0.00    -0.357 N
ATOM     32  H2  UNL     1     -21.651 -35.803  21.523  1.00  0.00     0.162 HD
BRANCH  31  33
HETATM   33  C22 UNL     1     -21.346 -33.799  22.063  1.00  0.00     0.149 C
BRANCH  33  34
HETATM   34  C23 UNL     1     -20.137 -33.170  21.544  1.00  0.00    -0.011 C
HETATM   35  C24 UNL     1     -19.924 -33.001  20.228  1.00  0.00    -0.029 C
BRANCH  35  36
HETATM   36  C25 UNL     1     -18.705 -32.374  19.693  1.00  0.00     0.027 C
BRANCH  36  37
HETATM   37  C26 UNL     1     -18.868 -32.292  18.170  1.00  0.00     0.014 C
BRANCH  37  38
HETATM   38  C27 UNL     1     -20.232 -32.795  17.815  1.00  0.00     0.120 C
BRANCH  38  39
HETATM   39  C28 UNL     1     -20.813 -31.905  16.735  1.00  0.00     0.294 C
HETATM   40  O3  UNL     1     -21.644 -31.019  17.122  1.00  0.00    -0.257 OA
HETATM   41  N3  UNL     1     -20.490 -32.021  15.448  1.00  0.00    -0.340 NA
HETATM   42  C29 UNL     1     -20.283 -32.132  14.297  1.00  0.00     0.278 C
HETATM   43  N4  UNL     1     -21.264 -32.317  13.254  1.00  0.00    -0.052 NA
HETATM   44  N5  UNL     1     -18.916 -32.079  13.796  1.00  0.00    -0.052 NA
ENDBRANCH  38  39
ENDBRANCH  37  38
ENDBRANCH  36  37
ENDBRANCH  35  36
ENDBRANCH  33  34
ENDBRANCH  31  33
ENDBRANCH   9  29
TORSDOF 14
ENDMDL