MODEL 1
REMARK VINA RESULT: -8.966296248      0.000      0.000
REMARK  10 active torsions:
REMARK  status: ('A' for Active; 'I' for Inactive)
REMARK    1  A    between atoms: C4_4  and  C5_5
REMARK    2  A    between atoms: C5_5  and  C6_6
REMARK    3  A    between atoms: C6_6  and  C7_7
REMARK    4  A    between atoms: C7_7  and  C8_8
REMARK    5  A    between atoms: C8_8  and  C9_9
REMARK    6  A    between atoms: C9_9  and  C10_10
REMARK    7  A    between atoms: C10_10  and  C11_11
REMARK    8  A    between atoms: N1_14  and  C14_15
REMARK    9  A    between atoms: C22_27  and  C23_28
REMARK   10  A    between atoms: C23_28  and  C24_29
ROOT
HETATM    1  C11 UNL     1     -19.948 -32.906  18.018  1.00  0.00     0.086 C
HETATM    2  C12 UNL     1     -19.902 -34.384  18.337  1.00  0.00     0.045 C
HETATM    3  C13 UNL     1     -20.713 -35.237  17.417  1.00  0.00     0.128 C
HETATM    4  N1  UNL     1     -20.262 -36.623  17.545  1.00  0.00    -0.348 N
HETATM    5  C17 UNL     1     -20.519 -37.336  18.723  1.00  0.00     0.220 C
HETATM    6  O1  UNL     1     -19.669 -38.223  19.060  1.00  0.00    -0.273 OA
HETATM    7  C18 UNL     1     -21.698 -37.139  19.605  1.00  0.00     0.103 C
HETATM    8  C19 UNL     1     -21.360 -36.893  21.034  1.00  0.00     0.018 C
HETATM    9  C20 UNL     1     -21.973 -35.633  21.602  1.00  0.00     0.103 C
HETATM   10  C21 UNL     1     -23.093 -35.125  20.810  1.00  0.00     0.218 C
HETATM   11  O2  UNL     1     -24.143 -35.840  20.792  1.00  0.00    -0.274 OA
HETATM   12  N2  UNL     1     -23.140 -33.929  20.064  1.00  0.00    -0.348 N
ATOM     13  H2  UNL     1     -23.792 -33.898  19.280  1.00  0.00     0.163 HD
HETATM   14  C22 UNL     1     -22.357 -32.755  20.307  1.00  0.00     0.177 C
HETATM   15  C27 UNL     1     -22.077 -31.961  19.077  1.00  0.00     0.240 C
HETATM   16  O3  UNL     1     -22.632 -30.822  18.991  1.00  0.00    -0.271 OA
HETATM   17  N3  UNL     1     -21.261 -32.352  18.009  1.00  0.00    -0.355 N
ATOM     18  H3  UNL     1     -21.668 -32.221  17.083  1.00  0.00     0.162 HD
ENDROOT
BRANCH   1  19
HETATM   19  C10 UNL     1     -18.964 -32.251  18.957  1.00  0.00     0.025 C
BRANCH  19  20
HETATM   20  C9  UNL     1     -18.743 -33.048  20.206  1.00  0.00     0.002 C
BRANCH  20  21
HETATM   21  C8  UNL     1     -17.799 -32.277  21.136  1.00  0.00     0.000 C
BRANCH  21  22
HETATM   22  C7  UNL     1     -16.396 -32.344  20.589  1.00  0.00     0.000 C
BRANCH  22  23
HETATM   23  C6  UNL     1     -15.671 -33.584  20.990  1.00  0.00     0.006 C
BRANCH  23  24
HETATM   24  C5  UNL     1     -14.735 -33.403  22.158  1.00  0.00     0.057 C
BRANCH  24  25
HETATM   25  C4  UNL     1     -15.193 -34.120  23.361  1.00  0.00     0.011 A
HETATM   26  C3  UNL     1     -14.719 -33.778  24.541  1.00  0.00     0.036 A
HETATM   27  C2  UNL     1     -15.142 -34.459  25.778  1.00  0.00    -0.035 A
HETATM   28  C1  UNL     1     -14.631 -34.071  26.940  1.00  0.00     0.024 C
HETATM   29  C29 UNL     1     -16.112 -35.545  25.705  1.00  0.00    -0.018 A
HETATM   30  C28 UNL     1     -16.574 -35.871  24.499  1.00  0.00     0.086 A
HETATM   31  C30 UNL     1     -16.557 -36.254  26.945  1.00  0.00     0.052 C
HETATM   32  N4  UNL     1     -16.137 -35.183  23.319  1.00  0.00    -0.353 N
HETATM   33 BR1  UNL     1     -17.837 -37.277  24.351  1.00  0.00    -0.031 Br
ATOM     34  H4  UNL     1     -16.517 -35.466  22.416  1.00  0.00     0.166 HD
ENDBRANCH  24  25
ENDBRANCH  23  24
ENDBRANCH  22  23
ENDBRANCH  21  22
ENDBRANCH  20  21
ENDBRANCH  19  20
ENDBRANCH   1  19
BRANCH   4  35
HETATM   35  C14 UNL     1     -19.550 -37.199  16.404  1.00  0.00     0.079 C
HETATM   36  C15 UNL     1     -20.391 -38.315  15.826  1.00  0.00     0.032 C
HETATM   37  C16 UNL     1     -19.297 -36.122  15.346  1.00  0.00     0.032 C
ENDBRANCH   4  35
BRANCH  14  38
HETATM   38  C23 UNL     1     -22.958 -31.986  21.432  1.00  0.00     0.038 C
BRANCH  38  39
HETATM   39  C24 UNL     1     -22.096 -31.389  22.462  1.00  0.00    -0.020 C
HETATM   40  C25 UNL     1     -20.988 -30.493  22.030  1.00  0.00     0.009 C
HETATM   41  C26 UNL     1     -22.941 -30.533  23.451  1.00  0.00     0.009 C
ENDBRANCH  38  39
ENDBRANCH  14  38
TORSDOF 10
ENDMDL