MODEL 1
REMARK VINA RESULT: -8.903006193      0.000      0.000
REMARK  11 active torsions:
REMARK  status: ('A' for Active; 'I' for Inactive)
REMARK    1  A    between atoms: C2_2  and  C3_3
REMARK    2  A    between atoms: C3_3  and  C5_5
REMARK    3  A    between atoms: C5_5  and  N1_6
REMARK    4  A    between atoms: C5_5  and  C9_16
REMARK    5  A    between atoms: N1_6  and  C6_8
REMARK    6  A    between atoms: C6_8  and  C7_10
REMARK    7  A    between atoms: C7_10  and  N2_11
REMARK       I    between atoms: N2_11  and  C8_13
REMARK       I    between atoms: C9_16  and  N4_18
REMARK    8  A    between atoms: C12_21  and  C13_22
REMARK    9  A    between atoms: C16_26  and  C17_27
REMARK   10  A    between atoms: C17_27  and  C18_28
REMARK   11  A    between atoms: C18_28  and  C19_29
ROOT
HETATM    1  C9  UNL     1     -19.309 -32.888  16.902  1.00  0.00     0.243 C
HETATM    2  O2  UNL     1     -18.279 -32.147  17.073  1.00  0.00    -0.271 OA
HETATM    3  N4  UNL     1     -19.935 -33.371  18.075  1.00  0.00    -0.345 N
HETATM    4  C10 UNL     1     -21.068 -34.270  18.131  1.00  0.00     0.132 C
HETATM    5  C11 UNL     1     -21.511 -34.045  19.601  1.00  0.00     0.015 C
HETATM    6  C12 UNL     1     -21.809 -32.593  19.674  1.00  0.00     0.007 C
HETATM    7  C14 UNL     1     -20.471 -31.919  19.882  1.00  0.00     0.032 C
HETATM    8  C15 UNL     1     -19.533 -33.028  19.461  1.00  0.00     0.092 C
HETATM    9  C16 UNL     1     -20.123 -34.208  20.193  1.00  0.00     0.015 C
ENDROOT
BRANCH   1  10
HETATM   10  C5  UNL     1     -19.747 -33.177  15.509  1.00  0.00     0.178 C
BRANCH  10  11
HETATM   11  C3  UNL     1     -19.980 -31.930  14.721  1.00  0.00     0.013 C
HETATM   12  C4  UNL     1     -20.865 -30.892  15.285  1.00  0.00     0.012 C
BRANCH  11  13
HETATM   13  C2  UNL     1     -20.183 -32.194  13.237  1.00  0.00     0.002 C
HETATM   14  C1  UNL     1     -21.604 -32.174  12.794  1.00  0.00     0.005 C
ENDBRANCH  11  13
ENDBRANCH  10  11
BRANCH  10  15
HETATM   15  N1  UNL     1     -18.762 -34.011  14.896  1.00  0.00    -0.369 N
ATOM     16  H1  UNL     1     -17.841 -33.586  14.797  1.00  0.00     0.161 HD
BRANCH  15  17
HETATM   17  C6  UNL     1     -18.865 -35.316  14.412  1.00  0.00     0.092 C
HETATM   18  S1  UNL     1     -19.400 -36.549  15.397  1.00  0.00    -0.064 SA
BRANCH  17  19
HETATM   19  C7  UNL     1     -18.512 -35.685  13.031  1.00  0.00     0.193 C
BRANCH  19  20
HETATM   20  N2  UNL     1     -17.309 -34.932  12.608  1.00  0.00    -0.339 N
HETATM   21  C8  UNL     1     -16.048 -35.521  12.837  1.00  0.00     0.329 C
HETATM   22  N3  UNL     1     -14.857 -34.816  12.437  1.00  0.00    -0.040 NA
HETATM   23  O1  UNL     1     -15.959 -36.643  13.380  1.00  0.00    -0.251 OA
ATOM     24  H2  UNL     1     -17.390 -34.017  12.166  1.00  0.00     0.164 HD
ENDBRANCH  19  20
ENDBRANCH  17  19
ENDBRANCH  15  17
ENDBRANCH  10  15
ENDBRANCH   1  10
BRANCH   9  25
HETATM   25  C17 UNL     1     -20.077 -34.110  21.689  1.00  0.00     0.007 C
BRANCH  25  26
HETATM   26  C18 UNL     1     -18.676 -33.871  22.193  1.00  0.00     0.005 C
BRANCH  26  27
HETATM   27  C19 UNL     1     -17.715 -34.974  22.031  1.00  0.00    -0.010 C
HETATM   28  C20 UNL     1     -17.998 -36.007  23.150  1.00  0.00     0.010 C
HETATM   29  C21 UNL     1     -16.883 -36.041  24.118  1.00  0.00    -0.009 C
HETATM   30  C22 UNL     1     -17.300 -36.438  25.523  1.00  0.00     0.006 C
HETATM   31  C27 UNL     1     -16.252 -34.692  24.430  1.00  0.00     0.002 C
HETATM   32  C23 UNL     1     -16.276 -35.777  26.432  1.00  0.00     0.009 C
HETATM   33  C24 UNL     1     -15.280 -35.079  25.479  1.00  0.00    -0.043 C
HETATM   34  C25 UNL     1     -14.683 -33.874  26.199  1.00  0.00     0.015 C
HETATM   35  C26 UNL     1     -14.249 -36.079  25.139  1.00  0.00     0.015 C
HETATM   36  C28 UNL     1     -15.844 -33.914  23.297  1.00  0.00    -0.005 C
HETATM   37  C29 UNL     1     -14.438 -33.568  23.020  1.00  0.00     0.005 C
HETATM   38  C32 UNL     1     -16.269 -34.707  22.052  1.00  0.00    -0.006 C
HETATM   39  C30 UNL     1     -14.570 -33.054  21.567  1.00  0.00     0.001 C
HETATM   40  C31 UNL     1     -15.606 -34.020  20.956  1.00  0.00     0.005 C
ENDBRANCH  26  27
ENDBRANCH  25  26
ENDBRANCH   9  25
BRANCH   6  41
HETATM   41  C13 UNL     1     -22.875 -32.178  20.632  1.00  0.00     0.119 C
HETATM   42 CL1  UNL     1     -22.249 -31.208  21.968  1.00  0.00    -0.130 Cl
ENDBRANCH   6  41
TORSDOF 11
ENDMDL