MODEL 2
REMARK VINA RESULT: -8.855257619      5.736      9.507
REMARK  14 active torsions:
REMARK  status: ('A' for Active; 'I' for Inactive)
REMARK    1  A    between atoms: C2_2  and  C3_3
REMARK    2  A    between atoms: C4_4  and  C5_5
REMARK    3  A    between atoms: C5_5  and  N1_6
REMARK       I    between atoms: N1_6  and  C6_8
REMARK    4  A    between atoms: C6_8  and  C7_10
REMARK    5  A    between atoms: C7_10  and  N2_11
REMARK    6  A    between atoms: C7_10  and  C13_21
REMARK    7  A    between atoms: N2_11  and  C8_13
REMARK    8  A    between atoms: C13_21  and  N4_22
REMARK    9  A    between atoms: C13_21  and  C32_46
REMARK       I    between atoms: N4_22  and  C14_24
REMARK   10  A    between atoms: C14_24  and  C15_26
REMARK   11  A    between atoms: N5_30  and  C19_31
REMARK   12  A    between atoms: C19_31  and  O3_32
REMARK   13  A    between atoms: C19_31  and  C20_34
REMARK   14  A    between atoms: C26_40  and  C27_41
ROOT
HETATM    1  C13 UNL     1     -21.237 -33.560  18.409  1.00  0.00     0.119 C
ENDROOT
BRANCH   1   2
HETATM    2  C7  UNL     1     -20.751 -32.838  19.629  1.00  0.00     0.198 C
BRANCH   2   3
HETATM    3  C6  UNL     1     -19.386 -32.338  19.584  1.00  0.00     0.243 C
HETATM    4  N1  UNL     1     -18.309 -32.949  20.277  1.00  0.00    -0.349 N
ATOM      5  H1  UNL     1     -18.516 -33.780  20.830  1.00  0.00     0.163 HD
HETATM    6  O1  UNL     1     -19.115 -31.318  18.908  1.00  0.00    -0.271 OA
BRANCH   4   7
HETATM    7  C5  UNL     1     -16.959 -32.486  20.258  1.00  0.00     0.217 C
BRANCH   7   8
HETATM    8  C4  UNL     1     -16.129 -33.094  21.297  1.00  0.00    -0.087 C
HETATM    9  C3  UNL     1     -15.444 -33.584  22.168  1.00  0.00    -0.105 C
BRANCH   9  10
HETATM   10  C2  UNL     1     -14.616 -34.167  23.243  1.00  0.00     0.089 C
HETATM   11  C1  UNL     1     -15.158 -33.685  24.571  1.00  0.00     0.018 C
ENDBRANCH   9  10
ENDBRANCH   7   8
ENDBRANCH   4   7
ENDBRANCH   2   3
BRANCH   2  12
HETATM   12  N2  UNL     1     -21.704 -31.774  19.879  1.00  0.00    -0.361 N
ATOM     13  H2  UNL     1     -21.929 -31.144  19.108  1.00  0.00     0.162 HD
BRANCH  12  14
HETATM   14  C8  UNL     1     -22.287 -31.572  21.020  1.00  0.00     0.101 A
HETATM   15  C9  UNL     1     -21.817 -30.613  21.883  1.00  0.00     0.050 A
HETATM   16  C10 UNL     1     -22.457 -30.425  23.085  1.00  0.00     0.029 A
HETATM   17  C11 UNL     1     -23.558 -31.181  23.432  1.00  0.00     0.049 A
HETATM   18 CL1  UNL     1     -24.338 -30.896  24.986  1.00  0.00    -0.083 Cl
HETATM   19  C12 UNL     1     -24.009 -32.136  22.546  1.00  0.00     0.113 A
HETATM   20  N3  UNL     1     -23.359 -32.289  21.388  1.00  0.00    -0.351 N
ATOM     21  H3  UNL     1     -23.701 -32.998  20.741  1.00  0.00     0.166 HD
ENDBRANCH  12  14
ENDBRANCH   2  12
ENDBRANCH   1   2
BRANCH   1  22
HETATM   22  N4  UNL     1     -20.206 -33.594  17.379  1.00  0.00    -0.353 N
HETATM   23  C14 UNL     1     -20.274 -32.763  16.230  1.00  0.00     0.226 C
HETATM   24  O2  UNL     1     -21.246 -32.001  16.128  1.00  0.00    -0.273 OA
ATOM     25  H4  UNL     1     -19.415 -34.231  17.487  1.00  0.00     0.163 HD
BRANCH  23  26
HETATM   26  C15 UNL     1     -19.232 -32.778  15.164  1.00  0.00     0.041 C
HETATM   27  C16 UNL     1     -17.908 -32.644  15.958  1.00  0.00     0.025 C
HETATM   28  C17 UNL     1     -19.399 -31.555  14.365  1.00  0.00     0.039 C
HETATM   29  C18 UNL     1     -19.442 -31.722  12.886  1.00  0.00     0.127 C
HETATM   30  N5  UNL     1     -20.324 -32.884  12.626  1.00  0.00    -0.356 N
HETATM   31  C26 UNL     1     -19.796 -34.121  13.052  1.00  0.00     0.095 C
HETATM   32  C31 UNL     1     -19.221 -34.071  14.467  1.00  0.00     0.045 C
BRANCH  30  33
HETATM   33  C19 UNL     1     -21.565 -32.615  12.045  1.00  0.00     0.148 C
BRANCH  33  34
HETATM   34  O3  UNL     1     -21.836 -31.310  12.112  1.00  0.00    -0.346 OA
ATOM     35  H3  UNL     1     -21.257 -30.823  11.537  1.00  0.00     0.219 HD
ENDBRANCH  33  34
BRANCH  33  36
HETATM   36  C20 UNL     1     -22.599 -33.369  11.413  1.00  0.00     0.015 A
HETATM   37  C21 UNL     1     -23.945 -33.046  11.725  1.00  0.00     0.016 A
HETATM   38  C22 UNL     1     -25.012 -33.700  11.171  1.00  0.00     0.001 A
HETATM   39  C23 UNL     1     -24.823 -34.712  10.272  1.00  0.00     0.000 A
HETATM   40  C24 UNL     1     -23.560 -35.063   9.936  1.00  0.00     0.001 A
HETATM   41  C25 UNL     1     -22.499 -34.389  10.509  1.00  0.00     0.016 A
ENDBRANCH  33  36
ENDBRANCH  30  33
BRANCH  31  42
HETATM   42  C27 UNL     1     -18.762 -34.718  12.123  1.00  0.00    -0.031 C
HETATM   43  C28 UNL     1     -18.599 -34.010  10.815  1.00  0.00     0.016 C
HETATM   44  C29 UNL     1     -17.418 -34.978  12.686  1.00  0.00     0.016 C
HETATM   45  C30 UNL     1     -19.299 -36.138  11.715  1.00  0.00     0.016 C
ENDBRANCH  31  42
ENDBRANCH  23  26
ENDBRANCH   1  22
BRANCH   1  46
HETATM   46  C32 UNL     1     -21.711 -34.949  18.602  1.00  0.00     0.003 C
HETATM   47  C33 UNL     1     -20.990 -35.981  17.763  1.00  0.00     0.011 C
HETATM   48  C34 UNL     1     -21.895 -35.391  20.024  1.00  0.00     0.011 C
ENDBRANCH   1  46
TORSDOF 14
ENDMDL