MODEL 3
REMARK VINA RESULT: -9.872435401      1.695      2.204
REMARK  9 active torsions:
REMARK  status: ('A' for Active; 'I' for Inactive)
REMARK    1  A    between atoms: C2_2  and  C3_4
REMARK    2  A    between atoms: C3_4  and  C4_5
REMARK    3  A    between atoms: C3_4  and  N1_12
REMARK    4  A    between atoms: C4_5  and  C5_6
REMARK       I    between atoms: N1_12  and  C11_14
REMARK    5  A    between atoms: C11_14  and  C12_16
REMARK    6  A    between atoms: C12_16  and  N2_17
REMARK    7  A    between atoms: C12_16  and  C29_41
REMARK       I    between atoms: N2_17  and  C13_19
REMARK       I    between atoms: C13_19  and  N3_21
REMARK    8  A    between atoms: C16_24  and  C17_25
REMARK       I    between atoms: C17_25  and  N4_27
REMARK    9  A    between atoms: N4_27  and  C18_29
ROOT
HETATM    1  N2  UNL     1     -20.790 -32.990  19.301  1.00  0.00    -0.326 N
ATOM      2  H2  UNL     1     -20.888 -32.062  18.889  1.00  0.00     0.165 HD
HETATM    3  C13 UNL     1     -20.552 -34.115  18.470  1.00  0.00     0.319 C
HETATM    4  O2  UNL     1     -20.432 -35.278  19.023  1.00  0.00    -0.247 OA
HETATM    5  N3  UNL     1     -20.429 -34.074  17.064  1.00  0.00    -0.334 N
HETATM    6  C14 UNL     1     -20.556 -32.816  16.370  1.00  0.00     0.128 C
HETATM    7  C15 UNL     1     -19.488 -32.725  15.262  1.00  0.00     0.034 C
HETATM    8  C16 UNL     1     -19.650 -33.946  14.402  1.00  0.00     0.081 C
HETATM    9  C27 UNL     1     -19.157 -35.122  15.250  1.00  0.00     0.034 C
HETATM   10  C28 UNL     1     -20.170 -35.316  16.345  1.00  0.00     0.128 C
ENDROOT
BRANCH   1  11
HETATM   11  C12 UNL     1     -20.893 -33.167  20.764  1.00  0.00     0.211 C
BRANCH  11  12
HETATM   12  C11 UNL     1     -19.569 -32.861  21.333  1.00  0.00     0.245 C
HETATM   13  N1  UNL     1     -18.424 -33.675  21.262  1.00  0.00    -0.348 N
ATOM     14  H1  UNL     1     -18.486 -34.573  20.784  1.00  0.00     0.163 HD
HETATM   15  O1  UNL     1     -19.426 -31.757  21.949  1.00  0.00    -0.271 OA
BRANCH  13  16
HETATM   16  C3  UNL     1     -17.127 -33.267  21.862  1.00  0.00     0.141 C
BRANCH  16  17
HETATM   17  C2  UNL     1     -16.378 -32.437  20.871  1.00  0.00     0.192 C
HETATM   18  C1  UNL     1     -14.963 -33.069  20.660  1.00  0.00     0.047 C
HETATM   19  F1  UNL     1     -16.958 -32.353  19.623  1.00  0.00    -0.247 F
ENDBRANCH  16  17
BRANCH  16  20
HETATM   20  C4  UNL     1     -16.537 -34.460  22.441  1.00  0.00     0.004 C
BRANCH  20  21
HETATM   21  C5  UNL     1     -16.053 -34.582  23.812  1.00  0.00    -0.082 C
HETATM   22  C6  UNL     1     -14.779 -33.849  24.160  1.00  0.00     0.034 C
HETATM   23  C7  UNL     1     -14.808 -33.646  25.676  1.00  0.00     0.004 C
HETATM   24  C8  UNL     1     -15.064 -34.896  26.445  1.00  0.00     0.001 C
HETATM   25  C9  UNL     1     -16.349 -35.600  25.989  1.00  0.00     0.004 C
HETATM   26  C10 UNL     1     -16.057 -35.912  24.490  1.00  0.00     0.034 C
ENDBRANCH  20  21
ENDBRANCH  16  20
ENDBRANCH  13  16
ENDBRANCH  11  12
BRANCH  11  27
HETATM   27  C29 UNL     1     -21.980 -32.331  21.262  1.00  0.00    -0.026 A
HETATM   28  C30 UNL     1     -22.619 -32.688  22.445  1.00  0.00     0.010 A
HETATM   29  C31 UNL     1     -23.647 -31.911  22.950  1.00  0.00     0.001 A
HETATM   30  C32 UNL     1     -24.061 -30.777  22.303  1.00  0.00     0.000 A
HETATM   31  C33 UNL     1     -23.407 -30.439  21.120  1.00  0.00     0.001 A
HETATM   32  C34 UNL     1     -22.390 -31.200  20.613  1.00  0.00     0.010 A
ENDBRANCH  11  27
ENDBRANCH   1  11
BRANCH   8  33
HETATM   33  C17 UNL     1     -18.897 -33.895  13.133  1.00  0.00     0.222 C
HETATM   34  O3  UNL     1     -18.799 -32.763  12.582  1.00  0.00    -0.273 OA
HETATM   35  N4  UNL     1     -18.332 -35.063  12.601  1.00  0.00    -0.356 N
ATOM     36  H4  UNL     1     -18.452 -35.948  13.094  1.00  0.00     0.162 HD
BRANCH  35  37
HETATM   37  C18 UNL     1     -17.590 -35.037  11.379  1.00  0.00     0.086 C
HETATM   38  C19 UNL     1     -16.176 -34.544  11.564  1.00  0.00     0.027 C
HETATM   39  C20 UNL     1     -15.235 -35.598  12.044  1.00  0.00     0.030 C
HETATM   40  C21 UNL     1     -15.007 -36.615  10.923  1.00  0.00     0.237 C
HETATM   41  N5  UNL     1     -15.773 -37.817  11.198  1.00  0.00    -0.067 N
HETATM   42  C22 UNL     1     -15.213 -38.464  12.363  1.00  0.00     0.239 C
HETATM   43  C24 UNL     1     -15.452 -38.968  10.413  1.00  0.00     0.239 C
HETATM   44  C25 UNL     1     -17.173 -37.529  11.401  1.00  0.00     0.239 C
HETATM   45  C23 UNL     1     -15.332 -39.789  11.672  1.00  0.00     0.056 C
HETATM   46  C26 UNL     1     -17.673 -36.354  10.645  1.00  0.00     0.053 C
ENDBRANCH  35  37
ENDBRANCH   8  33
TORSDOF 9
ENDMDL