MODEL 1
REMARK VINA RESULT: -10.121520920      0.000      0.000
REMARK  9 active torsions:
REMARK  status: ('A' for Active; 'I' for Inactive)
REMARK    1  A    between atoms: C10_11  and  C11_12
REMARK       I    between atoms: C11_12  and  N1_14
REMARK    2  A    between atoms: N1_14  and  C12_16
REMARK    3  A    between atoms: C12_16  and  C13_17
REMARK       I    between atoms: N2_23  and  C19_24
REMARK    4  A    between atoms: C19_24  and  C20_26
REMARK    5  A    between atoms: C20_26  and  C21_27
REMARK    6  A    between atoms: C20_26  and  N3_34
REMARK    7  A    between atoms: C21_27  and  C22_28
REMARK       I    between atoms: N3_34  and  C28_36
REMARK       I    between atoms: C28_36  and  N4_38
REMARK    8  A    between atoms: N4_38  and  C29_40
REMARK    9  A    between atoms: C29_40  and  C32_43
ROOT
HETATM    1  C1  UNL     1     -24.004 -40.070  19.773  1.00  0.00     0.011 C
HETATM    2  C2  UNL     1     -22.631 -39.512  19.649  1.00  0.00    -0.001 C
HETATM    3  C3  UNL     1     -22.503 -38.531  18.468  1.00  0.00     0.014 C
HETATM    4  C4  UNL     1     -23.484 -37.529  18.891  1.00  0.00    -0.025 C
HETATM    5  C5  UNL     1     -23.394 -37.455  20.238  1.00  0.00    -0.023 C
HETATM    6  C6  UNL     1     -22.358 -38.409  20.696  1.00  0.00     0.042 C
HETATM    7  C7  UNL     1     -21.018 -37.949  20.233  1.00  0.00     0.063 C
HETATM    8  C8  UNL     1     -21.105 -37.990  18.751  1.00  0.00     0.042 C
HETATM    9  C9  UNL     1     -19.923 -38.760  20.850  1.00  0.00     0.143 C
HETATM   10 CL1  UNL     1     -20.331 -40.272  21.639  1.00  0.00    -0.120 Cl
HETATM   11  C10 UNL     1     -20.010 -37.638  21.921  1.00  0.00     0.201 C
HETATM   12  N2  UNL     1     -20.442 -36.769  20.883  1.00  0.00    -0.324 N
HETATM   13  C19 UNL     1     -20.443 -35.414  20.489  1.00  0.00     0.244 C
HETATM   14  O2  UNL     1     -20.997 -35.079  19.393  1.00  0.00    -0.271 OA
ENDROOT
BRANCH  11  15
HETATM   15  C11 UNL     1     -18.732 -37.565  22.591  1.00  0.00     0.242 C
HETATM   16  O1  UNL     1     -17.646 -37.612  22.014  1.00  0.00    -0.271 OA
HETATM   17  N1  UNL     1     -18.748 -37.428  24.007  1.00  0.00    -0.359 N
ATOM     18  H1  UNL     1     -19.637 -37.390  24.507  1.00  0.00     0.162 HD
BRANCH  17  19
HETATM   19  C12 UNL     1     -17.506 -37.343  24.733  1.00  0.00     0.127 C
BRANCH  19  20
HETATM   20  C13 UNL     1     -17.519 -36.241  25.764  1.00  0.00     0.003 C
HETATM   21  C14 UNL     1     -17.151 -34.947  25.050  1.00  0.00     0.006 C
HETATM   22  C15 UNL     1     -15.772 -34.471  25.402  1.00  0.00     0.000 C
HETATM   23  C16 UNL     1     -14.742 -35.566  25.209  1.00  0.00     0.000 C
HETATM   24  C17 UNL     1     -15.087 -36.686  26.142  1.00  0.00     0.000 C
HETATM   25  C18 UNL     1     -16.438 -36.521  26.805  1.00  0.00     0.006 C
ENDBRANCH  19  20
ENDBRANCH  17  19
ENDBRANCH  11  15
BRANCH  13  26
HETATM   26  C20 UNL     1     -19.846 -34.297  21.244  1.00  0.00     0.182 C
BRANCH  26  27
HETATM   27  C21 UNL     1     -18.553 -34.590  21.932  1.00  0.00     0.073 C
BRANCH  27  28
HETATM   28  C22 UNL     1     -17.371 -33.898  21.433  1.00  0.00    -0.056 A
HETATM   29  C23 UNL     1     -17.418 -32.855  20.515  1.00  0.00     0.007 A
HETATM   30  C24 UNL     1     -16.260 -32.254  20.073  1.00  0.00     0.001 A
HETATM   31  C25 UNL     1     -15.029 -32.655  20.514  1.00  0.00     0.000 A
HETATM   32  C26 UNL     1     -14.944 -33.685  21.421  1.00  0.00     0.001 A
HETATM   33  C27 UNL     1     -16.123 -34.271  21.849  1.00  0.00     0.007 A
ENDBRANCH  27  28
ENDBRANCH  26  27
BRANCH  26  34
HETATM   34  N3  UNL     1     -20.822 -33.775  22.219  1.00  0.00    -0.330 N
HETATM   35  C28 UNL     1     -21.460 -32.544  22.014  1.00  0.00     0.317 C
HETATM   36  O3  UNL     1     -21.193 -31.883  20.986  1.00  0.00    -0.247 OA
HETATM   37  N4  UNL     1     -22.404 -32.014  22.930  1.00  0.00    -0.334 N
ATOM     38  H4  UNL     1     -22.633 -32.534  23.777  1.00  0.00     0.165 HD
ATOM     39  H3  UNL     1     -21.036 -34.318  23.055  1.00  0.00     0.165 HD
BRANCH  37  40
HETATM   40  C29 UNL     1     -23.040 -30.757  22.679  1.00  0.00     0.030 C
HETATM   41  C30 UNL     1     -23.527 -30.640  21.240  1.00  0.00     0.038 C
HETATM   42  C31 UNL     1     -22.027 -29.629  22.881  1.00  0.00     0.038 C
BRANCH  40  43
HETATM   43  C32 UNL     1     -24.201 -30.549  23.602  1.00  0.00     0.005 C
HETATM   44  C33 UNL     1     -24.639 -31.841  24.262  1.00  0.00     0.012 C
HETATM   45  C34 UNL     1     -23.840 -29.521  24.643  1.00  0.00     0.012 C
ENDBRANCH  40  43
ENDBRANCH  37  40
ENDBRANCH  26  34
ENDBRANCH  13  26
TORSDOF 9
ENDMDL