MODEL 2
REMARK VINA RESULT: -9.088464019      2.410      4.556
REMARK  12 active torsions:
REMARK  status: ('A' for Active; 'I' for Inactive)
REMARK    1  A    between atoms: C7_8  and  N1_9
REMARK       I    between atoms: N1_9  and  C8_11
REMARK    2  A    between atoms: N3_13  and  C9_15
REMARK    3  A    between atoms: C9_15  and  C10_16
REMARK    4  A    between atoms: C10_16  and  C11_17
REMARK       I    between atoms: C11_17  and  N4_19
REMARK    5  A    between atoms: N4_19  and  C12_20
REMARK    6  A    between atoms: N4_19  and  C27_40
REMARK    7  A    between atoms: C12_20  and  C13_21
REMARK    8  A    between atoms: C13_21  and  C14_22
REMARK    9  A    between atoms: C14_22  and  N5_23
REMARK       I    between atoms: N5_23  and  C15_25
REMARK   10  A    between atoms: C15_25  and  C16_27
REMARK   11  A    between atoms: C16_27  and  C19_30
REMARK   12  A    between atoms: C26_37  and  O3_38
ROOT
HETATM    1  C11 UNL     1     -21.843 -34.699  21.317  1.00  0.00     0.222 C
HETATM    2  O1  UNL     1     -23.066 -34.401  21.426  1.00  0.00    -0.273 OA
HETATM    3  N4  UNL     1     -21.529 -35.873  20.516  1.00  0.00    -0.344 N
ENDROOT
BRANCH   3   4
HETATM    4  C12 UNL     1     -20.152 -36.207  20.440  1.00  0.00     0.128 C
BRANCH   4   5
HETATM    5  C13 UNL     1     -19.756 -37.525  20.944  1.00  0.00     0.039 C
BRANCH   5   6
HETATM    6  C14 UNL     1     -19.264 -37.634  22.331  1.00  0.00     0.124 C
BRANCH   6   7
HETATM    7  N5  UNL     1     -18.556 -36.416  22.748  1.00  0.00    -0.360 N
HETATM    8  C15 UNL     1     -17.150 -36.339  22.643  1.00  0.00     0.226 C
HETATM    9  O2  UNL     1     -16.522 -37.320  22.191  1.00  0.00    -0.273 OA
ATOM     10  H5  UNL     1     -19.082 -35.623  23.116  1.00  0.00     0.162 HD
BRANCH   8  11
HETATM   11  C16 UNL     1     -16.365 -35.144  23.045  1.00  0.00     0.038 C
HETATM   12  C17 UNL     1     -15.771 -34.453  21.879  1.00  0.00     0.025 C
HETATM   13  C18 UNL     1     -17.361 -34.182  23.708  1.00  0.00     0.025 C
BRANCH  11  14
HETATM   14  C19 UNL     1     -15.417 -35.558  24.133  1.00  0.00     0.009 C
HETATM   15  C20 UNL     1     -16.059 -36.083  25.373  1.00  0.00     0.007 C
HETATM   16  C21 UNL     1     -15.741 -35.314  26.616  1.00  0.00     0.007 C
HETATM   17  C22 UNL     1     -14.293 -34.928  26.750  1.00  0.00     0.015 C
HETATM   18  C23 UNL     1     -14.218 -33.421  26.580  1.00  0.00     0.007 C
HETATM   19  C26 UNL     1     -13.488 -35.329  25.506  1.00  0.00     0.126 C
HETATM   20  C24 UNL     1     -14.708 -33.331  25.128  1.00  0.00     0.008 C
HETATM   21  C25 UNL     1     -14.324 -34.588  24.444  1.00  0.00     0.020 C
BRANCH  19  22
HETATM   22  O3  UNL     1     -12.241 -34.735  25.624  1.00  0.00    -0.395 OA
ATOM     23  H3  UNL     1     -11.598 -35.433  25.584  1.00  0.00     0.210 HD
ENDBRANCH  19  22
ENDBRANCH  11  14
ENDBRANCH   8  11
ENDBRANCH   6   7
ENDBRANCH   5   6
ENDBRANCH   4   5
ENDBRANCH   3   4
BRANCH   3  24
HETATM   24  C27 UNL     1     -22.670 -36.459  19.873  1.00  0.00     0.024 C
HETATM   25  C28 UNL     1     -23.336 -37.359  20.923  1.00  0.00     0.037 C
HETATM   26  C29 UNL     1     -22.231 -37.320  18.684  1.00  0.00     0.037 C
HETATM   27  C30 UNL     1     -23.718 -35.523  19.405  1.00  0.00     0.037 C
ENDBRANCH   3  24
BRANCH   1  28
HETATM   28  C10 UNL     1     -20.851 -33.869  21.981  1.00  0.00     0.122 C
BRANCH  28  29
HETATM   29  C9  UNL     1     -21.024 -32.386  21.590  1.00  0.00     0.131 C
BRANCH  29  30
HETATM   30  N3  UNL     1     -21.413 -32.359  20.198  1.00  0.00    -0.364 N
HETATM   31  C8  UNL     1     -20.641 -32.044  19.241  1.00  0.00     0.188 C
HETATM   32  N1  UNL     1     -21.116 -32.049  17.913  1.00  0.00    -0.330 N
HETATM   33  N2  UNL     1     -19.298 -31.683  19.494  1.00  0.00    -0.064 NA
ATOM     34  H1  UNL     1     -21.872 -31.408  17.670  1.00  0.00     0.168 HD
ATOM     35  H3  UNL     1     -22.376 -32.610  19.969  1.00  0.00     0.162 HD
BRANCH  32  36
HETATM   36  C7  UNL     1     -20.607 -32.890  16.901  1.00  0.00     0.041 A
HETATM   37  C2  UNL     1     -20.304 -32.371  15.671  1.00  0.00    -0.018 A
HETATM   38  C1  UNL     1     -20.492 -30.927  15.335  1.00  0.00     0.052 C
HETATM   39  C3  UNL     1     -19.808 -33.200  14.694  1.00  0.00     0.019 A
HETATM   40 BR1  UNL     1     -19.386 -32.480  12.981  1.00  0.00    -0.051 Br
HETATM   41  C4  UNL     1     -19.610 -34.539  14.928  1.00  0.00     0.020 A
HETATM   42  C5  UNL     1     -19.911 -35.055  16.157  1.00  0.00     0.004 A
HETATM   43  C6  UNL     1     -20.411 -34.231  17.145  1.00  0.00     0.030 A
ENDBRANCH  32  36
ENDBRANCH  29  30
ENDBRANCH  28  29
ENDBRANCH   1  28
TORSDOF 12
ENDMDL