MODEL 2
REMARK VINA RESULT: -9.028652155      1.135      1.451
REMARK  9 active torsions:
REMARK  status: ('A' for Active; 'I' for Inactive)
REMARK    1  A    between atoms: C6_7  and  C7_8
REMARK    2  A    between atoms: C7_8  and  C8_9
REMARK    3  A    between atoms: C8_9  and  C9_10
REMARK    4  A    between atoms: C9_10  and  N1_11
REMARK       I    between atoms: N1_11  and  C10_13
REMARK       I    between atoms: C10_13  and  N2_15
REMARK    5  A    between atoms: N2_15  and  C11_17
REMARK    6  A    between atoms: C18_26  and  C19_27
REMARK    7  A    between atoms: C19_27  and  C20_28
REMARK    8  A    between atoms: C23_31  and  C24_32
REMARK       I    between atoms: C24_32  and  N4_34
REMARK    9  A    between atoms: N4_34  and  C25_36
ROOT
HETATM    1  C9  UNL     1     -16.299 -32.316  20.562  1.00  0.00     0.124 C
ENDROOT
BRANCH   1   2
HETATM    2  C8  UNL     1     -15.089 -33.034  21.016  1.00  0.00     0.020 C
BRANCH   2   3
HETATM    3  C7  UNL     1     -15.203 -34.431  21.458  1.00  0.00     0.007 C
BRANCH   3   4
HETATM    4  C6  UNL     1     -15.466 -34.786  22.862  1.00  0.00     0.003 C
HETATM    5  C5  UNL     1     -15.590 -33.695  23.865  1.00  0.00     0.007 C
HETATM    6  C4  UNL     1     -16.211 -34.310  25.136  1.00  0.00     0.021 C
HETATM    7  C3  UNL     1     -15.100 -35.127  25.812  1.00  0.00     0.086 C
HETATM    8  C2  UNL     1     -14.080 -35.456  24.756  1.00  0.00    -0.061 C
HETATM    9 BR1  UNL     1     -14.252 -34.047  27.155  1.00  0.00    -0.086 Br
HETATM   10  C1  UNL     1     -12.787 -35.378  24.994  1.00  0.00     0.016 C
HETATM   11  C23 UNL     1     -14.563 -35.881  23.408  1.00  0.00     0.111 C
BRANCH  11  12
HETATM   12  C24 UNL     1     -15.231 -37.200  23.487  1.00  0.00     0.226 C
HETATM   13  O3  UNL     1     -14.483 -38.176  23.870  1.00  0.00    -0.273 OA
HETATM   14  N4  UNL     1     -16.558 -37.509  23.202  1.00  0.00    -0.356 N
ATOM     15  H4  UNL     1     -17.177 -36.757  22.899  1.00  0.00     0.162 HD
BRANCH  14  16
HETATM   16  C25 UNL     1     -17.107 -38.857  23.316  1.00  0.00     0.084 C
HETATM   17  C26 UNL     1     -18.058 -39.213  22.220  1.00  0.00     0.025 C
HETATM   18  C27 UNL     1     -19.132 -40.198  22.693  1.00  0.00     0.002 C
HETATM   19  C28 UNL     1     -20.039 -39.566  23.741  1.00  0.00     0.000 C
HETATM   20  C29 UNL     1     -19.287 -38.387  24.336  1.00  0.00     0.002 C
HETATM   21  C30 UNL     1     -17.894 -38.884  24.632  1.00  0.00     0.025 C
ENDBRANCH  14  16
ENDBRANCH  11  12
ENDBRANCH   3   4
ENDBRANCH   2   3
ENDBRANCH   1   2
BRANCH   1  22
HETATM   22  N1  UNL     1     -17.527 -33.051  20.828  1.00  0.00    -0.343 N
HETATM   23  C10 UNL     1     -18.827 -32.594  20.618  1.00  0.00     0.316 C
HETATM   24  O1  UNL     1     -19.045 -31.454  20.164  1.00  0.00    -0.247 OA
HETATM   25  N2  UNL     1     -19.935 -33.424  20.918  1.00  0.00    -0.336 N
ATOM     26  H2  UNL     1     -19.739 -34.355  21.286  1.00  0.00     0.164 HD
ATOM     27  H1  UNL     1     -17.427 -33.993  21.205  1.00  0.00     0.164 HD
BRANCH  25  28
HETATM   28  C11 UNL     1     -21.316 -33.058  20.744  1.00  0.00     0.111 C
HETATM   29  C12 UNL     1     -21.851 -33.485  19.413  1.00  0.00     0.052 C
HETATM   30  C13 UNL     1     -22.776 -34.629  19.734  1.00  0.00     0.089 C
HETATM   31  C14 UNL     1     -22.772 -35.732  18.727  1.00  0.00     0.026 C
HETATM   32  N3  UNL     1     -22.343 -35.031  21.046  1.00  0.00    -0.341 N
HETATM   33  C15 UNL     1     -23.036 -37.090  19.324  1.00  0.00     0.011 C
HETATM   34  C16 UNL     1     -22.077 -37.455  20.405  1.00  0.00     0.103 C
HETATM   35  C17 UNL     1     -22.098 -36.376  21.429  1.00  0.00     0.220 C
HETATM   36  O2  UNL     1     -21.889 -36.711  22.630  1.00  0.00    -0.273 OA
HETATM   37  C18 UNL     1     -22.199 -33.790  21.786  1.00  0.00     0.110 C
BRANCH  37  38
HETATM   38  C19 UNL     1     -23.427 -33.019  22.052  1.00  0.00     0.031 C
BRANCH  38  39
HETATM   39  C20 UNL     1     -23.364 -31.767  22.816  1.00  0.00    -0.021 C
HETATM   40  C21 UNL     1     -23.779 -30.611  21.855  1.00  0.00     0.009 C
HETATM   41  C22 UNL     1     -24.329 -31.709  23.959  1.00  0.00     0.009 C
ENDBRANCH  38  39
ENDBRANCH  37  38
ENDBRANCH  25  28
ENDBRANCH   1  22
TORSDOF 9
ENDMDL