MODEL 1
REMARK VINA RESULT: -8.050428729      0.000      0.000
REMARK  9 active torsions:
REMARK  status: ('A' for Active; 'I' for Inactive)
REMARK    1  A    between atoms: C2_2  and  N1_3
REMARK       I    between atoms: N1_3  and  C3_5
REMARK       I    between atoms: C3_5  and  N2_7
REMARK    2  A    between atoms: N2_7  and  C5_9
REMARK    3  A    between atoms: C5_9  and  C6_10
REMARK    4  A    between atoms: C6_10  and  C7_11
REMARK    5  A    between atoms: C7_11  and  C8_12
REMARK    6  A    between atoms: C8_12  and  C9_13
REMARK    7  A    between atoms: C9_13  and  C10_14
REMARK    8  A    between atoms: C10_14  and  C11_15
REMARK       I    between atoms: N4_18  and  C12_20
REMARK    9  A    between atoms: C12_20  and  C13_22
ROOT
HETATM    1  C13 UNL     1     -13.765 -35.047  25.232  1.00  0.00     0.042 C
HETATM    2  C14 UNL     1     -14.007 -35.727  26.591  1.00  0.00     0.026 C
HETATM    3  C15 UNL     1     -14.035 -33.577  25.438  1.00  0.00     0.020 C
HETATM    4  C16 UNL     1     -15.223 -33.218  24.573  1.00  0.00     0.011 C
HETATM    5  C17 UNL     1     -15.343 -34.294  23.543  1.00  0.00    -0.031 C
HETATM    6  C18 UNL     1     -14.538 -33.884  22.353  1.00  0.00     0.016 C
HETATM    7  C19 UNL     1     -14.751 -35.484  24.279  1.00  0.00     0.012 C
HETATM    8  C20 UNL     1     -14.439 -36.502  23.248  1.00  0.00     0.007 C
HETATM    9  C21 UNL     1     -15.800 -36.982  22.722  1.00  0.00     0.006 C
HETATM   10  C22 UNL     1     -16.697 -35.895  22.274  1.00  0.00     0.000 C
HETATM   11  C23 UNL     1     -18.080 -36.473  22.071  1.00  0.00     0.063 C
HETATM   12  C24 UNL     1     -19.058 -35.364  21.966  1.00  0.00     0.017 A
HETATM   13  N5  UNL     1     -20.394 -35.415  21.763  1.00  0.00    -0.358 N
ATOM     14  H5  UNL     1     -20.927 -36.277  21.649  1.00  0.00     0.166 HD
HETATM   15  C25 UNL     1     -20.927 -34.184  21.732  1.00  0.00     0.043 A
HETATM   16  C26 UNL     1     -22.224 -33.699  21.558  1.00  0.00     0.033 A
HETATM   17  C27 UNL     1     -22.504 -32.353  21.568  1.00  0.00     0.044 A
HETATM   18  C28 UNL     1     -21.467 -31.458  21.758  1.00  0.00     0.117 A
HETATM   19  F1  UNL     1     -21.714 -30.112  21.773  1.00  0.00    -0.206 F
HETATM   20  C29 UNL     1     -20.197 -31.932  21.930  1.00  0.00     0.056 A
HETATM   21  C30 UNL     1     -19.899 -33.293  21.919  1.00  0.00     0.002 A
HETATM   22  C31 UNL     1     -18.751 -34.029  22.064  1.00  0.00    -0.022 A
HETATM   23  C32 UNL     1     -17.331 -33.572  22.301  1.00  0.00     0.052 C
HETATM   24  C33 UNL     1     -16.727 -34.681  23.179  1.00  0.00    -0.028 C
HETATM   25  C34 UNL     1     -17.645 -34.862  24.344  1.00  0.00     0.016 C
ENDROOT
BRANCH   1  26
HETATM   26  C12 UNL     1     -12.322 -35.301  24.945  1.00  0.00     0.230 C
HETATM   27  N4  UNL     1     -11.758 -36.418  25.445  1.00  0.00    -0.334 N
HETATM   28  C8  UNL     1     -10.911 -37.283  25.518  1.00  0.00    -0.010 C
ATOM     29  H4  UNL     1     -12.415 -36.689  26.177  1.00  0.00     0.168 HD
HETATM   30  O3  UNL     1     -11.701 -34.456  24.243  1.00  0.00    -0.272 OA
BRANCH  28  31
HETATM   31  C7  UNL     1     -11.114 -38.347  26.572  1.00  0.00     0.054 C
BRANCH  31  32
HETATM   32  C6  UNL     1     -11.798 -39.558  26.134  1.00  0.00     0.026 C
BRANCH  32  33
HETATM   33  C5  UNL     1     -13.231 -39.704  25.914  1.00  0.00     0.127 C
BRANCH  33  34
HETATM   34  N2  UNL     1     -14.055 -39.863  27.077  1.00  0.00    -0.339 N
HETATM   35  C3  UNL     1     -15.389 -39.314  27.092  1.00  0.00     0.317 C
HETATM   36  N1  UNL     1     -15.941 -38.657  25.991  1.00  0.00    -0.343 N
HETATM   37  O1  UNL     1     -16.078 -39.434  28.131  1.00  0.00    -0.247 OA
ATOM     38  H1  UNL     1     -15.373 -38.561  25.148  1.00  0.00     0.164 HD
HETATM   39  C4  UNL     1     -13.607 -40.518  28.277  1.00  0.00     0.154 C
BRANCH  36  40
HETATM   40  C2  UNL     1     -17.289 -38.101  25.988  1.00  0.00     0.120 C
HETATM   41  C1  UNL     1     -18.189 -38.804  25.014  1.00  0.00     0.026 C
ENDBRANCH  36  40
ENDBRANCH  33  34
ENDBRANCH  32  33
ENDBRANCH  31  32
ENDBRANCH  28  31
BRANCH  28  42
HETATM   42  C9  UNL     1      -9.725 -37.309  24.663  1.00  0.00     0.061 C
BRANCH  42  43
HETATM   43  C10 UNL     1     -10.042 -37.475  23.183  1.00  0.00     0.105 C
BRANCH  43  44
HETATM   44  C11 UNL     1     -10.608 -38.758  22.807  1.00  0.00     0.231 C
HETATM   45  N3  UNL     1     -11.852 -38.812  22.130  1.00  0.00    -0.062 NA
HETATM   46  O2  UNL     1     -10.046 -39.833  23.057  1.00  0.00    -0.277 OA
ENDBRANCH  43  44
ENDBRANCH  42  43
ENDBRANCH  28  42
ENDBRANCH   1  26
TORSDOF 9
ENDMDL