MODEL 5
REMARK VINA RESULT: -8.629223268      2.232      2.917
REMARK  9 active torsions:
REMARK  status: ('A' for Active; 'I' for Inactive)
REMARK    1  A    between atoms: C7_8  and  C8_9
REMARK    2  A    between atoms: N2_16  and  C12_17
REMARK    3  A    between atoms: C12_17  and  C13_18
REMARK    4  A    between atoms: C13_18  and  C14_19
REMARK    5  A    between atoms: C14_19  and  N3_20
REMARK    6  A    between atoms: N3_20  and  C17_23
REMARK    7  A    between atoms: C17_23  and  C18_24
REMARK    8  A    between atoms: C18_24  and  C19_25
REMARK    9  A    between atoms: C19_25  and  C20_26
REMARK       I    between atoms: N4_28  and  C22_29
ROOT
HETATM    1  C8  UNL     1     -15.557 -36.509  22.477  1.00  0.00     0.124 C
HETATM    2  C9  UNL     1     -14.817 -37.813  22.572  1.00  0.00     0.062 C
HETATM    3  C10 UNL     1     -15.465 -39.080  22.193  1.00  0.00     0.044 C
HETATM    4  N1  UNL     1     -16.681 -38.904  21.475  1.00  0.00    -0.333 N
ATOM      5  H1  UNL     1     -16.907 -39.456  20.648  1.00  0.00     0.165 HD
HETATM    6  C11 UNL     1     -17.570 -37.900  21.990  1.00  0.00     0.319 C
HETATM    7  O1  UNL     1     -18.825 -38.125  21.913  1.00  0.00    -0.247 OA
HETATM    8  N2  UNL     1     -16.999 -36.736  22.551  1.00  0.00    -0.325 N
HETATM    9  C25 UNL     1     -15.712 -39.980  23.396  1.00  0.00     0.015 C
HETATM   10  C26 UNL     1     -14.444 -40.204  24.198  1.00  0.00     0.012 C
HETATM   11  C27 UNL     1     -13.405 -40.774  23.287  1.00  0.00    -0.013 C
HETATM   12  C28 UNL     1     -13.868 -42.168  22.881  1.00  0.00     0.009 C
HETATM   13  C29 UNL     1     -15.156 -42.042  22.133  1.00  0.00    -0.013 C
HETATM   14  C30 UNL     1     -16.196 -41.314  22.949  1.00  0.00     0.012 C
HETATM   15  C31 UNL     1     -14.962 -41.194  20.883  1.00  0.00     0.012 C
HETATM   16  C32 UNL     1     -14.482 -39.846  21.290  1.00  0.00     0.015 C
HETATM   17  C33 UNL     1     -13.179 -39.987  22.039  1.00  0.00     0.012 C
ENDROOT
BRANCH   8  18
HETATM   18  C12 UNL     1     -17.882 -35.816  23.183  1.00  0.00     0.130 C
BRANCH  18  19
HETATM   19  C13 UNL     1     -18.126 -34.547  22.446  1.00  0.00     0.048 C
BRANCH  19  20
HETATM   20  C14 UNL     1     -19.177 -34.678  21.384  1.00  0.00     0.238 C
BRANCH  20  21
HETATM   21  N3  UNL     1     -19.333 -33.359  20.720  1.00  0.00    -0.075 N
HETATM   22  C15 UNL     1     -18.028 -32.775  20.519  1.00  0.00     0.272 C
HETATM   23  C16 UNL     1     -19.913 -33.620  19.432  1.00  0.00     0.272 C
BRANCH  21  24
HETATM   24  C17 UNL     1     -20.181 -32.529  21.506  1.00  0.00     0.236 C
BRANCH  24  25
HETATM   25  C18 UNL     1     -21.000 -31.595  20.661  1.00  0.00     0.030 C
BRANCH  25  26
HETATM   26  C19 UNL     1     -22.476 -31.846  20.999  1.00  0.00     0.028 C
BRANCH  26  27
HETATM   27  C20 UNL     1     -22.581 -31.891  22.508  1.00  0.00     0.094 C
HETATM   28  C21 UNL     1     -22.818 -30.475  22.966  1.00  0.00     0.150 C
HETATM   29  N4  UNL     1     -23.577 -30.366  24.167  1.00  0.00    -0.352 N
HETATM   30  C22 UNL     1     -23.590 -29.138  24.849  1.00  0.00     0.184 C
HETATM   31  C23 UNL     1     -24.327 -31.483  24.696  1.00  0.00     0.144 C
HETATM   32  N5  UNL     1     -24.672 -28.686  25.348  1.00  0.00    -0.374 N
HETATM   33  N6  UNL     1     -22.405 -28.374  25.000  1.00  0.00    -0.064 NA
ATOM     34  H52 UNL     1     -25.525 -29.235  25.240  1.00  0.00     0.158 HD
ATOM     35  H51 UNL     1     -24.682 -27.794  25.843  1.00  0.00     0.158 HD
HETATM   36  C24 UNL     1     -24.769 -32.303  23.473  1.00  0.00     0.134 C
HETATM   37  N7  UNL     1     -23.597 -32.815  22.859  1.00  0.00    -0.414 N
ATOM     38  H7  UNL     1     -23.490 -33.813  22.675  1.00  0.00     0.153 HD
ENDBRANCH  26  27
ENDBRANCH  25  26
ENDBRANCH  24  25
ENDBRANCH  21  24
ENDBRANCH  20  21
ENDBRANCH  19  20
ENDBRANCH  18  19
ENDBRANCH   8  18
BRANCH   1  39
HETATM   39  C7  UNL     1     -15.150 -35.750  23.719  1.00  0.00    -0.029 A
HETATM   40  C2  UNL     1     -14.891 -34.415  23.672  1.00  0.00    -0.052 A
HETATM   41  C1  UNL     1     -14.690 -33.664  22.408  1.00  0.00     0.049 C
HETATM   42  C3  UNL     1     -14.670 -33.703  24.858  1.00  0.00     0.031 A
HETATM   43  C4  UNL     1     -14.701 -34.304  26.089  1.00  0.00     0.034 A
HETATM   44 CL1  UNL     1     -14.386 -33.365  27.536  1.00  0.00    -0.084 Cl
HETATM   45  C5  UNL     1     -14.963 -35.658  26.141  1.00  0.00     0.024 A
HETATM   46  C6  UNL     1     -15.182 -36.357  24.952  1.00  0.00     0.011 A
ENDBRANCH   1  39
TORSDOF 9
ENDMDL