MODEL 2
REMARK VINA RESULT: -9.260717104      1.220      1.752
REMARK  15 active torsions:
REMARK  status: ('A' for Active; 'I' for Inactive)
REMARK    1  A    between atoms: C2_2  and  O1_3
REMARK    2  A    between atoms: O1_3  and  C3_4
REMARK    3  A    between atoms: C3_4  and  C4_6
REMARK    4  A    between atoms: C4_6  and  C5_7
REMARK    5  A    between atoms: C5_7  and  C6_8
REMARK    6  A    between atoms: C6_8  and  N1_9
REMARK    7  A    between atoms: C6_8  and  C30_44
REMARK       I    between atoms: N1_9  and  C7_11
REMARK    8  A    between atoms: C7_11  and  C8_13
REMARK    9  A    between atoms: C8_13  and  C9_14
REMARK   10  A    between atoms: C9_14  and  C10_15
REMARK   11  A    between atoms: C10_15  and  C11_16
REMARK   12  A    between atoms: C11_16  and  C12_17
REMARK   13  A    between atoms: C12_17  and  C13_18
REMARK   14  A    between atoms: C15_23  and  C16_24
REMARK   15  A    between atoms: C16_24  and  C17_25
ROOT
HETATM    1  C13 UNL     1      13.247  22.328   5.869  1.00  0.00     0.176 C
HETATM    2  N2  UNL     1      13.302  23.642   6.468  1.00  0.00    -0.347 N
ATOM      3  H2  UNL     1      14.149  23.787   7.018  1.00  0.00     0.163 HD
HETATM    4  C14 UNL     1      12.481  24.736   6.467  1.00  0.00     0.224 C
HETATM    5  O4  UNL     1      12.917  25.843   6.035  1.00  0.00    -0.273 OA
HETATM    6  C15 UNL     1      11.047  24.911   6.913  1.00  0.00     0.100 C
HETATM    7  C23 UNL     1      10.148  25.283   5.813  1.00  0.00     0.091 C
HETATM    8  C24 UNL     1       8.841  24.533   5.898  1.00  0.00     0.033 C
HETATM    9  N3  UNL     1      10.758  25.183   4.496  1.00  0.00    -0.377 N
ATOM     10  H3  UNL     1      11.300  26.004   4.227  1.00  0.00     0.160 HD
HETATM   11  C25 UNL     1      10.740  24.192   3.546  1.00  0.00     0.101 C
HETATM   12  S1  UNL     1      10.503  24.684   1.961  1.00  0.00    -0.063 SA
HETATM   13  C26 UNL     1      10.907  22.730   3.609  1.00  0.00     0.078 C
HETATM   14  C27 UNL     1       9.738  22.142   2.763  1.00  0.00     0.046 C
HETATM   15  C28 UNL     1      12.133  22.369   2.745  1.00  0.00     0.046 C
HETATM   16  N4  UNL     1      10.868  22.101   4.862  1.00  0.00    -0.344 N
ATOM     17  H4  UNL     1       9.950  21.729   5.108  1.00  0.00     0.163 HD
HETATM   18  C29 UNL     1      11.848  21.884   5.845  1.00  0.00     0.241 C
HETATM   19  O5  UNL     1      11.487  21.198   6.878  1.00  0.00    -0.271 OA
ENDROOT
BRANCH   1  20
HETATM   20  C12 UNL     1      14.030  21.336   6.771  1.00  0.00     0.035 C
BRANCH  20  21
HETATM   21  C11 UNL     1      14.598  21.949   7.984  1.00  0.00     0.002 C
BRANCH  21  22
HETATM   22  C10 UNL     1      15.900  21.306   8.436  1.00  0.00     0.001 C
BRANCH  22  23
HETATM   23  C9  UNL     1      16.839  21.079   7.309  1.00  0.00     0.009 C
BRANCH  23  24
HETATM   24  C8  UNL     1      17.811  19.973   7.529  1.00  0.00     0.103 C
BRANCH  24  25
HETATM   25  C7  UNL     1      18.198  19.250   6.310  1.00  0.00     0.222 C
HETATM   26  N1  UNL     1      18.008  17.827   6.212  1.00  0.00    -0.325 N
ATOM     27  H1  UNL     1      17.598  17.339   7.008  1.00  0.00     0.169 HD
HETATM   28  O3  UNL     1      18.697  19.795   5.309  1.00  0.00    -0.273 OA
BRANCH  26  29
HETATM   29  C6  UNL     1      18.368  17.052   5.048  1.00  0.00     0.089 C
BRANCH  29  30
HETATM   30  C5  UNL     1      17.382  17.182   3.945  1.00  0.00     0.074 C
BRANCH  30  31
HETATM   31  C4  UNL     1      17.826  17.485   2.589  1.00  0.00     0.117 C
BRANCH  31  32
HETATM   32  C3  UNL     1      16.872  17.732   1.512  1.00  0.00     0.259 C
HETATM   33  O2  UNL     1      16.552  17.001   0.561  1.00  0.00    -0.265 OA
BRANCH  32  34
HETATM   34  O1  UNL     1      16.176  18.986   1.502  1.00  0.00    -0.322 OA
BRANCH  34  35
HETATM   35  C2  UNL     1      14.904  19.112   2.079  1.00  0.00     0.174 C
HETATM   36  C1  UNL     1      14.992  19.936   3.358  1.00  0.00     0.034 C
ENDBRANCH  34  35
ENDBRANCH  32  34
ENDBRANCH  31  32
ENDBRANCH  30  31
ENDBRANCH  29  30
BRANCH  29  37
HETATM   37  C30 UNL     1      18.892  15.739   5.347  1.00  0.00     0.222 C
HETATM   38  O6  UNL     1      18.364  14.925   6.173  1.00  0.00    -0.643 OA
HETATM   39  O7  UNL     1      20.068  15.315   4.694  1.00  0.00    -0.643 OA
ENDBRANCH  29  37
ENDBRANCH  26  29
ENDBRANCH  24  25
ENDBRANCH  23  24
ENDBRANCH  22  23
ENDBRANCH  21  22
ENDBRANCH  20  21
ENDBRANCH   1  20
BRANCH   6  40
HETATM   40  C16 UNL     1      11.099  25.788   8.082  1.00  0.00     0.020 C
BRANCH  40  41
HETATM   41  C17 UNL     1      10.006  26.466   8.740  1.00  0.00    -0.014 C
HETATM   42  C18 UNL     1      10.000  26.869  10.149  1.00  0.00     0.005 C
HETATM   43  C19 UNL     1       9.305  28.215  10.384  1.00  0.00     0.000 C
HETATM   44  C20 UNL     1       7.943  28.273   9.780  1.00  0.00     0.000 C
HETATM   45  C21 UNL     1       8.065  27.911   8.318  1.00  0.00     0.000 C
HETATM   46  C22 UNL     1       9.495  27.674   7.913  1.00  0.00     0.005 C
ENDBRANCH  40  41
ENDBRANCH   6  40
TORSDOF 15
ENDMDL