MODEL 5
REMARK VINA RESULT: -8.521502931      3.277     11.615
REMARK  17 active torsions:
REMARK  status: ('A' for Active; 'I' for Inactive)
REMARK    1  A    between atoms: C2_2  and  C3_3
REMARK    2  A    between atoms: C3_3  and  C4_4
REMARK    3  A    between atoms: C4_4  and  C5_5
REMARK    4  A    between atoms: C5_5  and  C6_6
REMARK    5  A    between atoms: C6_6  and  N1_7
REMARK    6  A    between atoms: C7_8  and  C8_9
REMARK       I    between atoms: N3_15  and  C12_17
REMARK       I    between atoms: C12_17  and  N4_19
REMARK    7  A    between atoms: N4_19  and  C13_21
REMARK    8  A    between atoms: C13_21  and  C14_22
REMARK    9  A    between atoms: C14_22  and  C15_23
REMARK   10  A    between atoms: C15_23  and  C16_24
REMARK   11  A    between atoms: C16_24  and  N5_25
REMARK   12  A    between atoms: C16_24  and  C28_44
REMARK       I    between atoms: N5_25  and  C17_27
REMARK       I    between atoms: C17_27  and  N6_29
REMARK   13  A    between atoms: N6_29  and  C18_31
REMARK   14  A    between atoms: C18_31  and  C19_32
REMARK   15  A    between atoms: C18_31  and  C24_40
REMARK       I    between atoms: C19_32  and  N7_34
REMARK   16  A    between atoms: N7_34  and  C20_36
REMARK   17  A    between atoms: C28_44  and  O5_46
ROOT
HETATM    1  C15 UNL     1       9.734  26.159   8.973  1.00  0.00     0.037 C
ENDROOT
BRANCH   1   2
HETATM    2  C14 UNL     1      11.212  26.317   8.707  1.00  0.00     0.022 C
BRANCH   2   3
HETATM    3  C13 UNL     1      11.596  25.746   7.353  1.00  0.00     0.124 C
BRANCH   3   4
HETATM    4  N4  UNL     1      12.852  25.039   7.440  1.00  0.00    -0.343 N
HETATM    5  C12 UNL     1      12.947  23.594   7.301  1.00  0.00     0.321 C
HETATM    6  N3  UNL     1      14.129  22.919   7.383  1.00  0.00    -0.290 N
HETATM    7  O1  UNL     1      11.848  23.020   7.101  1.00  0.00    -0.247 OA
HETATM    8  C11 UNL     1      14.769  22.043   6.778  1.00  0.00     0.178 A
ATOM      9  H3  UNL     1      14.653  23.231   8.200  1.00  0.00     0.172 HD
HETATM   10  N2  UNL     1      15.984  21.701   7.312  1.00  0.00    -0.346 N
HETATM   11  C30 UNL     1      14.353  21.410   5.642  1.00  0.00     0.292 A
HETATM   12  C10 UNL     1      16.704  20.774   6.704  1.00  0.00     0.115 A
ATOM     13  H2  UNL     1      16.326  22.153   8.160  1.00  0.00     0.167 HD
HETATM   14  C7  UNL     1      16.273  20.126   5.537  1.00  0.00     0.030 A
HETATM   15  N1  UNL     1      15.100  20.440   5.002  1.00  0.00    -0.314 N
HETATM   16  O6  UNL     1      13.249  21.669   5.096  1.00  0.00    -0.264 OA
ATOM     17  H4  UNL     1      13.706  25.573   7.605  1.00  0.00     0.164 HD
BRANCH  14  18
HETATM   18  C8  UNL     1      17.191  19.132   4.977  1.00  0.00     0.054 C
HETATM   19  C9  UNL     1      18.475  19.131   5.757  1.00  0.00     0.011 C
ENDBRANCH  14  18
BRANCH  15  20
HETATM   20  C6  UNL     1      14.597  19.779   3.840  1.00  0.00     0.132 C
BRANCH  20  21
HETATM   21  C5  UNL     1      14.793  20.434   2.516  1.00  0.00     0.020 C
BRANCH  21  22
HETATM   22  C4  UNL     1      15.043  19.523   1.358  1.00  0.00     0.002 C
BRANCH  22  23
HETATM   23  C3  UNL     1      15.379  18.107   1.833  1.00  0.00    -0.000 C
BRANCH  23  24
HETATM   24  C2  UNL     1      16.500  17.480   1.077  1.00  0.00    -0.005 C
HETATM   25  C1  UNL     1      17.554  17.089   2.125  1.00  0.00     0.005 C
ENDBRANCH  23  24
ENDBRANCH  22  23
ENDBRANCH  21  22
ENDBRANCH  20  21
ENDBRANCH  15  20
ENDBRANCH   3   4
ENDBRANCH   2   3
ENDBRANCH   1   2
BRANCH   1  26
HETATM   26  C16 UNL     1       8.865  26.716   7.891  1.00  0.00     0.186 C
BRANCH  26  27
HETATM   27  N5  UNL     1       8.495  25.627   7.002  1.00  0.00    -0.329 N
HETATM   28  C17 UNL     1       8.581  25.758   5.587  1.00  0.00     0.317 C
HETATM   29  O2  UNL     1       8.993  26.869   5.140  1.00  0.00    -0.247 OA
HETATM   30  N6  UNL     1       8.233  24.727   4.698  1.00  0.00    -0.329 N
ATOM     31  H6  UNL     1       7.905  23.827   5.050  1.00  0.00     0.165 HD
ATOM     32  H5  UNL     1       8.165  24.748   7.401  1.00  0.00     0.165 HD
BRANCH  30  33
HETATM   33  C18 UNL     1       8.350  24.968   3.246  1.00  0.00     0.185 C
BRANCH  33  34
HETATM   34  C19 UNL     1       6.976  24.906   2.713  1.00  0.00     0.241 C
HETATM   35  O3  UNL     1       6.707  25.447   1.618  1.00  0.00    -0.271 OA
HETATM   36  N7  UNL     1       5.956  24.239   3.421  1.00  0.00    -0.351 N
ATOM     37  H7  UNL     1       6.163  23.787   4.312  1.00  0.00     0.163 HD
BRANCH  36  38
HETATM   38  C20 UNL     1       4.596  24.197   2.872  1.00  0.00     0.022 C
HETATM   39  C21 UNL     1       4.687  23.991   1.396  1.00  0.00     0.037 C
HETATM   40  C22 UNL     1       3.906  25.492   3.206  1.00  0.00     0.037 C
HETATM   41  C23 UNL     1       3.899  23.017   3.539  1.00  0.00     0.037 C
ENDBRANCH  36  38
ENDBRANCH  33  34
BRANCH  33  42
HETATM   42  C24 UNL     1       9.218  23.820   2.757  1.00  0.00    -0.022 C
HETATM   43  C25 UNL     1      10.021  23.241   3.927  1.00  0.00     0.017 C
HETATM   44  C26 UNL     1       8.413  22.704   2.165  1.00  0.00     0.017 C
HETATM   45  C27 UNL     1      10.245  24.274   1.750  1.00  0.00     0.017 C
ENDBRANCH  33  42
ENDBRANCH  30  33
ENDBRANCH  26  27
BRANCH  26  46
HETATM   46  C28 UNL     1       7.630  27.351   8.380  1.00  0.00     0.281 C
HETATM   47  O4  UNL     1       7.727  28.221   9.289  1.00  0.00    -0.263 OA
BRANCH  46  48
HETATM   48  O5  UNL     1       6.355  27.085   7.936  1.00  0.00    -0.325 OA
HETATM   49  C29 UNL     1       5.579  28.090   7.285  1.00  0.00     0.213 C
ENDBRANCH  46  48
ENDBRANCH  26  46
ENDBRANCH   1  26
TORSDOF 17
ENDMDL