MODEL 5
REMARK VINA RESULT: -8.895385502      1.966      3.306
REMARK  14 active torsions:
REMARK  status: ('A' for Active; 'I' for Inactive)
REMARK    1  A    between atoms: C2_2  and  N1_3
REMARK    2  A    between atoms: N1_3  and  C3_4
REMARK    3  A    between atoms: N1_3  and  C5_6
REMARK    4  A    between atoms: C5_6  and  C6_7
REMARK    5  A    between atoms: C6_7  and  C7_8
REMARK    6  A    between atoms: C7_8  and  C8_9
REMARK    7  A    between atoms: C8_9  and  C9_10
REMARK    8  A    between atoms: C9_10  and  N2_11
REMARK    9  A    between atoms: C12_15  and  N3_16
REMARK       I    between atoms: N3_16  and  C13_18
REMARK   10  A    between atoms: C13_18  and  C14_20
REMARK   11  A    between atoms: C14_20  and  C15_21
REMARK       I    between atoms: C15_21  and  N4_23
REMARK   12  A    between atoms: N4_23  and  C16_25
REMARK       I    between atoms: N7_31  and  C19_33
REMARK   13  A    between atoms: C19_33  and  C20_35
REMARK   14  A    between atoms: C20_35  and  C21_36
ROOT
HETATM    1  C15 UNL     1      11.746  22.658   5.500  1.00  0.00     0.231 C
HETATM    2  O3  UNL     1      11.359  21.766   6.284  1.00  0.00    -0.273 OA
HETATM    3  N4  UNL     1      11.389  23.996   5.414  1.00  0.00    -0.322 N
ATOM      4  H4  UNL     1      11.872  24.472   4.653  1.00  0.00     0.169 HD
ENDROOT
BRANCH   1   5
HETATM    5  C14 UNL     1      12.789  22.138   4.487  1.00  0.00     0.205 C
BRANCH   5   6
HETATM    6  C13 UNL     1      14.128  22.214   5.062  1.00  0.00     0.227 C
HETATM    7  N3  UNL     1      14.365  22.217   6.476  1.00  0.00    -0.349 N
ATOM      8  H3  UNL     1      13.569  22.156   7.110  1.00  0.00     0.163 HD
HETATM    9  O2  UNL     1      15.158  22.276   4.348  1.00  0.00    -0.273 OA
BRANCH   7  10
HETATM   10  C12 UNL     1      15.685  22.302   7.025  1.00  0.00     0.155 C
HETATM   11  C11 UNL     1      15.749  23.035   8.338  1.00  0.00     0.135 C
HETATM   12  C10 UNL     1      15.382  21.950   9.326  1.00  0.00     0.227 C
HETATM   13  N2  UNL     1      15.908  20.721   8.804  1.00  0.00    -0.310 N
HETATM   14  O1  UNL     1      14.750  22.118  10.369  1.00  0.00    -0.273 OA
HETATM   15  C30 UNL     1      16.191  20.938   7.428  1.00  0.00     0.105 C
HETATM   16  S1  UNL     1      16.936  19.914   6.436  1.00  0.00    -0.063 SA
BRANCH  13  17
HETATM   17  C9  UNL     1      16.118  19.472   9.476  1.00  0.00     0.133 C
BRANCH  17  18
HETATM   18  C8  UNL     1      17.207  19.701  10.518  1.00  0.00     0.020 C
BRANCH  18  19
HETATM   19  C7  UNL     1      18.478  18.989  10.146  1.00  0.00     0.003 C
BRANCH  19  20
HETATM   20  C6  UNL     1      18.955  18.136  11.283  1.00  0.00     0.030 C
BRANCH  20  21
HETATM   21  C5  UNL     1      19.020  16.700  10.875  1.00  0.00     0.272 C
BRANCH  21  22
HETATM   22  N1  UNL     1      17.739  16.149  10.482  1.00  0.00     0.087 N
BRANCH  22  23
HETATM   23  C2  UNL     1      16.953  15.747  11.620  1.00  0.00     0.268 C
HETATM   24  C1  UNL     1      15.501  16.043  11.406  1.00  0.00     0.037 C
ENDBRANCH  22  23
BRANCH  22  25
HETATM   25  C3  UNL     1      18.044  15.002   9.634  1.00  0.00     0.268 C
HETATM   26  C4  UNL     1      18.788  15.378   8.390  1.00  0.00     0.037 C
ENDBRANCH  22  25
ENDBRANCH  21  22
ENDBRANCH  20  21
ENDBRANCH  19  20
ENDBRANCH  18  19
ENDBRANCH  17  18
ENDBRANCH  13  17
ENDBRANCH   7  10
ENDBRANCH   5   6
ENDBRANCH   1   5
BRANCH   3  27
HETATM   27  C16 UNL     1      10.537  24.848   6.107  1.00  0.00     0.101 A
HETATM   28  C17 UNL     1       9.259  25.135   5.526  1.00  0.00     0.146 A
HETATM   29  N5  UNL     1       8.937  24.487   4.309  1.00  0.00    -0.080 NA
HETATM   30  N6  UNL     1       8.393  25.967   6.119  1.00  0.00    -0.329 N
HETATM   31  C18 UNL     1       8.636  26.588   7.273  1.00  0.00     0.117 A
ATOM     32  H6  UNL     1       7.496  26.135   5.662  1.00  0.00     0.168 HD
HETATM   33  N7  UNL     1       7.883  27.367   7.899  1.00  0.00    -0.313 N
HETATM   34  C27 UNL     1       9.882  26.330   7.873  1.00  0.00     0.009 A
HETATM   35  C19 UNL     1       6.615  27.803   7.595  1.00  0.00     0.223 C
ATOM     36  H7  UNL     1       8.269  27.734   8.769  1.00  0.00     0.170 HD
HETATM   37  O4  UNL     1       6.460  29.065   7.373  1.00  0.00    -0.273 OA
HETATM   38  C28 UNL     1      10.203  26.994   9.133  1.00  0.00     0.054 C
HETATM   39  C29 UNL     1      10.806  25.471   7.289  1.00  0.00     0.086 A
HETATM   40  N8  UNL     1      11.998  25.314   8.035  1.00  0.00    -0.099 NA
BRANCH  35  41
HETATM   41  C20 UNL     1       5.405  26.959   7.503  1.00  0.00     0.108 C
BRANCH  41  42
HETATM   42  C21 UNL     1       4.284  27.840   6.925  1.00  0.00    -0.006 C
HETATM   43  C22 UNL     1       3.300  28.093   8.030  1.00  0.00     0.005 C
HETATM   44  C23 UNL     1       1.989  27.450   7.758  1.00  0.00     0.000 C
HETATM   45  C24 UNL     1       2.211  26.031   7.270  1.00  0.00     0.000 C
HETATM   46  C25 UNL     1       2.911  25.990   5.954  1.00  0.00     0.000 C
HETATM   47  C26 UNL     1       3.688  27.262   5.678  1.00  0.00     0.005 C
ENDBRANCH  41  42
ENDBRANCH  35  41
ENDBRANCH   3  27
TORSDOF 14
ENDMDL