MODEL 3
REMARK VINA RESULT: -7.927188826      2.926     11.954
REMARK  19 active torsions:
REMARK  status: ('A' for Active; 'I' for Inactive)
REMARK    1  A    between atoms: C2_2  and  C3_3
REMARK    2  A    between atoms: C2_2  and  C12_21
REMARK    3  A    between atoms: C3_3  and  C4_4
REMARK    4  A    between atoms: C4_4  and  C5_5
REMARK    5  A    between atoms: C5_5  and  C6_6
REMARK    6  A    between atoms: C5_5  and  N2_18
REMARK    7  A    between atoms: C6_6  and  O1_7
REMARK    8  A    between atoms: C6_6  and  C7_9
REMARK    9  A    between atoms: C7_9  and  C8_10
REMARK   10  A    between atoms: C8_10  and  N1_11
REMARK   11  A    between atoms: C8_10  and  C9_15
REMARK   12  A    between atoms: C22_32  and  C24_34
REMARK       I    between atoms: C24_34  and  N3_36
REMARK   13  A    between atoms: N3_36  and  C25_38
REMARK   14  A    between atoms: C25_38  and  C26_39
REMARK   15  A    between atoms: C26_39  and  C27_40
REMARK   16  A    between atoms: C27_40  and  C28_41
REMARK   17  A    between atoms: C28_41  and  C29_42
REMARK   18  A    between atoms: C29_42  and  N4_43
REMARK   19  A    between atoms: C32_49  and  O6_50
ROOT
HETATM    1  C12 UNL     1      13.621  21.563   4.975  1.00  0.00     0.001 C
HETATM    2  C13 UNL     1      12.418  21.363   4.035  1.00  0.00     0.011 C
HETATM    3  C14 UNL     1      12.385  22.832   3.877  1.00  0.00     0.001 C
HETATM    4  C15 UNL     1      11.111  23.523   3.677  1.00  0.00    -0.005 C
HETATM    5  C16 UNL     1      10.159  22.560   2.949  1.00  0.00     0.006 C
HETATM    6  C17 UNL     1       9.090  23.501   2.387  1.00  0.00     0.007 C
HETATM    7  C18 UNL     1       8.312  24.025   3.532  1.00  0.00     0.015 C
HETATM    8  C19 UNL     1       9.025  24.439   4.739  1.00  0.00     0.003 C
HETATM    9  C20 UNL     1       8.827  25.961   4.829  1.00  0.00     0.085 C
HETATM   10  C21 UNL     1       8.291  26.357   3.515  1.00  0.00     0.145 C
HETATM   11  O4  UNL     1       8.477  27.413   2.957  1.00  0.00    -0.297 OA
HETATM   12  C22 UNL     1       7.500  25.226   3.021  1.00  0.00     0.101 C
HETATM   13  C23 UNL     1       7.426  25.224   1.502  1.00  0.00     0.034 C
HETATM   14  C30 UNL     1      10.453  24.087   4.903  1.00  0.00    -0.003 C
HETATM   15  C31 UNL     1      10.669  23.153   6.094  1.00  0.00     0.038 C
HETATM   16  C32 UNL     1      12.099  22.896   6.379  1.00  0.00     0.127 C
HETATM   17  C33 UNL     1      13.038  22.946   5.219  1.00  0.00    -0.010 C
HETATM   18  C34 UNL     1      13.980  24.103   5.228  1.00  0.00     0.018 C
ENDROOT
BRANCH   1  19
HETATM   19  C2  UNL     1      14.895  21.518   4.199  1.00  0.00    -0.010 C
HETATM   20  C1  UNL     1      14.705  20.792   2.852  1.00  0.00     0.010 C
BRANCH  19  21
HETATM   21  C3  UNL     1      15.996  20.712   4.892  1.00  0.00     0.034 C
BRANCH  21  22
HETATM   22  C4  UNL     1      15.731  20.701   6.320  1.00  0.00     0.005 C
BRANCH  22  23
HETATM   23  C5  UNL     1      16.411  20.845   7.392  1.00  0.00     0.055 C
BRANCH  23  24
HETATM   24  C6  UNL     1      17.645  20.247   7.760  1.00  0.00     0.072 C
BRANCH  24  25
HETATM   25  O1  UNL     1      18.691  21.014   7.582  1.00  0.00    -0.363 OA
ATOM     26  H1  UNL     1      18.826  21.657   8.269  1.00  0.00     0.217 HD
ENDBRANCH  24  25
BRANCH  24  27
HETATM   27  C7  UNL     1      17.985  18.942   8.300  1.00  0.00     0.110 C
BRANCH  27  28
HETATM   28  C8  UNL     1      17.971  18.850   9.814  1.00  0.00     0.289 C
BRANCH  28  29
HETATM   29  N1  UNL     1      18.493  20.011  10.448  1.00  0.00    -0.065 N
ATOM     30  H13 UNL     1      18.165  20.858   9.983  1.00  0.00     0.275 HD
ATOM     31  H12 UNL     1      18.065  20.148  11.364  1.00  0.00     0.275 HD
ATOM     32  H11 UNL     1      19.510  20.005  10.519  1.00  0.00     0.275 HD
ENDBRANCH  28  29
BRANCH  28  33
HETATM   33  C9  UNL     1      18.742  17.660  10.238  1.00  0.00     0.204 C
HETATM   34  O2  UNL     1      18.221  16.527  10.270  1.00  0.00    -0.646 OA
HETATM   35  O3  UNL     1      20.067  17.820  10.605  1.00  0.00    -0.646 OA
ENDBRANCH  28  33
ENDBRANCH  27  28
ENDBRANCH  24  27
ENDBRANCH  23  24
BRANCH  23  36
HETATM   36  N2  UNL     1      15.842  21.759   8.393  1.00  0.00    -0.388 N
HETATM   37  C10 UNL     1      15.134  21.248   9.545  1.00  0.00     0.149 C
HETATM   38  C11 UNL     1      15.970  23.192   8.262  1.00  0.00     0.149 C
ENDBRANCH  23  36
ENDBRANCH  22  23
ENDBRANCH  21  22
ENDBRANCH  19  21
ENDBRANCH   1  19
BRANCH  16  39
HETATM   39  O6  UNL     1      12.175  21.655   7.056  1.00  0.00    -0.395 OA
ATOM     40  H6  UNL     1      13.092  21.493   7.243  1.00  0.00     0.210 HD
ENDBRANCH  16  39
BRANCH  12  41
HETATM   41  C24 UNL     1       6.129  25.190   3.523  1.00  0.00     0.233 C
HETATM   42  O5  UNL     1       5.631  26.192   4.082  1.00  0.00    -0.272 OA
HETATM   43  N3  UNL     1       5.343  24.022   3.385  1.00  0.00    -0.360 N
ATOM     44  H3  UNL     1       5.743  23.201   2.930  1.00  0.00     0.162 HD
BRANCH  43  45
HETATM   45  C25 UNL     1       3.973  23.969   3.882  1.00  0.00     0.122 C
BRANCH  45  46
HETATM   46  C26 UNL     1       3.270  22.780   3.283  1.00  0.00     0.020 C
BRANCH  46  47
HETATM   47  C27 UNL     1       3.479  21.575   4.120  1.00  0.00     0.003 C
BRANCH  47  48
HETATM   48  C28 UNL     1       2.835  20.347   3.630  1.00  0.00     0.027 C
BRANCH  48  49
HETATM   49  C29 UNL     1       3.358  19.104   4.259  1.00  0.00     0.229 C
BRANCH  49  50
HETATM   50  N4  UNL     1       4.200  19.248   5.389  1.00  0.00    -0.079 N
ATOM     51  H43 UNL     1       5.095  18.795   5.203  1.00  0.00     0.274 HD
ATOM     52  H42 UNL     1       4.491  20.222   5.471  1.00  0.00     0.274 HD
ATOM     53  H41 UNL     1       3.840  18.927   6.288  1.00  0.00     0.274 HD
ENDBRANCH  49  50
ENDBRANCH  48  49
ENDBRANCH  47  48
ENDBRANCH  46  47
ENDBRANCH  45  46
ENDBRANCH  43  45
ENDBRANCH  12  41
TORSDOF 19
ENDMDL