MODEL 3
REMARK VINA RESULT: -8.844357541      1.893      4.836
REMARK  18 active torsions:
REMARK  status: ('A' for Active; 'I' for Inactive)
REMARK    1  A    between atoms: C2_2  and  C4_4
REMARK    2  A    between atoms: C4_4  and  C5_5
REMARK    3  A    between atoms: C5_5  and  N1_6
REMARK    4  A    between atoms: C5_5  and  C11_14
REMARK       I    between atoms: N1_6  and  C6_7
REMARK    5  A    between atoms: C6_7  and  O2_9
REMARK    6  A    between atoms: O2_9  and  C7_10
REMARK    7  A    between atoms: C11_14  and  O3_15
REMARK    8  A    between atoms: C11_14  and  N2_17
REMARK    9  A    between atoms: C17_23  and  C18_24
REMARK       I    between atoms: C18_24  and  N3_26
REMARK   10  A    between atoms: N3_26  and  C19_28
REMARK   11  A    between atoms: C19_28  and  C20_29
REMARK   12  A    between atoms: C20_29  and  C21_30
REMARK   13  A    between atoms: C21_30  and  C22_31
REMARK   14  A    between atoms: C22_31  and  C23_32
REMARK   15  A    between atoms: C23_32  and  N4_33
REMARK   16  A    between atoms: C23_32  and  C31_46
REMARK       I    between atoms: N4_33  and  C24_35
REMARK   17  A    between atoms: C24_35  and  C25_37
REMARK   18  A    between atoms: C25_37  and  C26_38
ROOT
HETATM    1  C18 UNL     1       9.955  25.622   6.384  1.00  0.00     0.264 C
HETATM    2  O4  UNL     1       9.052  24.743   6.127  1.00  0.00    -0.266 OA
HETATM    3  N3  UNL     1      11.201  25.442   5.738  1.00  0.00    -0.356 N
ATOM      4  H3  UNL     1      11.891  26.174   5.905  1.00  0.00     0.162 HD
ENDROOT
BRANCH   1   5
HETATM    5  C17 UNL     1       9.778  26.724   7.276  1.00  0.00     0.082 C
HETATM    6  N2  UNL     1       8.574  27.335   7.708  1.00  0.00    -0.324 N
HETATM    7  C12 UNL     1       8.630  28.630   8.387  1.00  0.00     0.131 C
HETATM    8  C13 UNL     1       8.526  28.444   9.893  1.00  0.00     0.020 C
HETATM    9  C14 UNL     1       9.653  27.615  10.450  1.00  0.00     0.002 C
HETATM   10  C15 UNL     1       9.842  26.298   9.710  1.00  0.00     0.006 C
HETATM   11  C16 UNL     1      10.692  26.601   8.514  1.00  0.00     0.063 C
BRANCH   6  12
HETATM   12  C11 UNL     1       7.355  26.744   7.490  1.00  0.00     0.180 C
BRANCH  12  13
HETATM   13  C5  UNL     1       6.156  27.065   6.694  1.00  0.00     0.142 C
BRANCH  13  14
HETATM   14  C4  UNL     1       4.889  27.096   7.511  1.00  0.00     0.081 C
BRANCH  14  15
HETATM   15  C2  UNL     1       4.222  28.474   7.551  1.00  0.00    -0.016 C
HETATM   16  C1  UNL     1       5.027  29.531   8.234  1.00  0.00     0.010 C
HETATM   17  C3  UNL     1       2.898  28.400   8.295  1.00  0.00     0.010 C
ENDBRANCH  14  15
ENDBRANCH  13  14
BRANCH  13  18
HETATM   18  N1  UNL     1       6.121  26.603   5.432  1.00  0.00    -0.346 NA
HETATM   19  C6  UNL     1       6.071  26.121   4.119  1.00  0.00     0.441 C
HETATM   20  O1  UNL     1       5.090  25.802   3.455  1.00  0.00    -0.221 OA
BRANCH  19  21
HETATM   21  O2  UNL     1       7.320  25.969   3.455  1.00  0.00    -0.282 OA
BRANCH  21  22
HETATM   22  C7  UNL     1       7.674  24.965   2.588  1.00  0.00     0.062 C
HETATM   23  C8  UNL     1       9.205  25.147   2.322  1.00  0.00     0.046 C
HETATM   24  C9  UNL     1       7.549  23.574   3.203  1.00  0.00     0.046 C
HETATM   25  C10 UNL     1       7.013  25.060   1.268  1.00  0.00     0.046 C
ENDBRANCH  21  22
ENDBRANCH  19  21
ENDBRANCH  13  18
ENDBRANCH  12  13
BRANCH  12  26
HETATM   26  O3  UNL     1       7.138  25.579   8.135  1.00  0.00    -0.344 OA
ATOM     27  H3  UNL     1       7.740  25.525   8.868  1.00  0.00     0.219 HD
ENDBRANCH  12  26
ENDBRANCH   6  12
ENDBRANCH   1   5
BRANCH   3  28
HETATM   28  C19 UNL     1      11.630  24.372   4.881  1.00  0.00     0.123 C
BRANCH  28  29
HETATM   29  C20 UNL     1      13.090  23.992   5.317  1.00  0.00     0.020 C
BRANCH  29  30
HETATM   30  C21 UNL     1      13.051  23.724   6.786  1.00  0.00     0.004 C
BRANCH  30  31
HETATM   31  C22 UNL     1      14.269  23.231   7.413  1.00  0.00     0.036 C
BRANCH  31  32
HETATM   32  C23 UNL     1      15.204  22.287   6.877  1.00  0.00     0.185 C
BRANCH  32  33
HETATM   33  N4  UNL     1      14.894  20.916   6.618  1.00  0.00    -0.347 N
HETATM   34  C24 UNL     1      15.022  20.456   5.268  1.00  0.00     0.218 C
HETATM   35  O5  UNL     1      15.419  21.310   4.398  1.00  0.00    -0.274 OA
ATOM     36  H4  UNL     1      14.594  20.290   7.366  1.00  0.00     0.163 HD
BRANCH  34  37
HETATM   37  C25 UNL     1      14.743  19.116   4.800  1.00  0.00     0.107 C
BRANCH  37  38
HETATM   38  C26 UNL     1      15.593  18.845   3.569  1.00  0.00    -0.003 C
HETATM   39  C27 UNL     1      16.502  17.629   3.796  1.00  0.00     0.032 C
HETATM   40  C28 UNL     1      17.652  17.739   2.839  1.00  0.00     0.232 C
HETATM   41  N5  UNL     1      17.278  18.528   1.663  1.00  0.00    -0.075 N
HETATM   42  C29 UNL     1      15.929  18.321   1.233  1.00  0.00     0.232 C
ATOM     43  H52 UNL     1      17.455  19.519   1.825  1.00  0.00     0.277 HD
ATOM     44  H51 UNL     1      17.929  18.360   0.896  1.00  0.00     0.277 HD
HETATM   45  C30 UNL     1      14.881  18.687   2.278  1.00  0.00     0.032 C
ENDBRANCH  37  38
ENDBRANCH  34  37
ENDBRANCH  32  33
BRANCH  32  46
HETATM   46  C31 UNL     1      16.329  22.235   7.981  1.00  0.00     0.196 C
HETATM   47  O6  UNL     1      16.970  21.246   8.210  1.00  0.00    -0.646 OA
HETATM   48  O7  UNL     1      16.485  23.452   8.646  1.00  0.00    -0.646 OA
ENDBRANCH  32  46
ENDBRANCH  31  32
ENDBRANCH  30  31
ENDBRANCH  29  30
ENDBRANCH  28  29
ENDBRANCH   3  28
TORSDOF 18
ENDMDL