MODEL 5
REMARK VINA RESULT: -9.297908938      2.754      4.692
REMARK  15 active torsions:
REMARK  status: ('A' for Active; 'I' for Inactive)
REMARK    1  A    between atoms: C2_2  and  N1_3
REMARK    2  A    between atoms: C2_2  and  C3_7
REMARK       I    between atoms: C3_7  and  N2_9
REMARK    3  A    between atoms: C6_12  and  C7_13
REMARK    4  A    between atoms: C7_13  and  C8_14
REMARK    5  A    between atoms: C8_14  and  C9_15
REMARK       I    between atoms: C9_15  and  N3_17
REMARK    6  A    between atoms: N3_17  and  C10_19
REMARK    7  A    between atoms: C10_19  and  C11_20
REMARK    8  A    between atoms: C11_20  and  C12_21
REMARK    9  A    between atoms: C12_21  and  C13_22
REMARK   10  A    between atoms: C13_22  and  C14_23
REMARK   11  A    between atoms: C14_23  and  C15_24
REMARK   12  A    between atoms: C15_24  and  N4_25
REMARK       I    between atoms: N4_25  and  C16_27
REMARK       I    between atoms: C16_27  and  N5_29
REMARK   13  A    between atoms: N5_29  and  S1_31
REMARK   14  A    between atoms: S1_31  and  C17_34
REMARK   15  A    between atoms: C19_40  and  C20_41
ROOT
HETATM    1  C14 UNL     1      12.638  23.084   6.931  1.00  0.00     0.020 C
ENDROOT
BRANCH   1   2
HETATM    2  C13 UNL     1      12.178  24.453   6.522  1.00  0.00     0.002 C
BRANCH   2   3
HETATM    3  C12 UNL     1      12.136  25.370   7.705  1.00  0.00     0.002 C
BRANCH   3   4
HETATM    4  C11 UNL     1      10.702  25.624   8.153  1.00  0.00     0.020 C
BRANCH   4   5
HETATM    5  C10 UNL     1      10.737  26.584   9.300  1.00  0.00     0.123 C
BRANCH   5   6
HETATM    6  N3  UNL     1       9.458  27.109   9.664  1.00  0.00    -0.358 N
HETATM    7  C9  UNL     1       8.865  28.251   8.992  1.00  0.00     0.240 C
HETATM    8  O2  UNL     1       9.460  28.812   8.065  1.00  0.00    -0.269 OA
ATOM      9  H3  UNL     1       8.943  26.665  10.424  1.00  0.00     0.162 HD
BRANCH   7  10
HETATM   10  C8  UNL     1       7.551  28.663   9.492  1.00  0.00     0.070 C
BRANCH  10  11
HETATM   11  C7  UNL     1       6.547  29.254   8.628  1.00  0.00    -0.017 C
BRANCH  11  12
HETATM   12  C6  UNL     1       5.739  28.469   7.675  1.00  0.00     0.011 C
HETATM   13  C5  UNL     1       6.087  27.048   7.439  1.00  0.00     0.028 C
HETATM   14  C4  UNL     1       5.283  26.599   6.174  1.00  0.00     0.126 C
HETATM   15  N2  UNL     1       3.879  26.612   6.584  1.00  0.00    -0.350 N
HETATM   16  C3  UNL     1       2.908  25.992   5.783  1.00  0.00     0.250 C
HETATM   17  C29 UNL     1       3.573  27.290   7.850  1.00  0.00     0.126 C
HETATM   18  O1  UNL     1       1.689  26.010   6.145  1.00  0.00    -0.271 OA
HETATM   19  C28 UNL     1       4.252  28.626   7.911  1.00  0.00     0.028 C
BRANCH  16  20
HETATM   20  C2  UNL     1       3.237  25.308   4.520  1.00  0.00     0.271 C
HETATM   21  C1  UNL     1       2.188  25.569   3.444  1.00  0.00     0.050 C
BRANCH  20  22
HETATM   22  N1  UNL     1       3.375  23.887   4.770  1.00  0.00    -0.067 N
ATOM     23  H13 UNL     1       3.801  23.404   3.979  1.00  0.00     0.275 HD
ATOM     24  H12 UNL     1       4.090  23.694   5.471  1.00  0.00     0.275 HD
ATOM     25  H11 UNL     1       2.477  23.475   5.023  1.00  0.00     0.275 HD
ENDBRANCH  20  22
ENDBRANCH  16  20
ENDBRANCH  11  12
ENDBRANCH  10  11
ENDBRANCH   7  10
ENDBRANCH   5   6
ENDBRANCH   4   5
ENDBRANCH   3   4
ENDBRANCH   2   3
ENDBRANCH   1   2
BRANCH   1  26
HETATM   26  C15 UNL     1      14.142  23.032   7.105  1.00  0.00     0.124 C
BRANCH  26  27
HETATM   27  N4  UNL     1      14.753  21.828   6.630  1.00  0.00    -0.342 N
HETATM   28  C16 UNL     1      15.989  21.292   7.004  1.00  0.00     0.329 C
HETATM   29  O3  UNL     1      16.682  21.926   7.867  1.00  0.00    -0.246 OA
HETATM   30  N5  UNL     1      16.527  20.104   6.498  1.00  0.00    -0.231 N
ATOM     31  H5  UNL     1      15.972  19.587   5.815  1.00  0.00     0.183 HD
ATOM     32  H4  UNL     1      14.225  21.299   5.937  1.00  0.00     0.164 HD
BRANCH  30  33
HETATM   33  S1  UNL     1      18.072  19.444   6.949  1.00  0.00     0.284 S
HETATM   34  O4  UNL     1      18.005  19.170   8.429  1.00  0.00    -0.199 OA
HETATM   35  O5  UNL     1      19.081  20.492   6.741  1.00  0.00    -0.199 OA
BRANCH  33  36
HETATM   36  C17 UNL     1      18.355  17.937   6.132  1.00  0.00     0.173 A
HETATM   37  N6  UNL     1      19.049  16.917   6.722  1.00  0.00    -0.340 N
HETATM   38  C18 UNL     1      19.083  15.883   5.895  1.00  0.00     0.181 A
ATOM     39  H6  UNL     1      19.472  16.948   7.649  1.00  0.00     0.167 HD
HETATM   40  N7  UNL     1      18.416  16.206   4.759  1.00  0.00    -0.353 N
HETATM   41  C19 UNL     1      17.983  17.452   4.919  1.00  0.00     0.054 A
ATOM     42  H7  UNL     1      18.276  15.610   3.944  1.00  0.00     0.166 HD
BRANCH  41  43
HETATM   43  C20 UNL     1      17.244  18.220   3.885  1.00  0.00     0.038 C
HETATM   44  C21 UNL     1      15.785  17.861   3.974  1.00  0.00     0.011 C
HETATM   45  C22 UNL     1      14.901  19.072   3.674  1.00  0.00     0.001 C
HETATM   46  C23 UNL     1      14.912  19.462   2.228  1.00  0.00     0.000 C
HETATM   47  C24 UNL     1      14.792  18.237   1.360  1.00  0.00     0.000 C
HETATM   48  C25 UNL     1      16.129  17.964   0.764  1.00  0.00     0.000 C
HETATM   49  C26 UNL     1      17.046  17.115   1.598  1.00  0.00     0.001 C
HETATM   50  C27 UNL     1      17.840  17.977   2.534  1.00  0.00     0.011 C
ENDBRANCH  41  43
ENDBRANCH  33  36
ENDBRANCH  30  33
ENDBRANCH  26  27
ENDBRANCH   1  26
TORSDOF 15
ENDMDL