MODEL 5
REMARK VINA RESULT: -9.436041320      1.292      1.590
REMARK  17 active torsions:
REMARK  status: ('A' for Active; 'I' for Inactive)
REMARK    1  A    between atoms: N1_1  and  C1_5
REMARK    2  A    between atoms: C1_5  and  C2_6
REMARK    3  A    between atoms: C2_6  and  C3_7
REMARK    4  A    between atoms: C3_7  and  C4_8
REMARK    5  A    between atoms: C4_8  and  C5_9
REMARK    6  A    between atoms: C4_8  and  N4_22
REMARK    7  A    between atoms: C5_9  and  N2_10
REMARK    8  A    between atoms: C8_14  and  C9_15
REMARK    9  A    between atoms: C9_15  and  O1_16
REMARK   10  A    between atoms: N3_18  and  O2_20
REMARK       I    between atoms: N4_22  and  C10_24
REMARK   11  A    between atoms: C10_24  and  C11_26
REMARK   12  A    between atoms: N5_30  and  C15_31
REMARK   13  A    between atoms: C15_31  and  O4_32
REMARK   14  A    between atoms: C15_31  and  C16_34
REMARK   15  A    between atoms: C16_34  and  N6_42
REMARK   16  A    between atoms: C17_35  and  C18_36
REMARK       I    between atoms: N6_42  and  C24_43
REMARK   17  A    between atoms: C24_43  and  C25_45
ROOT
HETATM    1  C11 UNL     1      11.533  23.564   5.409  1.00  0.00     0.178 C
HETATM    2  C12 UNL     1      10.687  22.790   4.305  1.00  0.00     0.037 C
HETATM    3  C13 UNL     1      11.018  23.695   3.082  1.00  0.00     0.022 C
HETATM    4  C14 UNL     1      12.214  24.457   3.476  1.00  0.00     0.126 C
HETATM    5  N5  UNL     1      12.642  23.632   4.654  1.00  0.00    -0.346 N
ENDROOT
BRANCH   1   6
HETATM    6  C10 UNL     1      10.773  24.835   5.715  1.00  0.00     0.241 C
HETATM    7  N4  UNL     1       9.363  24.782   5.526  1.00  0.00    -0.353 N
ATOM      8  H4  UNL     1       8.989  23.862   5.292  1.00  0.00     0.163 HD
HETATM    9  O3  UNL     1      11.365  25.837   6.056  1.00  0.00    -0.271 OA
BRANCH   7  10
HETATM   10  C4  UNL     1       8.371  25.854   5.618  1.00  0.00     0.102 C
BRANCH  10  11
HETATM   11  C3  UNL     1       8.216  26.169   4.082  1.00  0.00     0.028 C
BRANCH  11  12
HETATM   12  C2  UNL     1       7.534  25.016   3.485  1.00  0.00     0.029 C
BRANCH  12  13
HETATM   13  C1  UNL     1       7.519  25.103   1.955  1.00  0.00     0.230 C
BRANCH  13  14
HETATM   14  N1  UNL     1       8.566  26.065   1.661  1.00  0.00    -0.079 N
ATOM     15  H13 UNL     1       9.456  25.876   2.123  1.00  0.00     0.274 HD
ATOM     16  H12 UNL     1       8.927  26.018   0.709  1.00  0.00     0.274 HD
ATOM     17  H11 UNL     1       8.143  26.959   1.909  1.00  0.00     0.274 HD
ENDBRANCH  13  14
ENDBRANCH  12  13
ENDBRANCH  11  12
ENDBRANCH  10  11
BRANCH  10  18
HETATM   18  C5  UNL     1       8.928  27.064   6.260  1.00  0.00     0.149 C
BRANCH  18  19
HETATM   19  N2  UNL     1       8.587  27.168   7.631  1.00  0.00    -0.361 N
HETATM   20  C6  UNL     1       9.280  27.138   8.892  1.00  0.00     0.078 C
HETATM   21  S1  UNL     1      10.528  26.254   9.437  1.00  0.00    -0.065 SA
HETATM   22  C7  UNL     1       8.396  28.153   9.466  1.00  0.00     0.103 C
HETATM   23  C8  UNL     1       7.417  27.514   8.459  1.00  0.00     0.167 C
BRANCH  23  24
HETATM   24  C9  UNL     1       6.287  28.295   8.019  1.00  0.00     0.159 C
HETATM   25  N3  UNL     1       5.218  27.761   7.476  1.00  0.00    -0.249 N
ATOM     26  H3  UNL     1       4.410  28.275   7.125  1.00  0.00     0.196 HD
BRANCH  24  27
HETATM   27  O1  UNL     1       6.241  29.664   8.151  1.00  0.00    -0.347 OA
ATOM     28  H1  UNL     1       6.514  30.251   7.455  1.00  0.00     0.219 HD
ENDBRANCH  24  27
BRANCH  25  29
HETATM   29  O2  UNL     1       5.373  26.356   7.458  1.00  0.00    -0.288 OA
ATOM     30  H2  UNL     1       6.257  26.150   7.179  1.00  0.00     0.244 HD
ENDBRANCH  25  29
ENDBRANCH  23  24
ENDBRANCH  18  19
ENDBRANCH  10  18
ENDBRANCH   7  10
ENDBRANCH   1   6
BRANCH   5  31
HETATM   31  C15 UNL     1      13.954  23.237   4.631  1.00  0.00     0.180 C
BRANCH  31  32
HETATM   32  O4  UNL     1      14.836  24.212   4.760  1.00  0.00    -0.344 OA
ATOM     33  H4  UNL     1      15.597  24.145   4.195  1.00  0.00     0.219 HD
ENDBRANCH  31  32
BRANCH  31  34
HETATM   34  C16 UNL     1      14.473  21.785   4.548  1.00  0.00     0.158 C
HETATM   35  C17 UNL     1      14.516  21.156   3.286  1.00  0.00     0.027 C
BRANCH  35  36
HETATM   36  C18 UNL     1      15.040  19.769   3.279  1.00  0.00     0.011 C
HETATM   37  C19 UNL     1      15.087  19.397   1.785  1.00  0.00     0.009 C
HETATM   38  C20 UNL     1      15.706  18.061   1.479  1.00  0.00     0.001 C
HETATM   39  C21 UNL     1      17.049  17.907   2.213  1.00  0.00     0.000 C
HETATM   40  C22 UNL     1      16.725  18.100   3.681  1.00  0.00     0.001 C
HETATM   41  C23 UNL     1      16.299  19.522   3.930  1.00  0.00     0.009 C
ENDBRANCH  35  36
BRANCH  34  42
HETATM   42  N6  UNL     1      14.473  21.623   5.862  1.00  0.00    -0.366 NA
HETATM   43  C24 UNL     1      14.386  21.468   7.240  1.00  0.00     0.296 C
HETATM   44  O5  UNL     1      13.648  21.535   8.093  1.00  0.00    -0.257 OA
BRANCH  43  45
HETATM   45  C25 UNL     1      15.870  21.179   7.730  1.00  0.00     0.093 C
HETATM   46  C26 UNL     1      16.564  22.478   7.960  1.00  0.00     0.015 C
HETATM   47  C27 UNL     1      17.902  22.172   8.683  1.00  0.00     0.001 C
HETATM   48  C28 UNL     1      18.404  20.880   8.084  1.00  0.00     0.000 C
HETATM   49  C29 UNL     1      17.565  19.696   8.432  1.00  0.00     0.001 C
HETATM   50  C30 UNL     1      16.105  20.174   8.714  1.00  0.00     0.015 C
ENDBRANCH  43  45
ENDBRANCH  34  42
ENDBRANCH  31  34
ENDBRANCH   5  31
TORSDOF 17
ENDMDL