MODEL 3
REMARK VINA RESULT: -7.509269383      2.874     10.607
REMARK  17 active torsions:
REMARK  status: ('A' for Active; 'I' for Inactive)
REMARK    1  A    between atoms: C2_2  and  N1_3
REMARK       I    between atoms: N1_3  and  C3_4
REMARK    2  A    between atoms: N1_3  and  C22_40
REMARK    3  A    between atoms: C3_4  and  C4_6
REMARK    4  A    between atoms: C4_6  and  N2_7
REMARK    5  A    between atoms: C4_6  and  C11_17
REMARK    6  A    between atoms: N2_7  and  C5_9
REMARK    7  A    between atoms: C5_9  and  C6_10
REMARK    8  A    between atoms: C5_9  and  C7_13
REMARK    9  A    between atoms: C11_17  and  C12_18
REMARK   10  A    between atoms: C11_17  and  C19_30
REMARK   11  A    between atoms: C12_18  and  C13_19
REMARK   12  A    between atoms: C13_19  and  C14_20
REMARK   13  A    between atoms: C14_20  and  N4_21
REMARK       I    between atoms: N4_21  and  C15_23
REMARK       I    between atoms: C15_23  and  N5_25
REMARK   14  A    between atoms: N5_25  and  C16_27
REMARK   15  A    between atoms: C19_30  and  C20_31
REMARK   16  A    between atoms: C21_34  and  O4_35
REMARK   17  A    between atoms: C25_43  and  C26_44
ROOT
HETATM    1  C4  UNL     1       9.753  25.005   6.421  1.00  0.00     0.182 C
ENDROOT
BRANCH   1   2
HETATM    2  C3  UNL     1       9.816  25.980   7.552  1.00  0.00     0.243 C
HETATM    3  N1  UNL     1       8.545  26.634   7.847  1.00  0.00    -0.346 N
HETATM    4  O1  UNL     1      10.790  26.193   8.203  1.00  0.00    -0.271 OA
BRANCH   3   5
HETATM    5  C2  UNL     1       8.353  26.776   9.305  1.00  0.00     0.122 C
HETATM    6  C1  UNL     1       9.036  28.004   9.774  1.00  0.00     0.026 C
ENDBRANCH   3   5
BRANCH   3   7
HETATM    7  C22 UNL     1       7.575  27.102   6.900  1.00  0.00     0.087 C
HETATM    8  C23 UNL     1       7.260  28.587   7.018  1.00  0.00     0.026 C
HETATM    9  C24 UNL     1       6.118  28.926   7.896  1.00  0.00     0.007 C
HETATM   10  C25 UNL     1       4.890  28.070   7.735  1.00  0.00    -0.007 C
HETATM   11  C30 UNL     1       5.135  27.161   6.542  1.00  0.00     0.007 C
HETATM   12  C31 UNL     1       6.312  26.276   6.902  1.00  0.00     0.026 C
BRANCH  10  13
HETATM   13  C26 UNL     1       3.622  28.869   7.623  1.00  0.00    -0.048 C
HETATM   14  C27 UNL     1       3.083  28.656   6.221  1.00  0.00     0.015 C
HETATM   15  C28 UNL     1       2.638  28.307   8.603  1.00  0.00     0.015 C
HETATM   16  C29 UNL     1       3.828  30.360   7.835  1.00  0.00     0.015 C
ENDBRANCH  10  13
ENDBRANCH   3   7
ENDBRANCH   1   2
BRANCH   1  17
HETATM   17  N2  UNL     1       9.862  25.611   5.180  1.00  0.00    -0.375 N
ATOM     18  H2  UNL     1      10.564  26.339   5.051  1.00  0.00     0.160 HD
BRANCH  17  19
HETATM   19  C5  UNL     1       9.042  25.263   4.089  1.00  0.00     0.079 C
BRANCH  19  20
HETATM   20  C6  UNL     1       7.959  26.178   3.657  1.00  0.00     0.277 C
HETATM   21  N3  UNL     1       6.636  25.635   3.407  1.00  0.00    -0.056 NA
HETATM   22  O2  UNL     1       8.128  27.375   3.417  1.00  0.00    -0.270 OA
ENDBRANCH  19  20
BRANCH  19  23
HETATM   23  C7  UNL     1       9.604  24.531   2.928  1.00  0.00    -0.004 C
HETATM   24  C8  UNL     1       9.232  25.036   1.576  1.00  0.00     0.021 C
HETATM   25  C9  UNL     1      11.103  24.423   3.055  1.00  0.00     0.021 C
HETATM   26  C10 UNL     1       9.051  23.079   3.123  1.00  0.00     0.021 C
ENDBRANCH  19  23
ENDBRANCH  17  19
ENDBRANCH   1  17
BRANCH   1  27
HETATM   27  C11 UNL     1      11.056  24.157   6.769  1.00  0.00     0.044 C
BRANCH  27  28
HETATM   28  C12 UNL     1      10.882  22.784   6.197  1.00  0.00     0.013 C
BRANCH  28  29
HETATM   29  C13 UNL     1      11.912  21.779   6.599  1.00  0.00     0.020 C
BRANCH  29  30
HETATM   30  C14 UNL     1      12.593  21.107   5.429  1.00  0.00     0.124 C
BRANCH  30  31
HETATM   31  N4  UNL     1      13.852  20.676   5.914  1.00  0.00    -0.343 N
HETATM   32  C15 UNL     1      14.852  20.020   5.126  1.00  0.00     0.316 C
HETATM   33  O3  UNL     1      14.804  20.066   3.921  1.00  0.00    -0.247 OA
HETATM   34  N5  UNL     1      15.882  19.422   5.867  1.00  0.00    -0.339 N
ATOM     35  H5  UNL     1      15.665  18.806   6.651  1.00  0.00     0.164 HD
ATOM     36  H4  UNL     1      14.063  20.846   6.897  1.00  0.00     0.164 HD
BRANCH  34  37
HETATM   37  C16 UNL     1      17.264  19.690   5.504  1.00  0.00     0.078 C
HETATM   38  C17 UNL     1      17.902  19.657   7.003  1.00  0.00     0.032 C
HETATM   39  C18 UNL     1      17.953  18.658   4.750  1.00  0.00     0.032 C
ENDBRANCH  34  37
ENDBRANCH  30  31
ENDBRANCH  29  30
ENDBRANCH  28  29
ENDBRANCH  27  28
BRANCH  27  40
HETATM   40  C19 UNL     1      12.266  24.832   6.356  1.00  0.00     0.031 C
BRANCH  40  41
HETATM   41  C20 UNL     1      13.565  24.304   6.092  1.00  0.00     0.126 A
HETATM   42  N6  UNL     1      14.374  23.854   7.200  1.00  0.00    -0.300 N
HETATM   43  C21 UNL     1      15.480  23.402   6.612  1.00  0.00     0.286 A
ATOM     44  H6  UNL     1      14.153  23.876   8.195  1.00  0.00     0.171 HD
HETATM   45  O5  UNL     1      15.439  23.522   5.328  1.00  0.00    -0.192 OA
HETATM   46  N7  UNL     1      14.289  24.041   5.112  1.00  0.00    -0.241 N
ATOM     47  H7  UNL     1      13.972  24.233   4.161  1.00  0.00     0.196 HD
BRANCH  43  48
HETATM   48  O4  UNL     1      16.485  22.849   7.249  1.00  0.00    -0.325 OA
ATOM     49  H4  UNL     1      17.371  22.794   6.909  1.00  0.00     0.221 HD
ENDBRANCH  43  48
ENDBRANCH  40  41
ENDBRANCH  27  40
ENDBRANCH   1  27
TORSDOF 17
ENDMDL