MODEL 5
REMARK VINA RESULT: -8.265221632      1.885     10.583
REMARK  16 active torsions:
REMARK  status: ('A' for Active; 'I' for Inactive)
REMARK    1  A    between atoms: C2_2  and  N1_3
REMARK    2  A    between atoms: C2_2  and  C20_25
REMARK    3  A    between atoms: N1_3  and  C3_5
REMARK    4  A    between atoms: C3_5  and  C4_6
REMARK    5  A    between atoms: C3_5  and  C7_9
REMARK    6  A    between atoms: C7_9  and  N2_10
REMARK    7  A    between atoms: C7_9  and  C14_19
REMARK       I    between atoms: N2_10  and  C8_12
REMARK    8  A    between atoms: C8_12  and  C9_14
REMARK    9  A    between atoms: C9_14  and  C10_15
REMARK       I    between atoms: C20_25  and  N3_27
REMARK       I    between atoms: N3_27  and  C21_29
REMARK   10  A    between atoms: C21_29  and  C22_31
REMARK   11  A    between atoms: C22_31  and  C23_33
REMARK   12  A    between atoms: C23_33  and  O5_34
REMARK   13  A    between atoms: C23_33  and  N4_36
REMARK   14  A    between atoms: C27_40  and  C28_41
REMARK       I    between atoms: C28_41  and  N5_43
REMARK   15  A    between atoms: N5_43  and  C29_45
REMARK   16  A    between atoms: C29_45  and  C31_47
ROOT
HETATM    1  C20 UNL     1      12.348  24.416   5.731  1.00  0.00     0.246 C
HETATM    2  O2  UNL     1      12.797  25.505   5.212  1.00  0.00    -0.271 OA
HETATM    3  N3  UNL     1      13.229  23.338   5.770  1.00  0.00    -0.289 N
ATOM      4  H3  UNL     1      14.171  23.524   5.426  1.00  0.00     0.172 HD
HETATM    5  C21 UNL     1      12.991  22.013   6.224  1.00  0.00     0.298 C
HETATM    6  O3  UNL     1      11.871  21.681   6.687  1.00  0.00    -0.264 OA
ENDROOT
BRANCH   1   7
HETATM    7  C2  UNL     1      10.939  24.446   6.222  1.00  0.00     0.170 C
HETATM    8  C1  UNL     1      10.872  25.127   7.594  1.00  0.00     0.042 C
BRANCH   7   9
HETATM    9  N1  UNL     1      10.096  25.138   5.301  1.00  0.00    -0.375 N
ATOM     10  H1  UNL     1      10.022  26.154   5.300  1.00  0.00     0.160 HD
BRANCH   9  11
HETATM   11  C3  UNL     1       9.359  24.323   4.374  1.00  0.00     0.053 C
BRANCH  11  12
HETATM   12  C4  UNL     1      10.244  23.623   3.461  1.00  0.00    -0.059 C
HETATM   13  C5  UNL     1      10.803  24.408   2.304  1.00  0.00     0.045 C
HETATM   14  C6  UNL     1       9.815  22.225   3.053  1.00  0.00     0.045 C
ENDBRANCH  11  12
BRANCH  11  15
HETATM   15  C7  UNL     1       8.072  24.936   4.042  1.00  0.00     0.043 C
BRANCH  15  16
HETATM   16  N2  UNL     1       7.529  25.730   5.131  1.00  0.00    -0.328 N
HETATM   17  C8  UNL     1       7.756  27.092   5.374  1.00  0.00     0.222 C
HETATM   18  O1  UNL     1       8.495  27.746   4.608  1.00  0.00    -0.273 OA
ATOM     19  H2  UNL     1       6.919  25.245   5.789  1.00  0.00     0.168 HD
BRANCH  17  20
HETATM   20  C9  UNL     1       7.137  27.781   6.524  1.00  0.00     0.111 C
BRANCH  20  21
HETATM   21  C10 UNL     1       7.890  27.517   7.812  1.00  0.00    -0.043 C
HETATM   22  C11 UNL     1       7.596  26.112   8.294  1.00  0.00     0.015 C
HETATM   23  C12 UNL     1       7.360  28.443   8.919  1.00  0.00     0.015 C
HETATM   24  C13 UNL     1       9.362  27.727   7.709  1.00  0.00     0.015 C
ENDBRANCH  20  21
ENDBRANCH  17  20
ENDBRANCH  15  16
BRANCH  15  25
HETATM   25  C14 UNL     1       7.065  24.382   3.141  1.00  0.00     0.038 C
HETATM   26  C15 UNL     1       7.149  24.757   1.681  1.00  0.00     0.011 C
HETATM   27  C16 UNL     1       5.772  25.091   1.111  1.00  0.00     0.001 C
HETATM   28  C17 UNL     1       4.725  24.086   1.479  1.00  0.00     0.000 C
HETATM   29  C18 UNL     1       4.693  23.820   2.974  1.00  0.00     0.001 C
HETATM   30  C19 UNL     1       5.655  24.798   3.608  1.00  0.00     0.011 C
ENDBRANCH  15  25
ENDBRANCH  11  15
ENDBRANCH   9  11
ENDBRANCH   7   9
ENDBRANCH   1   7
BRANCH   5  31
HETATM   31  C22 UNL     1      14.071  21.006   6.152  1.00  0.00     0.275 C
HETATM   32  O4  UNL     1      14.698  20.767   7.200  1.00  0.00    -0.282 OA
BRANCH  31  33
HETATM   33  C23 UNL     1      14.360  20.343   4.897  1.00  0.00     0.438 C
BRANCH  33  34
HETATM   34  O5  UNL     1      14.998  21.226   3.974  1.00  0.00    -0.362 OA
ATOM     35  H5  UNL     1      15.371  20.752   3.239  1.00  0.00     0.212 HD
ENDBRANCH  33  34
BRANCH  33  36
HETATM   36  N4  UNL     1      15.233  19.202   4.953  1.00  0.00     0.138 N
HETATM   37  C24 UNL     1      14.865  18.066   4.203  1.00  0.00     0.277 C
HETATM   38  C25 UNL     1      15.521  18.195   2.851  1.00  0.00     0.033 C
HETATM   39  C26 UNL     1      16.870  18.795   3.262  1.00  0.00     0.047 C
HETATM   40  C27 UNL     1      16.524  19.623   4.465  1.00  0.00     0.318 C
BRANCH  40  41
HETATM   41  C28 UNL     1      17.590  19.604   5.500  1.00  0.00     0.251 C
HETATM   42  O6  UNL     1      18.791  19.816   5.253  1.00  0.00    -0.271 OA
HETATM   43  N5  UNL     1      17.232  19.330   6.843  1.00  0.00    -0.355 N
ATOM     44  H5  UNL     1      16.250  19.158   7.056  1.00  0.00     0.162 HD
BRANCH  43  45
HETATM   45  C29 UNL     1      18.192  19.282   7.934  1.00  0.00     0.083 C
HETATM   46  C30 UNL     1      18.129  17.905   8.555  1.00  0.00     0.032 C
BRANCH  45  47
HETATM   47  C31 UNL     1      17.823  20.291   9.011  1.00  0.00    -0.000 C
HETATM   48  C32 UNL     1      18.306  19.885  10.371  1.00  0.00     0.011 C
HETATM   49  C33 UNL     1      18.511  21.603   8.614  1.00  0.00     0.011 C
ENDBRANCH  45  47
ENDBRANCH  43  45
ENDBRANCH  40  41
ENDBRANCH  33  36
ENDBRANCH  31  33
ENDBRANCH   5  31
TORSDOF 16
ENDMDL