MODEL 2
REMARK VINA RESULT: -7.764473776      5.542     14.090
REMARK  16 active torsions:
REMARK  status: ('A' for Active; 'I' for Inactive)
REMARK    1  A    between atoms: C2_2  and  C3_3
REMARK    2  A    between atoms: C3_3  and  C4_4
REMARK    3  A    between atoms: C4_4  and  N1_5
REMARK    4  A    between atoms: C4_4  and  C10_14
REMARK       I    between atoms: N1_5  and  C5_7
REMARK    5  A    between atoms: C5_7  and  O2_9
REMARK    6  A    between atoms: O2_9  and  C6_10
REMARK       I    between atoms: C10_14  and  N2_16
REMARK    7  A    between atoms: N2_16  and  C11_18
REMARK    8  A    between atoms: C11_18  and  C12_19
REMARK    9  A    between atoms: C11_18  and  C30_49
REMARK       I    between atoms: C12_19  and  N3_21
REMARK   10  A    between atoms: N3_21  and  C13_23
REMARK   11  A    between atoms: C13_23  and  C14_24
REMARK   12  A    between atoms: C13_23  and  C18_28
REMARK   13  A    between atoms: C14_24  and  C15_25
REMARK       I    between atoms: C18_28  and  N4_30
REMARK   14  A    between atoms: C23_35  and  N5_36
REMARK   15  A    between atoms: C23_35  and  C24_40
REMARK       I    between atoms: C24_40  and  N6_42
REMARK   16  A    between atoms: N6_42  and  C25_44
ROOT
HETATM    1  C13 UNL     1      18.574  16.292   5.470  1.00  0.00     0.177 C
ENDROOT
BRANCH   1   2
HETATM    2  N3  UNL     1      18.019  17.404   4.678  1.00  0.00    -0.346 N
HETATM    3  C12 UNL     1      16.672  17.471   4.264  1.00  0.00     0.241 C
HETATM    4  O4  UNL     1      15.930  16.503   4.621  1.00  0.00    -0.271 OA
ATOM      5  H3  UNL     1      18.643  18.167   4.415  1.00  0.00     0.163 HD
BRANCH   3   6
HETATM    6  C11 UNL     1      16.059  18.526   3.484  1.00  0.00     0.180 C
BRANCH   6   7
HETATM    7  N2  UNL     1      14.828  19.046   4.096  1.00  0.00    -0.346 N
HETATM    8  C10 UNL     1      14.766  20.357   4.624  1.00  0.00     0.241 C
HETATM    9  O3  UNL     1      15.831  21.074   4.539  1.00  0.00    -0.271 OA
ATOM     10  H2  UNL     1      14.002  18.450   4.142  1.00  0.00     0.163 HD
BRANCH   8  11
HETATM   11  C4  UNL     1      13.612  20.981   5.258  1.00  0.00     0.178 C
BRANCH  11  12
HETATM   12  C3  UNL     1      14.068  21.532   6.625  1.00  0.00     0.034 C
BRANCH  12  13
HETATM   13  C2  UNL     1      14.366  23.027   6.481  1.00  0.00    -0.002 C
HETATM   14  C1  UNL     1      13.607  23.815   7.509  1.00  0.00     0.005 C
ENDBRANCH  12  13
ENDBRANCH  11  12
BRANCH  11  15
HETATM   15  N1  UNL     1      13.088  22.103   4.466  1.00  0.00    -0.324 N
HETATM   16  C5  UNL     1      11.761  22.587   4.653  1.00  0.00     0.362 C
HETATM   17  O1  UNL     1      11.020  22.054   5.511  1.00  0.00    -0.238 OA
ATOM     18  H1  UNL     1      13.687  22.545   3.768  1.00  0.00     0.165 HD
BRANCH  16  19
HETATM   19  O2  UNL     1      11.253  23.640   3.914  1.00  0.00    -0.294 OA
BRANCH  19  20
HETATM   20  C6  UNL     1      10.077  23.512   3.144  1.00  0.00     0.061 C
HETATM   21  C7  UNL     1       9.786  22.093   2.736  1.00  0.00     0.046 C
HETATM   22  C8  UNL     1       8.880  24.164   3.793  1.00  0.00     0.046 C
HETATM   23  C9  UNL     1      10.340  24.310   1.856  1.00  0.00     0.046 C
ENDBRANCH  19  20
ENDBRANCH  16  19
ENDBRANCH  11  15
ENDBRANCH   8  11
ENDBRANCH   6   7
BRANCH   6  24
HETATM   24  C30 UNL     1      15.716  18.165   2.064  1.00  0.00     0.009 C
HETATM   25  C31 UNL     1      15.159  19.359   1.332  1.00  0.00     0.012 C
HETATM   26  C32 UNL     1      16.807  17.500   1.313  1.00  0.00     0.012 C
ENDBRANCH   6  24
ENDBRANCH   3   6
ENDBRANCH   1   2
BRANCH   1  27
HETATM   27  C14 UNL     1      19.796  15.838   4.765  1.00  0.00     0.038 C
BRANCH  27  28
HETATM   28  C15 UNL     1      20.422  14.605   5.414  1.00  0.00    -0.020 C
HETATM   29  C16 UNL     1      21.903  14.544   5.190  1.00  0.00     0.009 C
HETATM   30  C17 UNL     1      19.849  13.339   4.783  1.00  0.00     0.009 C
ENDBRANCH  27  28
ENDBRANCH   1  27
BRANCH   1  31
HETATM   31  C18 UNL     1      18.810  16.763   6.875  1.00  0.00     0.245 C
HETATM   32  O5  UNL     1      19.172  17.974   6.955  1.00  0.00    -0.271 OA
HETATM   33  N4  UNL     1      18.665  16.018   8.031  1.00  0.00    -0.310 N
HETATM   34  C19 UNL     1      18.284  14.588   8.016  1.00  0.00     0.129 C
HETATM   35  C23 UNL     1      18.908  16.475   9.379  1.00  0.00     0.280 C
HETATM   36  C20 UNL     1      19.473  13.869   8.689  1.00  0.00     0.020 C
HETATM   37  C21 UNL     1      20.655  14.796   8.859  1.00  0.00     0.006 C
HETATM   38  C22 UNL     1      20.356  16.059   9.648  1.00  0.00     0.072 C
BRANCH  35  39
HETATM   39  N5  UNL     1      18.133  15.592  10.309  1.00  0.00    -0.043 N
ATOM     40  H53 UNL     1      17.941  14.672   9.913  1.00  0.00     0.278 HD
ATOM     41  H52 UNL     1      18.682  15.283  11.111  1.00  0.00     0.278 HD
ATOM     42  H51 UNL     1      17.286  16.091  10.580  1.00  0.00     0.278 HD
ENDBRANCH  35  39
BRANCH  35  43
HETATM   43  C24 UNL     1      18.546  17.797   9.762  1.00  0.00     0.275 C
HETATM   44  O6  UNL     1      19.295  18.553  10.426  1.00  0.00    -0.269 OA
HETATM   45  N6  UNL     1      17.274  18.384   9.411  1.00  0.00    -0.353 N
ATOM     46  H6  UNL     1      16.609  17.829   8.872  1.00  0.00     0.163 HD
BRANCH  45  47
HETATM   47  C25 UNL     1      16.913  19.709   9.789  1.00  0.00     0.084 C
HETATM   48  C26 UNL     1      15.452  19.900  10.127  1.00  0.00     0.025 C
HETATM   49  C27 UNL     1      15.267  21.421  10.129  1.00  0.00     0.002 C
HETATM   50  C28 UNL     1      16.371  21.961   9.269  1.00  0.00     0.002 C
HETATM   51  C29 UNL     1      17.102  20.757   8.723  1.00  0.00     0.025 C
ENDBRANCH  45  47
ENDBRANCH  35  43
ENDBRANCH   1  31
TORSDOF 16
ENDMDL