MODEL 3
REMARK VINA RESULT: -7.108645890      6.938     11.736
REMARK  15 active torsions:
REMARK  status: ('A' for Active; 'I' for Inactive)
REMARK    1  A    between atoms: C2_2  and  C3_3
REMARK    2  A    between atoms: C5_5  and  C6_6
REMARK    3  A    between atoms: C6_6  and  C7_7
REMARK    4  A    between atoms: C8_8  and  C10_10
REMARK    5  A    between atoms: C10_10  and  C11_11
REMARK    6  A    between atoms: C11_11  and  C12_12
REMARK    7  A    between atoms: C16_16  and  N1_17
REMARK    8  A    between atoms: N1_17  and  C17_19
REMARK    9  A    between atoms: C17_19  and  C18_20
REMARK   10  A    between atoms: C20_25  and  C21_26
REMARK       I    between atoms: C21_26  and  N3_28
REMARK   11  A    between atoms: C26_36  and  O4_37
REMARK   12  A    between atoms: O4_37  and  C27_38
REMARK   13  A    between atoms: C27_38  and  C28_40
REMARK   14  A    between atoms: C28_40  and  C29_41
REMARK   15  A    between atoms: C29_41  and  C30_42
ROOT
HETATM    1  C3  UNL     1      15.867  20.955   9.130  1.00  0.00     0.013 C
HETATM    2  C4  UNL     1      15.986  20.045   7.975  1.00  0.00     0.021 C
HETATM    3  C5  UNL     1      17.363  20.320   7.337  1.00  0.00    -0.007 C
HETATM    4  C16 UNL     1      18.233  19.210   7.834  1.00  0.00     0.115 C
HETATM    5  C26 UNL     1      18.119  19.141   9.357  1.00  0.00     0.155 C
HETATM    6  C31 UNL     1      18.179  20.476  10.044  1.00  0.00     0.041 C
HETATM    7  C32 UNL     1      17.273  21.466   9.366  1.00  0.00     0.004 C
HETATM    8  C33 UNL     1      17.720  21.643   7.908  1.00  0.00    -0.033 C
HETATM    9  C34 UNL     1      16.935  22.789   7.381  1.00  0.00     0.016 C
HETATM   10  C35 UNL     1      19.174  22.007   7.836  1.00  0.00     0.016 C
ENDROOT
BRANCH   4  11
HETATM   11  N1  UNL     1      18.037  17.926   7.323  1.00  0.00    -0.411 N
ATOM     12  H1  UNL     1      17.187  17.450   7.625  1.00  0.00     0.153 HD
BRANCH  11  13
HETATM   13  C17 UNL     1      18.846  17.226   6.464  1.00  0.00     0.149 C
BRANCH  13  14
HETATM   14  C18 UNL     1      18.837  15.695   6.711  1.00  0.00     0.196 C
HETATM   15  C19 UNL     1      18.974  15.492   8.159  1.00  0.00     0.243 C
HETATM   16  O1  UNL     1      17.913  15.276   8.764  1.00  0.00    -0.271 OA
HETATM   17  N2  UNL     1      20.145  15.509   8.957  1.00  0.00    -0.346 N
HETATM   18  C20 UNL     1      21.461  15.048   8.649  1.00  0.00     0.185 C
ATOM     19  H2  UNL     1      20.031  15.908   9.889  1.00  0.00     0.163 HD
HETATM   20  C23 UNL     1      22.010  15.588   7.349  1.00  0.00     0.138 C
HETATM   21  C24 UNL     1      21.249  14.938   6.251  1.00  0.00     0.222 C
HETATM   22  O3  UNL     1      21.947  14.170   5.501  1.00  0.00    -0.273 OA
HETATM   23  N4  UNL     1      19.877  15.070   5.948  1.00  0.00    -0.341 N
HETATM   24  C25 UNL     1      19.479  14.490   4.687  1.00  0.00     0.153 C
BRANCH  18  25
HETATM   25  C21 UNL     1      21.541  13.577   8.582  1.00  0.00     0.240 C
HETATM   26  O2  UNL     1      20.538  12.893   8.864  1.00  0.00    -0.271 OA
HETATM   27  N3  UNL     1      22.743  12.934   8.203  1.00  0.00    -0.364 N
HETATM   28  C22 UNL     1      22.810  11.506   8.139  1.00  0.00     0.149 C
ATOM     29  H3  UNL     1      23.566  13.492   7.973  1.00  0.00     0.161 HD
ENDBRANCH  18  25
ENDBRANCH  13  14
ENDBRANCH  11  13
ENDBRANCH   4  11
BRANCH   3  30
HETATM   30  C6  UNL     1      17.142  20.402   5.853  1.00  0.00     0.040 C
BRANCH  30  31
HETATM   31  C7  UNL     1      16.278  19.382   5.274  1.00  0.00    -0.023 C
HETATM   32  C8  UNL     1      15.478  19.613   4.248  1.00  0.00    -0.087 C
HETATM   33  C9  UNL     1      14.672  18.396   3.809  1.00  0.00     0.043 C
BRANCH  32  34
HETATM   34  C10 UNL     1      15.241  20.886   3.577  1.00  0.00     0.037 C
BRANCH  34  35
HETATM   35  C11 UNL     1      13.999  21.638   3.850  1.00  0.00     0.031 C
BRANCH  35  36
HETATM   36  C12 UNL     1      14.083  22.633   4.915  1.00  0.00    -0.024 C
HETATM   37  C13 UNL     1      13.422  22.472   6.082  1.00  0.00    -0.091 C
HETATM   38  C14 UNL     1      12.589  21.276   6.321  1.00  0.00     0.042 C
HETATM   39  C15 UNL     1      13.525  23.502   7.148  1.00  0.00     0.042 C
ENDBRANCH  35  36
ENDBRANCH  34  35
ENDBRANCH  32  34
ENDBRANCH  30  31
ENDBRANCH   3  30
BRANCH   5  40
HETATM   40  O4  UNL     1      19.059  18.234   9.841  1.00  0.00    -0.314 OA
BRANCH  40  41
HETATM   41  C27 UNL     1      19.347  18.104  11.208  1.00  0.00     0.259 C
HETATM   42  O5  UNL     1      20.532  18.274  11.491  1.00  0.00    -0.265 OA
BRANCH  41  43
HETATM   43  C28 UNL     1      18.354  17.784  12.245  1.00  0.00     0.121 C
BRANCH  43  44
HETATM   44  C29 UNL     1      17.904  16.366  12.125  1.00  0.00     0.123 C
BRANCH  44  45
HETATM   45  C30 UNL     1      16.498  16.149  11.791  1.00  0.00     0.172 C
HETATM   46  O6  UNL     1      15.803  15.275  12.302  1.00  0.00    -0.648 OA
HETATM   47  O7  UNL     1      15.840  16.959  10.832  1.00  0.00    -0.648 OA
ENDBRANCH  44  45
ENDBRANCH  43  44
ENDBRANCH  41  43
ENDBRANCH  40  41
ENDBRANCH   5  40
BRANCH   1  48
HETATM   48  C2  UNL     1      15.192  20.520  10.332  1.00  0.00    -0.032 C
HETATM   49  C1  UNL     1      14.666  21.386  11.179  1.00  0.00     0.007 C
ENDBRANCH   1  48
TORSDOF 15
ENDMDL