MODEL 1
REMARK VINA RESULT: -9.564122842      0.000      0.000
REMARK  20 active torsions:
REMARK  status: ('A' for Active; 'I' for Inactive)
REMARK    1  A    between atoms: C2_2  and  O1_4
REMARK    2  A    between atoms: O1_4  and  C4_5
REMARK       I    between atoms: C4_5  and  N1_7
REMARK    3  A    between atoms: N1_7  and  C5_9
REMARK    4  A    between atoms: C5_9  and  C6_10
REMARK    5  A    between atoms: C9_13  and  C10_14
REMARK    6  A    between atoms: C10_14  and  C11_15
REMARK    7  A    between atoms: C11_15  and  N2_16
REMARK    8  A    between atoms: C11_15  and  C18_33
REMARK       I    between atoms: N2_16  and  C12_18
REMARK    9  A    between atoms: C12_18  and  C13_20
REMARK   10  A    between atoms: C13_20  and  N3_21
REMARK   11  A    between atoms: C13_20  and  C14_25
REMARK   12  A    between atoms: C14_25  and  C15_26
REMARK   13  A    between atoms: C15_26  and  C16_27
REMARK   14  A    between atoms: C16_27  and  C17_28
REMARK   15  A    between atoms: C17_28  and  N4_29
REMARK   16  A    between atoms: C18_33  and  O4_34
REMARK   17  A    between atoms: C18_33  and  N5_36
REMARK   18  A    between atoms: C21_39  and  C22_40
REMARK   19  A    between atoms: C27_45  and  C28_46
REMARK       I    between atoms: C28_46  and  N6_48
REMARK   20  A    between atoms: N6_48  and  C29_50
ROOT
HETATM    1  C11 UNL     1      11.929  24.146   6.428  1.00  0.00     0.159 C
ENDROOT
BRANCH   1   2
HETATM    2  C10 UNL     1      11.439  25.356   7.028  1.00  0.00     0.038 C
BRANCH   2   3
HETATM    3  C9  UNL     1      10.453  25.384   8.127  1.00  0.00    -0.012 C
HETATM    4  C8  UNL     1       9.093  25.912   7.675  1.00  0.00     0.005 C
HETATM    5  C7  UNL     1       9.134  27.407   7.487  1.00  0.00     0.010 C
HETATM    6  C6  UNL     1       9.179  28.073   8.894  1.00  0.00     0.024 C
HETATM    7  C34 UNL     1       9.808  27.110   9.828  1.00  0.00     0.010 C
HETATM    8  C33 UNL     1      11.004  26.409   9.147  1.00  0.00     0.005 C
BRANCH   6   9
HETATM    9  C5  UNL     1       7.828  28.532   9.256  1.00  0.00     0.070 C
BRANCH   9  10
HETATM   10  N1  UNL     1       6.868  28.650   8.246  1.00  0.00    -0.316 N
HETATM   11  C4  UNL     1       5.575  29.161   8.151  1.00  0.00     0.364 C
HETATM   12  O2  UNL     1       4.975  29.660   9.109  1.00  0.00    -0.238 OA
ATOM     13  H1  UNL     1       7.196  28.269   7.359  1.00  0.00     0.170 HD
BRANCH  11  14
HETATM   14  O1  UNL     1       4.844  29.144   6.948  1.00  0.00    -0.299 OA
BRANCH  14  15
HETATM   15  C2  UNL     1       4.279  27.946   6.445  1.00  0.00     0.125 C
HETATM   16  C1  UNL     1       5.260  27.094   5.708  1.00  0.00     0.040 C
HETATM   17  C3  UNL     1       3.625  27.143   7.551  1.00  0.00     0.040 C
ENDBRANCH  14  15
ENDBRANCH  11  14
ENDBRANCH   9  10
ENDBRANCH   6   9
ENDBRANCH   2   3
ENDBRANCH   1   2
BRANCH   1  18
HETATM   18  N2  UNL     1      11.789  24.375   4.922  1.00  0.00    -0.347 N
HETATM   19  C12 UNL     1      11.211  23.423   4.090  1.00  0.00     0.248 C
HETATM   20  O3  UNL     1      10.765  22.354   4.536  1.00  0.00    -0.271 OA
ATOM     21  H2  UNL     1      12.128  25.248   4.518  1.00  0.00     0.163 HD
BRANCH  19  22
HETATM   22  C13 UNL     1      11.114  23.655   2.623  1.00  0.00     0.274 C
BRANCH  22  23
HETATM   23  N3  UNL     1      11.747  24.936   2.300  1.00  0.00    -0.067 N
ATOM     24  H33 UNL     1      11.117  25.565   1.801  1.00  0.00     0.275 HD
ATOM     25  H32 UNL     1      11.899  25.513   3.127  1.00  0.00     0.275 HD
ATOM     26  H31 UNL     1      12.609  24.760   1.785  1.00  0.00     0.275 HD
ENDBRANCH  22  23
BRANCH  22  27
HETATM   27  C14 UNL     1       9.685  23.729   2.166  1.00  0.00     0.042 C
BRANCH  27  28
HETATM   28  C15 UNL     1       9.092  25.058   1.950  1.00  0.00     0.004 C
BRANCH  28  29
HETATM   29  C16 UNL     1       7.900  25.407   2.762  1.00  0.00     0.027 C
BRANCH  29  30
HETATM   30  C17 UNL     1       8.414  26.031   4.071  1.00  0.00     0.229 C
BRANCH  30  31
HETATM   31  N4  UNL     1       8.599  27.450   3.908  1.00  0.00    -0.079 N
ATOM     32  H43 UNL     1       7.740  27.969   4.088  1.00  0.00     0.274 HD
ATOM     33  H42 UNL     1       9.173  27.847   4.653  1.00  0.00     0.274 HD
ATOM     34  H41 UNL     1       8.980  27.654   2.984  1.00  0.00     0.274 HD
ENDBRANCH  30  31
ENDBRANCH  29  30
ENDBRANCH  28  29
ENDBRANCH  27  28
ENDBRANCH  22  27
ENDBRANCH  19  22
ENDBRANCH   1  18
BRANCH   1  35
HETATM   35  C18 UNL     1      13.216  23.532   6.494  1.00  0.00     0.137 C
BRANCH  35  36
HETATM   36  O4  UNL     1      13.975  24.277   7.378  1.00  0.00    -0.348 OA
ATOM     37  H4  UNL     1      14.865  24.279   7.048  1.00  0.00     0.219 HD
ENDBRANCH  35  36
BRANCH  35  38
HETATM   38  N5  UNL     1      13.997  22.502   6.036  1.00  0.00    -0.350 N
HETATM   39  C19 UNL     1      14.832  22.763   4.822  1.00  0.00     0.126 C
HETATM   40  C20 UNL     1      14.950  21.570   3.943  1.00  0.00     0.025 C
HETATM   41  C21 UNL     1      15.377  20.355   4.739  1.00  0.00    -0.003 C
HETATM   42  C26 UNL     1      14.217  20.072   5.670  1.00  0.00     0.040 C
HETATM   43  C27 UNL     1      14.160  21.223   6.663  1.00  0.00     0.178 C
BRANCH  41  44
HETATM   44  C22 UNL     1      15.648  19.202   3.808  1.00  0.00    -0.048 C
HETATM   45  C23 UNL     1      15.077  19.501   2.411  1.00  0.00     0.015 C
HETATM   46  C24 UNL     1      17.106  18.946   3.612  1.00  0.00     0.015 C
HETATM   47  C25 UNL     1      14.972  17.932   4.258  1.00  0.00     0.015 C
ENDBRANCH  41  44
BRANCH  43  48
HETATM   48  C28 UNL     1      15.417  21.213   7.515  1.00  0.00     0.241 C
HETATM   49  O5  UNL     1      15.954  22.299   7.901  1.00  0.00    -0.271 OA
HETATM   50  N6  UNL     1      16.056  20.019   7.926  1.00  0.00    -0.351 N
ATOM     51  H6  UNL     1      15.646  19.135   7.625  1.00  0.00     0.163 HD
BRANCH  50  52
HETATM   52  C29 UNL     1      17.229  19.962   8.730  1.00  0.00     0.022 C
HETATM   53  C30 UNL     1      17.935  18.599   8.645  1.00  0.00     0.037 C
HETATM   54  C31 UNL     1      16.785  20.062  10.198  1.00  0.00     0.037 C
HETATM   55  C32 UNL     1      18.255  21.009   8.437  1.00  0.00     0.037 C
ENDBRANCH  50  52
ENDBRANCH  43  48
ENDBRANCH  35  38
ENDBRANCH   1  35
TORSDOF 20
ENDMDL