MODEL 3
REMARK VINA RESULT: -8.792483371      2.171      4.201
REMARK  15 active torsions:
REMARK  status: ('A' for Active; 'I' for Inactive)
REMARK    1  A    between atoms: S1_2  and  C2_4
REMARK    2  A    between atoms: C2_4  and  C3_5
REMARK    3  A    between atoms: C3_5  and  C4_6
REMARK    4  A    between atoms: C4_6  and  N1_7
REMARK    5  A    between atoms: C4_6  and  C31_46
REMARK       I    between atoms: N1_7  and  C5_9
REMARK    6  A    between atoms: C5_9  and  C6_11
REMARK    7  A    between atoms: C6_11  and  C7_12
REMARK    8  A    between atoms: C6_11  and  N3_23
REMARK    9  A    between atoms: C7_12  and  C8_13
REMARK   10  A    between atoms: C8_13  and  C9_14
REMARK   11  A    between atoms: C9_14  and  C10_15
REMARK       I    between atoms: N3_23  and  C15_25
REMARK   12  A    between atoms: C15_25  and  C16_27
REMARK   13  A    between atoms: C16_27  and  N4_28
REMARK       I    between atoms: N4_28  and  C17_30
REMARK   14  A    between atoms: C17_30  and  O5_32
REMARK   15  A    between atoms: O5_32  and  C18_33
ROOT
HETATM    1  C6  UNL     1      13.709  22.538   5.793  1.00  0.00     0.080 C
ENDROOT
BRANCH   1   2
HETATM    2  C5  UNL     1      14.478  21.715   4.875  1.00  0.00     0.264 C
HETATM    3  N1  UNL     1      14.634  20.338   4.910  1.00  0.00    -0.341 N
ATOM      4  H1  UNL     1      14.175  19.793   5.640  1.00  0.00     0.163 HD
HETATM    5  O2  UNL     1      15.075  22.349   3.916  1.00  0.00    -0.266 OA
BRANCH   3   6
HETATM    6  C4  UNL     1      15.462  19.655   3.895  1.00  0.00     0.186 C
BRANCH   6   7
HETATM    7  C3  UNL     1      16.878  19.596   4.341  1.00  0.00     0.049 C
BRANCH   7   8
HETATM    8  C2  UNL     1      17.681  18.449   3.823  1.00  0.00     0.111 C
BRANCH   8   9
HETATM    9  S1  UNL     1      18.719  17.656   4.999  1.00  0.00     0.010 S
HETATM   10  C1  UNL     1      18.116  15.982   5.268  1.00  0.00     0.127 C
HETATM   11  O1  UNL     1      18.588  18.424   6.505  1.00  0.00    -0.258 OA
ENDBRANCH   8   9
ENDBRANCH   7   8
ENDBRANCH   6   7
BRANCH   6  12
HETATM   12  C31 UNL     1      14.859  18.370   3.490  1.00  0.00     0.196 C
HETATM   13  O6  UNL     1      14.607  17.481   4.325  1.00  0.00    -0.646 OA
HETATM   14  O7  UNL     1      14.580  18.179   2.163  1.00  0.00    -0.646 OA
ENDBRANCH   6  12
ENDBRANCH   3   6
ENDBRANCH   1   2
BRANCH   1  15
HETATM   15  C7  UNL     1      13.839  22.279   7.254  1.00  0.00     0.063 C
BRANCH  15  16
HETATM   16  C8  UNL     1      14.890  23.093   7.957  1.00  0.00     0.008 C
BRANCH  16  17
HETATM   17  C9  UNL     1      15.894  22.265   8.707  1.00  0.00     0.033 C
BRANCH  17  18
HETATM   18  C10 UNL     1      16.253  21.011   7.978  1.00  0.00     0.185 C
HETATM   19  C11 UNL     1      16.164  19.813   8.879  1.00  0.00     0.033 C
HETATM   20  C12 UNL     1      17.021  19.973  10.114  1.00  0.00     0.004 C
HETATM   21  C13 UNL     1      18.413  20.444   9.769  1.00  0.00     0.027 C
HETATM   22  C14 UNL     1      18.498  21.359   8.600  1.00  0.00     0.232 C
HETATM   23  N2  UNL     1      17.639  21.057   7.501  1.00  0.00    -0.071 N
ATOM     24  H22 UNL     1      17.912  20.200   7.018  1.00  0.00     0.277 HD
ATOM     25  H21 UNL     1      17.761  21.704   6.723  1.00  0.00     0.277 HD
ENDBRANCH  17  18
ENDBRANCH  16  17
ENDBRANCH  15  16
ENDBRANCH   1  15
BRANCH   1  26
HETATM   26  N3  UNL     1      12.356  22.824   5.337  1.00  0.00    -0.324 N
HETATM   27  C15 UNL     1      11.998  24.045   4.747  1.00  0.00     0.251 C
HETATM   28  O3  UNL     1      12.987  24.878   4.636  1.00  0.00    -0.270 OA
ATOM     29  H3  UNL     1      11.640  22.106   5.451  1.00  0.00     0.169 HD
BRANCH  27  30
HETATM   30  C16 UNL     1      10.676  24.469   4.252  1.00  0.00     0.120 C
HETATM   31  C22 UNL     1       9.729  23.285   4.461  1.00  0.00     0.047 C
HETATM   32  C23 UNL     1       8.911  23.008   3.228  1.00  0.00    -0.004 C
HETATM   33  C24 UNL     1       9.874  22.565   2.129  1.00  0.00     0.006 C
HETATM   34  C28 UNL     1       8.183  24.250   2.812  1.00  0.00    -0.043 C
HETATM   35  C25 UNL     1      10.762  23.741   1.798  1.00  0.00     0.008 C
HETATM   36  C26 UNL     1      10.610  24.819   2.815  1.00  0.00     0.024 C
HETATM   37  C27 UNL     1       9.161  25.362   2.572  1.00  0.00     0.016 C
HETATM   38  C29 UNL     1       7.379  23.983   1.529  1.00  0.00     0.015 C
HETATM   39  C30 UNL     1       7.140  24.575   3.861  1.00  0.00     0.015 C
BRANCH  30  40
HETATM   40  N4  UNL     1      10.231  25.583   5.063  1.00  0.00    -0.318 N
HETATM   41  C17 UNL     1      10.208  25.775   6.426  1.00  0.00     0.362 C
HETATM   42  O4  UNL     1      10.603  24.923   7.249  1.00  0.00    -0.238 OA
ATOM     43  H4  UNL     1       9.868  26.370   4.525  1.00  0.00     0.166 HD
BRANCH  41  44
HETATM   44  O5  UNL     1       9.733  26.959   7.005  1.00  0.00    -0.294 OA
BRANCH  44  45
HETATM   45  C18 UNL     1       8.370  27.166   7.285  1.00  0.00     0.061 C
HETATM   46  C19 UNL     1       8.284  28.398   8.162  1.00  0.00     0.046 C
HETATM   47  C20 UNL     1       7.779  26.004   8.065  1.00  0.00     0.046 C
HETATM   48  C21 UNL     1       7.516  27.397   6.072  1.00  0.00     0.046 C
ENDBRANCH  44  45
ENDBRANCH  41  44
ENDBRANCH  30  40
ENDBRANCH  27  30
ENDBRANCH   1  26
TORSDOF 15
ENDMDL