MODEL 3
REMARK VINA RESULT: -6.591577659      1.923      3.024
REMARK  13 active torsions:
REMARK  status: ('A' for Active; 'I' for Inactive)
REMARK       I    between atoms: C2_2  and  N1_4
REMARK    1  A    between atoms: N1_4  and  C3_6
REMARK    2  A    between atoms: C3_6  and  C4_7
REMARK    3  A    between atoms: C3_6  and  C8_15
REMARK    4  A    between atoms: C4_7  and  C5_8
REMARK       I    between atoms: C8_15  and  N4_17
REMARK    5  A    between atoms: N4_17  and  C9_19
REMARK    6  A    between atoms: C17_27  and  C18_28
REMARK    7  A    between atoms: C18_28  and  C19_29
REMARK    8  A    between atoms: C19_29  and  C20_30
REMARK    9  A    between atoms: C20_30  and  C21_31
REMARK       I    between atoms: C21_31  and  N5_33
REMARK   10  A    between atoms: C27_40  and  C28_41
REMARK   11  A    between atoms: C28_41  and  C29_42
REMARK   12  A    between atoms: C29_42  and  C30_43
REMARK   13  A    between atoms: C30_43  and  C31_44
ROOT
HETATM    1  C9  UNL     1      18.220  17.712   9.648  1.00  0.00     0.176 C
HETATM    2  C10 UNL     1      17.592  16.341   9.876  1.00  0.00     0.035 C
HETATM    3  C11 UNL     1      18.564  15.296   9.278  1.00  0.00     0.002 C
HETATM    4  C12 UNL     1      18.400  15.182   7.781  1.00  0.00     0.000 C
HETATM    5  C13 UNL     1      19.721  15.440   7.123  1.00  0.00     0.000 C
HETATM    6  C14 UNL     1      19.658  15.749   5.672  1.00  0.00     0.000 C
HETATM    7  C15 UNL     1      18.583  16.685   5.254  1.00  0.00     0.000 C
HETATM    8  C16 UNL     1      18.838  18.139   5.598  1.00  0.00     0.005 C
HETATM    9  C17 UNL     1      17.415  18.680   5.992  1.00  0.00    -0.012 C
HETATM   10  C24 UNL     1      17.603  20.058   6.557  1.00  0.00     0.041 C
HETATM   11  C25 UNL     1      18.172  20.060   7.940  1.00  0.00     0.150 C
HETATM   12  S1  UNL     1      18.830  21.775   8.178  1.00  0.00    -0.141 SA
HETATM   13  C26 UNL     1      17.197  22.378   8.720  1.00  0.00     0.101 C
HETATM   14  C27 UNL     1      16.518  21.217   9.303  1.00  0.00     0.098 C
HETATM   15  N8  UNL     1      17.300  20.009   9.041  1.00  0.00    -0.331 N
HETATM   16  C32 UNL     1      17.244  18.792   9.813  1.00  0.00     0.244 C
HETATM   17  O4  UNL     1      16.308  18.645  10.678  1.00  0.00    -0.271 OA
ENDROOT
BRANCH   1  18
HETATM   18  N4  UNL     1      19.397  17.910  10.492  1.00  0.00    -0.346 N
HETATM   19  C8  UNL     1      19.350  17.668  11.889  1.00  0.00     0.241 C
HETATM   20  O2  UNL     1      18.336  17.323  12.487  1.00  0.00    -0.271 OA
ATOM     21  H4  UNL     1      20.269  18.227  10.068  1.00  0.00     0.163 HD
BRANCH  19  22
HETATM   22  C3  UNL     1      20.644  17.823  12.684  1.00  0.00     0.182 C
BRANCH  22  23
HETATM   23  N1  UNL     1      20.870  16.425  13.184  1.00  0.00    -0.348 N
HETATM   24  C2  UNL     1      21.399  15.466  12.314  1.00  0.00     0.214 C
HETATM   25  C1  UNL     1      21.591  14.079  12.750  1.00  0.00     0.117 C
HETATM   26  O1  UNL     1      21.735  15.715  11.107  1.00  0.00    -0.274 OA
ATOM     27  H1  UNL     1      20.641  16.178  14.147  1.00  0.00     0.163 HD
ENDBRANCH  22  23
BRANCH  22  28
HETATM   28  C4  UNL     1      20.105  18.503  13.973  1.00  0.00     0.093 C
BRANCH  28  29
HETATM   29  C5  UNL     1      20.870  19.692  14.280  1.00  0.00     0.028 A
HETATM   30  C6  UNL     1      21.808  20.393  13.616  1.00  0.00     0.114 A
HETATM   31  N2  UNL     1      22.176  21.441  14.362  1.00  0.00    -0.360 N
HETATM   32  C7  UNL     1      21.464  21.396  15.508  1.00  0.00     0.180 A
ATOM     33  H2  UNL     1      22.869  22.147  14.111  1.00  0.00     0.166 HD
HETATM   34  N3  UNL     1      20.669  20.350  15.490  1.00  0.00    -0.354 N
ATOM     35  H3  UNL     1      20.023  20.071  16.229  1.00  0.00     0.166 HD
ENDBRANCH  28  29
ENDBRANCH  22  28
ENDBRANCH  19  22
ENDBRANCH   1  18
BRANCH  14  36
HETATM   36  C28 UNL     1      15.142  20.895   8.825  1.00  0.00     0.026 C
BRANCH  36  37
HETATM   37  C29 UNL     1      14.451  21.812   7.915  1.00  0.00     0.009 C
BRANCH  37  38
HETATM   38  C30 UNL     1      14.159  21.393   6.521  1.00  0.00     0.072 C
BRANCH  38  39
HETATM   39  C31 UNL     1      14.888  22.366   5.592  1.00  0.00     0.086 C
HETATM   40  N6  UNL     1      15.349  23.462   6.078  1.00  0.00    -0.391 N
ATOM     41  H62 UNL     1      15.203  23.659   7.068  1.00  0.00     0.157 HD
ATOM     42  H61 UNL     1      15.835  24.111   5.459  1.00  0.00     0.157 HD
HETATM   43  N7  UNL     1      15.089  22.095   4.231  1.00  0.00    -0.088 NA
ENDBRANCH  38  39
ENDBRANCH  37  38
ENDBRANCH  36  37
ENDBRANCH  14  36
BRANCH   9  44
HETATM   44  C18 UNL     1      16.717  18.715   4.676  1.00  0.00     0.005 C
BRANCH  44  45
HETATM   45  C19 UNL     1      15.235  18.477   4.708  1.00  0.00     0.010 C
BRANCH  45  46
HETATM   46  C20 UNL     1      14.985  17.572   3.471  1.00  0.00     0.103 C
BRANCH  46  47
HETATM   47  C21 UNL     1      15.124  18.463   2.266  1.00  0.00     0.218 C
HETATM   48  O3  UNL     1      14.400  19.477   2.203  1.00  0.00    -0.273 OA
HETATM   49  N5  UNL     1      16.040  18.163   1.239  1.00  0.00    -0.361 N
HETATM   50  C22 UNL     1      16.964  17.064   1.291  1.00  0.00     0.152 C
HETATM   51  C23 UNL     1      15.999  18.980   0.016  1.00  0.00     0.152 C
ENDBRANCH  46  47
ENDBRANCH  45  46
ENDBRANCH  44  45
ENDBRANCH   9  44
TORSDOF 13
ENDMDL