MODEL 4
REMARK VINA RESULT: -8.889435751      2.010      4.079
REMARK  19 active torsions:
REMARK  status: ('A' for Active; 'I' for Inactive)
REMARK    1  A    between atoms: C2_2  and  C3_3
REMARK    2  A    between atoms: C3_3  and  C4_4
REMARK    3  A    between atoms: C4_4  and  O1_5
REMARK    4  A    between atoms: O1_5  and  C5_6
REMARK    5  A    between atoms: C5_6  and  O2_7
REMARK    6  A    between atoms: C5_6  and  N1_9
REMARK    7  A    between atoms: C8_12  and  O3_13
REMARK    8  A    between atoms: C8_12  and  C9_15
REMARK    9  A    between atoms: C9_15  and  N2_16
REMARK       I    between atoms: N2_16  and  C10_18
REMARK       I    between atoms: C10_18  and  N3_20
REMARK   10  A    between atoms: N3_20  and  C11_21
REMARK   11  A    between atoms: C11_21  and  C12_22
REMARK   12  A    between atoms: C11_21  and  C30_48
REMARK   13  A    between atoms: C12_22  and  N4_23
REMARK   14  A    between atoms: N4_23  and  C13_25
REMARK   15  A    between atoms: C13_25  and  O5_26
REMARK   16  A    between atoms: C13_25  and  C14_28
REMARK   17  A    between atoms: C14_28  and  N5_29
REMARK       I    between atoms: N5_29  and  C15_30
REMARK   18  A    between atoms: C15_30  and  C16_32
REMARK   19  A    between atoms: C22_40  and  C23_41
ROOT
HETATM    1  C11 UNL     1       9.036  24.227   3.791  1.00  0.00     0.189 C
ENDROOT
BRANCH   1   2
HETATM    2  N3  UNL     1      10.091  24.356   4.657  1.00  0.00    -0.389 NA
HETATM    3  C10 UNL     1      11.126  24.549   5.558  1.00  0.00     0.392 C
HETATM    4  N2  UNL     1      12.041  23.445   5.819  1.00  0.00    -0.308 N
HETATM    5  O4  UNL     1      11.359  25.583   6.209  1.00  0.00    -0.230 OA
ATOM      6  H2  UNL     1      11.772  22.569   5.373  1.00  0.00     0.170 HD
BRANCH   4   7
HETATM    7  C9  UNL     1      13.195  23.364   6.554  1.00  0.00     0.104 C
BRANCH   7   8
HETATM    8  C8  UNL     1      14.495  22.836   6.166  1.00  0.00     0.093 C
HETATM    9  C7  UNL     1      15.467  22.270   7.125  1.00  0.00     0.063 C
HETATM   10  C6  UNL     1      15.853  20.818   6.877  1.00  0.00     0.130 C
HETATM   11  N1  UNL     1      16.151  20.519   5.499  1.00  0.00    -0.341 N
HETATM   12  C34 UNL     1      15.421  21.301   4.477  1.00  0.00     0.130 C
HETATM   13  C33 UNL     1      14.154  21.711   5.167  1.00  0.00     0.063 C
BRANCH  11  14
HETATM   14  C5  UNL     1      17.037  19.518   5.113  1.00  0.00     0.260 C
BRANCH  14  15
HETATM   15  O1  UNL     1      16.923  18.237   4.817  1.00  0.00    -0.317 OA
BRANCH  15  16
HETATM   16  C4  UNL     1      16.482  17.523   3.723  1.00  0.00     0.179 C
BRANCH  16  17
HETATM   17  C3  UNL     1      15.090  17.894   3.316  1.00  0.00     0.026 C
BRANCH  17  18
HETATM   18  C2  UNL     1      15.018  18.579   1.971  1.00  0.00    -0.002 C
HETATM   19  C1  UNL     1      16.171  18.269   1.067  1.00  0.00     0.005 C
ENDBRANCH  17  18
ENDBRANCH  16  17
ENDBRANCH  15  16
ENDBRANCH  14  15
BRANCH  14  20
HETATM   20  O2  UNL     1      18.326  19.939   5.016  1.00  0.00    -0.327 OA
ATOM     21  H2  UNL     1      18.539  20.204   4.129  1.00  0.00     0.221 HD
ENDBRANCH  14  20
ENDBRANCH  11  14
BRANCH   8  22
HETATM   22  O3  UNL     1      15.226  23.808   5.411  1.00  0.00    -0.384 OA
ATOM     23  H3  UNL     1      15.390  23.403   4.567  1.00  0.00     0.211 HD
ENDBRANCH   8  22
ENDBRANCH   7   8
ENDBRANCH   4   7
ENDBRANCH   1   2
BRANCH   1  24
HETATM   24  C12 UNL     1       8.655  25.677   3.255  1.00  0.00     0.161 C
BRANCH  24  25
HETATM   25  N4  UNL     1       7.793  26.296   4.202  1.00  0.00    -0.368 N
ATOM     26  H4  UNL     1       6.787  26.211   4.059  1.00  0.00     0.161 HD
BRANCH  25  27
HETATM   27  C13 UNL     1       8.236  27.012   5.312  1.00  0.00     0.154 C
BRANCH  27  28
HETATM   28  O5  UNL     1       9.421  27.535   5.192  1.00  0.00    -0.347 OA
ATOM     29  H5  UNL     1       9.511  28.171   4.491  1.00  0.00     0.219 HD
ENDBRANCH  27  28
BRANCH  27  30
HETATM   30  C14 UNL     1       7.525  27.222   6.587  1.00  0.00     0.161 C
HETATM   31  C26 UNL     1       8.087  26.041   7.489  1.00  0.00     0.054 C
HETATM   32  C27 UNL     1       7.715  26.551   8.866  1.00  0.00     0.004 C
HETATM   33  C28 UNL     1       8.057  28.026   8.806  1.00  0.00     0.004 C
HETATM   34  C29 UNL     1       8.099  28.395   7.324  1.00  0.00     0.054 C
BRANCH  30  35
HETATM   35  N5  UNL     1       6.162  27.142   6.567  1.00  0.00    -0.391 NA
HETATM   36  C15 UNL     1       4.796  27.051   6.568  1.00  0.00     0.324 C
HETATM   37  O6  UNL     1       4.140  26.519   7.540  1.00  0.00    -0.251 OA
BRANCH  36  38
HETATM   38  C16 UNL     1       3.869  27.514   5.507  1.00  0.00     0.075 A
HETATM   39  C17 UNL     1       3.386  28.787   5.537  1.00  0.00    -0.041 A
HETATM   40  C18 UNL     1       3.660  29.723   6.663  1.00  0.00     0.049 C
HETATM   41  C19 UNL     1       2.594  29.175   4.495  1.00  0.00     0.032 A
HETATM   42  C20 UNL     1       2.279  28.309   3.437  1.00  0.00     0.006 A
HETATM   43  C21 UNL     1       1.337  28.786   2.373  1.00  0.00     0.068 C
HETATM   44  N6  UNL     1       2.789  27.077   3.478  1.00  0.00    -0.362 N
HETATM   45  C22 UNL     1       3.610  26.623   4.516  1.00  0.00     0.030 A
ATOM     46  H6  UNL     1       2.569  26.435   2.716  1.00  0.00     0.165 HD
BRANCH  45  47
HETATM   47  C23 UNL     1       4.171  25.272   4.477  1.00  0.00     0.028 C
HETATM   48  C24 UNL     1       2.998  24.305   4.817  1.00  0.00     0.016 C
HETATM   49  C25 UNL     1       4.663  24.871   3.120  1.00  0.00     0.016 C
ENDBRANCH  45  47
ENDBRANCH  36  38
ENDBRANCH  30  35
ENDBRANCH  27  30
ENDBRANCH  25  27
ENDBRANCH  24  25
ENDBRANCH   1  24
BRANCH   1  50
HETATM   50  C30 UNL     1       9.474  23.570   2.481  1.00  0.00     0.015 C
HETATM   51  C31 UNL     1      10.704  24.255   1.894  1.00  0.00     0.012 C
HETATM   52  C32 UNL     1       9.790  22.123   2.567  1.00  0.00     0.012 C
ENDBRANCH   1  50
TORSDOF 19
ENDMDL