MODEL 2
REMARK VINA RESULT: -7.179496312      7.225     17.048
REMARK  14 active torsions:
REMARK  status: ('A' for Active; 'I' for Inactive)
REMARK    1  A    between atoms: C2_2  and  C3_3
REMARK    2  A    between atoms: C3_3  and  C5_5
REMARK    3  A    between atoms: C7_10  and  C8_11
REMARK       I    between atoms: C8_11  and  N2_13
REMARK    4  A    between atoms: N2_13  and  C9_15
REMARK    5  A    between atoms: C9_15  and  C10_16
REMARK    6  A    between atoms: C10_16  and  C11_17
REMARK    7  A    between atoms: C11_17  and  N3_18
REMARK    8  A    between atoms: C15_22  and  C16_23
REMARK    9  A    between atoms: C16_23  and  C17_24
REMARK   10  A    between atoms: C17_24  and  O3_25
REMARK   11  A    between atoms: C24_33  and  O4_35
REMARK   12  A    between atoms: C26_37  and  C27_38
REMARK   13  A    between atoms: C30_42  and  C31_43
REMARK   14  A    between atoms: C31_43  and  C32_44
ROOT
HETATM    1  C5  UNL     1       6.037  25.010   3.282  1.00  0.00     0.180 C
HETATM    2  N1  UNL     1       6.927  26.150   3.306  1.00  0.00    -0.347 N
ATOM      3  H1  UNL     1       7.039  26.698   2.452  1.00  0.00     0.163 HD
HETATM    4  C6  UNL     1       7.661  26.546   4.474  1.00  0.00     0.231 C
HETATM    5  O1  UNL     1       8.866  26.955   4.342  1.00  0.00    -0.273 OA
HETATM    6  C7  UNL     1       7.091  26.505   5.842  1.00  0.00     0.169 C
HETATM    7  C19 UNL     1       5.853  27.366   5.994  1.00  0.00     0.026 C
HETATM    8  C20 UNL     1       4.742  26.631   6.706  1.00  0.00     0.039 C
HETATM    9  C21 UNL     1       3.353  27.066   6.196  1.00  0.00     0.063 C
HETATM   10  C22 UNL     1       2.457  27.009   7.449  1.00  0.00     0.041 C
HETATM   11  C23 UNL     1       2.715  28.219   8.311  1.00  0.00     0.043 C
HETATM   12  C24 UNL     1       2.426  29.530   7.567  1.00  0.00     0.080 C
HETATM   13  C25 UNL     1       0.967  29.918   7.891  1.00  0.00     0.048 C
HETATM   14  C26 UNL     1       2.562  29.280   6.108  1.00  0.00     0.156 C
HETATM   15  O5  UNL     1       3.496  28.342   5.775  1.00  0.00    -0.372 OA
HETATM   16  C29 UNL     1       2.827  26.065   5.199  1.00  0.00     0.063 C
HETATM   17  C30 UNL     1       2.964  26.509   3.748  1.00  0.00     0.087 C
HETATM   18  N4  UNL     1       3.502  25.484   2.912  1.00  0.00    -0.355 N
ATOM     19  H4  UNL     1       2.823  24.798   2.582  1.00  0.00     0.162 HD
HETATM   20  C35 UNL     1       4.823  25.269   2.470  1.00  0.00     0.241 C
HETATM   21  O6  UNL     1       5.091  25.282   1.202  1.00  0.00    -0.271 OA
ENDROOT
BRANCH   6  22
HETATM   22  C8  UNL     1       8.164  26.931   6.793  1.00  0.00     0.230 C
HETATM   23  O2  UNL     1       8.244  28.138   7.089  1.00  0.00    -0.273 OA
HETATM   24  N2  UNL     1       9.077  26.038   7.363  1.00  0.00    -0.360 N
ATOM     25  H2  UNL     1       9.011  25.050   7.118  1.00  0.00     0.162 HD
BRANCH  24  26
HETATM   26  C9  UNL     1      10.103  26.452   8.279  1.00  0.00     0.124 C
BRANCH  26  27
HETATM   27  C10 UNL     1      11.393  25.708   8.173  1.00  0.00     0.050 C
BRANCH  27  28
HETATM   28  C11 UNL     1      11.575  25.282   6.725  1.00  0.00     0.274 C
BRANCH  28  29
HETATM   29  N3  UNL     1      12.197  23.996   6.598  1.00  0.00     0.088 N
HETATM   30  C12 UNL     1      11.272  22.974   6.165  1.00  0.00     0.272 C
HETATM   31  C13 UNL     1      11.863  21.626   6.468  1.00  0.00     0.031 C
HETATM   32  C14 UNL     1      13.200  21.491   5.795  1.00  0.00     0.008 C
HETATM   33  C15 UNL     1      14.118  22.668   6.114  1.00  0.00     0.016 C
HETATM   34  C18 UNL     1      13.393  23.971   5.812  1.00  0.00     0.277 C
BRANCH  33  35
HETATM   35  C16 UNL     1      14.531  22.572   7.558  1.00  0.00     0.032 C
BRANCH  35  36
HETATM   36  C17 UNL     1      16.027  22.521   7.698  1.00  0.00     0.164 C
BRANCH  36  37
HETATM   37  O3  UNL     1      16.532  23.784   7.363  1.00  0.00    -0.401 OA
ATOM     38  H3  UNL     1      16.053  24.097   6.605  1.00  0.00     0.209 HD
ENDBRANCH  36  37
ENDBRANCH  35  36
ENDBRANCH  33  35
ENDBRANCH  28  29
ENDBRANCH  27  28
ENDBRANCH  26  27
ENDBRANCH  24  26
ENDBRANCH   6  22
BRANCH   1  39
HETATM   39  C3  UNL     1       6.717  23.723   2.937  1.00  0.00     0.013 C
HETATM   40  C4  UNL     1       5.944  22.589   3.514  1.00  0.00     0.012 C
BRANCH  39  41
HETATM   41  C2  UNL     1       8.149  23.578   3.260  1.00  0.00     0.002 C
HETATM   42  C1  UNL     1       8.833  22.363   2.690  1.00  0.00     0.005 C
ENDBRANCH  39  41
ENDBRANCH   1  39
BRANCH  14  43
HETATM   43  C27 UNL     1       2.921  30.529   5.320  1.00  0.00     0.030 C
HETATM   44  C28 UNL     1       1.729  31.158   4.662  1.00  0.00     0.007 C
ENDBRANCH  14  43
BRANCH  17  45
HETATM   45  C31 UNL     1       1.533  26.874   3.333  1.00  0.00     0.029 C
BRANCH  45  46
HETATM   46  C32 UNL     1       1.430  27.698   2.106  1.00  0.00    -0.021 C
HETATM   47  C33 UNL     1       2.473  28.781   2.007  1.00  0.00     0.009 C
HETATM   48  C34 UNL     1       1.213  26.925   0.846  1.00  0.00     0.009 C
ENDBRANCH  45  46
ENDBRANCH  17  45
BRANCH  12  49
HETATM   49  O4  UNL     1       3.285  30.456   8.107  1.00  0.00    -0.388 OA
ATOM     50  H4  UNL     1       4.157  30.164   7.870  1.00  0.00     0.210 HD
ENDBRANCH  12  49
TORSDOF 14
ENDMDL