MODEL 5
REMARK VINA RESULT: -9.734208977      2.327     11.115
REMARK  17 active torsions:
REMARK  status: ('A' for Active; 'I' for Inactive)
REMARK    1  A    between atoms: C2_2  and  C3_3
REMARK    2  A    between atoms: C3_3  and  C4_4
REMARK       I    between atoms: N1_5  and  C5_7
REMARK       I    between atoms: C5_7  and  N2_9
REMARK    3  A    between atoms: N2_9  and  C6_10
REMARK    4  A    between atoms: C6_10  and  C7_11
REMARK    5  A    between atoms: C6_10  and  C14_18
REMARK    6  A    between atoms: C7_11  and  C8_12
REMARK       I    between atoms: C14_18  and  N3_20
REMARK    7  A    between atoms: N3_20  and  C15_22
REMARK    8  A    between atoms: C15_22  and  O3_23
REMARK    9  A    between atoms: C15_22  and  C16_25
REMARK   10  A    between atoms: C16_25  and  C17_26
REMARK   11  A    between atoms: C16_25  and  C29_48
REMARK   12  A    between atoms: C17_26  and  N4_27
REMARK   13  A    between atoms: C21_31  and  N5_32
REMARK   14  A    between atoms: C21_31  and  C25_42
REMARK       I    between atoms: N5_32  and  C22_34
REMARK       I    between atoms: C22_34  and  N6_36
REMARK   15  A    between atoms: N6_36  and  C23_38
REMARK   16  A    between atoms: C23_38  and  O5_40
REMARK   17  A    between atoms: C25_42  and  O7_44
ROOT
HETATM    1  C16 UNL     1      12.729  23.561   4.702  1.00  0.00     0.096 C
ENDROOT
BRANCH   1   2
HETATM    2  C15 UNL     1      14.162  23.263   4.572  1.00  0.00     0.124 C
BRANCH   2   3
HETATM    3  N3  UNL     1      14.765  22.036   4.279  1.00  0.00    -0.308 N
HETATM    4  C14 UNL     1      15.429  21.240   5.297  1.00  0.00     0.259 C
HETATM    5  O2  UNL     1      15.345  21.711   6.483  1.00  0.00    -0.270 OA
ATOM      6  H3  UNL     1      14.737  21.689   3.320  1.00  0.00     0.170 HD
BRANCH   4   7
HETATM    7  C6  UNL     1      16.154  19.989   5.022  1.00  0.00     0.261 C
BRANCH   7   8
HETATM    8  N2  UNL     1      17.253  19.872   5.850  1.00  0.00    -0.381 NA
HETATM    9  C5  UNL     1      18.319  19.759   6.654  1.00  0.00     0.393 C
HETATM   10  N1  UNL     1      18.290  18.722   7.696  1.00  0.00    -0.311 N
HETATM   11  O1  UNL     1      19.418  20.412   6.701  1.00  0.00    -0.230 OA
HETATM   12  C4  UNL     1      17.579  18.921   8.747  1.00  0.00     0.066 C
ATOM     13  H1  UNL     1      18.825  17.860   7.586  1.00  0.00     0.170 HD
BRANCH  12  14
HETATM   14  C3  UNL     1      16.770  20.113   9.023  1.00  0.00     0.044 C
BRANCH  14  15
HETATM   15  C2  UNL     1      15.694  19.927  10.053  1.00  0.00     0.001 C
HETATM   16  C1  UNL     1      14.951  21.181  10.395  1.00  0.00     0.005 C
ENDBRANCH  14  15
ENDBRANCH  12  14
ENDBRANCH   7   8
BRANCH   7  17
HETATM   17  C7  UNL     1      15.243  18.779   4.841  1.00  0.00     0.054 C
BRANCH  17  18
HETATM   18  C8  UNL     1      15.522  18.067   3.524  1.00  0.00    -0.011 C
HETATM   19  C9  UNL     1      16.955  17.822   3.235  1.00  0.00     0.005 C
HETATM   20  C10 UNL     1      17.031  17.020   1.918  1.00  0.00     0.000 C
HETATM   21  C11 UNL     1      16.586  17.911   0.810  1.00  0.00     0.000 C
HETATM   22  C12 UNL     1      15.204  18.487   1.044  1.00  0.00     0.000 C
HETATM   23  C13 UNL     1      14.965  18.976   2.430  1.00  0.00     0.005 C
ENDBRANCH  17  18
ENDBRANCH   7  17
ENDBRANCH   4   7
ENDBRANCH   2   3
BRANCH   2  24
HETATM   24  O3  UNL     1      15.008  24.245   4.751  1.00  0.00    -0.349 OA
ATOM     25  H3  UNL     1      15.211  24.731   3.961  1.00  0.00     0.219 HD
ENDBRANCH   2  24
ENDBRANCH   1   2
BRANCH   1  26
HETATM   26  C17 UNL     1      12.048  22.656   3.666  1.00  0.00     0.285 C
BRANCH  26  27
HETATM   27  N4  UNL     1      11.267  23.285   2.688  1.00  0.00     0.089 N
HETATM   28  C18 UNL     1      10.904  24.610   3.179  1.00  0.00     0.272 C
HETATM   29  C19 UNL     1      10.084  25.219   2.064  1.00  0.00     0.033 C
HETATM   30  C20 UNL     1       8.631  25.212   2.324  1.00  0.00     0.043 C
HETATM   31  C21 UNL     1       8.093  24.183   3.259  1.00  0.00     0.124 C
HETATM   32  C27 UNL     1       8.944  22.972   3.458  1.00  0.00     0.072 C
HETATM   33  C28 UNL     1       9.957  22.639   2.452  1.00  0.00     0.275 C
BRANCH  31  34
HETATM   34  N5  UNL     1       7.872  24.768   4.577  1.00  0.00    -0.324 N
HETATM   35  C22 UNL     1       7.592  26.128   4.827  1.00  0.00     0.319 C
HETATM   36  O4  UNL     1       7.488  27.022   3.924  1.00  0.00    -0.247 OA
HETATM   37  N6  UNL     1       7.406  26.596   6.153  1.00  0.00    -0.317 N
ATOM     38  H6  UNL     1       7.472  25.923   6.917  1.00  0.00     0.166 HD
ATOM     39  H5  UNL     1       7.923  24.145   5.382  1.00  0.00     0.165 HD
BRANCH  37  40
HETATM   40  C23 UNL     1       7.128  27.979   6.480  1.00  0.00     0.217 C
HETATM   41  C24 UNL     1       7.470  28.302   7.934  1.00  0.00     0.063 C
BRANCH  40  42
HETATM   42  O5  UNL     1       5.780  28.230   6.192  1.00  0.00    -0.377 OA
ATOM     43  H5  UNL     1       5.737  28.689   5.361  1.00  0.00     0.212 HD
ENDBRANCH  40  42
ENDBRANCH  37  40
ENDBRANCH  31  34
BRANCH  31  44
HETATM   44  C25 UNL     1       6.764  23.748   2.758  1.00  0.00     0.287 C
HETATM   45  O6  UNL     1       6.004  22.925   3.260  1.00  0.00    -0.262 OA
BRANCH  44  46
HETATM   46  O7  UNL     1       6.334  24.358   1.562  1.00  0.00    -0.325 OA
HETATM   47  C26 UNL     1       4.957  24.589   1.350  1.00  0.00     0.213 C
ENDBRANCH  44  46
ENDBRANCH  31  44
ENDBRANCH  26  27
ENDBRANCH   1  26
BRANCH   1  48
HETATM   48  C29 UNL     1      12.190  23.315   6.061  1.00  0.00    -0.039 C
HETATM   49  C30 UNL     1      10.921  24.145   6.358  1.00  0.00     0.015 C
HETATM   50  C31 UNL     1      11.921  21.857   6.341  1.00  0.00     0.015 C
HETATM   51  C32 UNL     1      13.167  23.781   7.121  1.00  0.00     0.015 C
ENDBRANCH   1  48
TORSDOF 17
ENDMDL