MODEL 4
REMARK VINA RESULT: -8.062470837      1.924      3.208
REMARK  18 active torsions:
REMARK  status: ('A' for Active; 'I' for Inactive)
REMARK    1  A    between atoms: C2_2  and  C3_3
REMARK    2  A    between atoms: C3_3  and  C4_4
REMARK    3  A    between atoms: C4_4  and  C5_5
REMARK    4  A    between atoms: C5_5  and  O1_6
REMARK    5  A    between atoms: C5_5  and  N1_8
REMARK    6  A    between atoms: N1_8  and  C6_9
REMARK    7  A    between atoms: C6_9  and  C8_11
REMARK       I    between atoms: C8_11  and  N2_13
REMARK    8  A    between atoms: N2_13  and  C9_15
REMARK    9  A    between atoms: C9_15  and  N3_16
REMARK   10  A    between atoms: C9_15  and  C19_30
REMARK       I    between atoms: N3_16  and  C10_18
REMARK       I    between atoms: C10_18  and  N4_20
REMARK   11  A    between atoms: N4_20  and  C11_22
REMARK   12  A    between atoms: C11_22  and  C13_24
REMARK   13  A    between atoms: C19_30  and  O4_31
REMARK   14  A    between atoms: C19_30  and  C20_33
REMARK   15  A    between atoms: C20_33  and  O5_34
REMARK   16  A    between atoms: C20_33  and  C21_36
REMARK   17  A    between atoms: C21_36  and  C22_37
REMARK   18  A    between atoms: C22_37  and  C23_38
ROOT
HETATM    1  C9  UNL     1      18.418  19.007   9.282  1.00  0.00     0.220 C
ENDROOT
BRANCH   1   2
HETATM    2  N2  UNL     1      17.592  20.178   9.273  1.00  0.00    -0.331 N
HETATM    3  C8  UNL     1      16.241  20.165   9.630  1.00  0.00     0.279 C
HETATM    4  O2  UNL     1      15.668  19.125   9.981  1.00  0.00    -0.265 OA
ATOM      5  H2  UNL     1      18.011  21.064   8.991  1.00  0.00     0.165 HD
BRANCH   3   6
HETATM    6  C6  UNL     1      15.460  21.426   9.596  1.00  0.00     0.150 C
HETATM    7  C7  UNL     1      14.695  21.799  10.851  1.00  0.00     0.091 C
BRANCH   6   8
HETATM    8  N1  UNL     1      15.425  22.124   8.653  1.00  0.00    -0.384 NA
BRANCH   8   9
HETATM    9  C5  UNL     1      15.405  22.876   7.599  1.00  0.00     0.190 C
BRANCH   9  10
HETATM   10  C4  UNL     1      14.217  23.032   6.672  1.00  0.00     0.100 C
BRANCH  10  11
HETATM   11  C3  UNL     1      13.916  21.683   6.079  1.00  0.00     0.009 C
BRANCH  11  12
HETATM   12  C2  UNL     1      12.457  21.371   6.318  1.00  0.00    -0.004 C
HETATM   13  C1  UNL     1      11.705  22.674   6.392  1.00  0.00     0.005 C
ENDBRANCH  11  12
ENDBRANCH  10  11
ENDBRANCH   9  10
BRANCH   9  14
HETATM   14  O1  UNL     1      16.423  23.594   7.220  1.00  0.00    -0.339 OA
ATOM     15  H1  UNL     1      17.246  23.252   7.549  1.00  0.00     0.220 HD
ENDBRANCH   9  14
ENDBRANCH   8   9
ENDBRANCH   6   8
ENDBRANCH   3   6
ENDBRANCH   1   2
BRANCH   1  16
HETATM   16  N3  UNL     1      17.927  18.177   8.181  1.00  0.00    -0.319 N
HETATM   17  C10 UNL     1      18.132  18.548   6.800  1.00  0.00     0.321 C
HETATM   18  O3  UNL     1      18.777  19.610   6.663  1.00  0.00    -0.247 OA
HETATM   19  N4  UNL     1      17.656  17.796   5.745  1.00  0.00    -0.316 N
ATOM     20  H4  UNL     1      17.125  16.997   6.091  1.00  0.00     0.170 HD
ATOM     21  H3  UNL     1      17.428  17.313   8.394  1.00  0.00     0.166 HD
BRANCH  19  22
HETATM   22  C11 UNL     1      17.678  17.795   4.350  1.00  0.00    -0.009 C
HETATM   23  C12 UNL     1      18.857  17.121   3.737  1.00  0.00     0.064 C
BRANCH  22  24
HETATM   24  C13 UNL     1      16.387  17.619   3.575  1.00  0.00     0.031 C
HETATM   25  C14 UNL     1      15.336  18.554   4.032  1.00  0.00     0.010 C
HETATM   26  C15 UNL     1      14.962  19.656   3.052  1.00  0.00     0.001 C
HETATM   27  C16 UNL     1      14.863  19.095   1.668  1.00  0.00     0.000 C
HETATM   28  C17 UNL     1      16.281  18.680   1.282  1.00  0.00     0.001 C
HETATM   29  C18 UNL     1      16.579  17.450   2.119  1.00  0.00     0.010 C
ENDBRANCH  22  24
ENDBRANCH  19  22
ENDBRANCH   1  16
BRANCH   1  30
HETATM   30  C19 UNL     1      18.352  18.170  10.538  1.00  0.00     0.192 C
BRANCH  30  31
HETATM   31  O4  UNL     1      17.569  17.075  10.065  1.00  0.00    -0.389 OA
ATOM     32  H4  UNL     1      17.765  17.120   9.137  1.00  0.00     0.210 HD
ENDBRANCH  30  31
BRANCH  30  33
HETATM   33  C20 UNL     1      19.676  17.774  10.996  1.00  0.00     0.189 C
BRANCH  33  34
HETATM   34  O5  UNL     1      20.103  18.753  11.896  1.00  0.00    -0.390 OA
ATOM     35  H5  UNL     1      20.664  18.320  12.529  1.00  0.00     0.210 HD
ENDBRANCH  33  34
BRANCH  33  36
HETATM   36  C21 UNL     1      19.940  16.439  11.656  1.00  0.00     0.138 A
HETATM   37  O8  UNL     1      20.376  16.968  13.012  1.00  0.00    -0.359 OA
HETATM   38  C32 UNL     1      19.452  15.937  12.911  1.00  0.00     0.090 A
HETATM   39  C33 UNL     1      18.022  16.166  13.397  1.00  0.00     0.049 C
HETATM   40  C34 UNL     1      20.040  14.820  13.766  1.00  0.00     0.049 C
BRANCH  36  41
HETATM   41  C22 UNL     1      21.048  15.740  10.868  1.00  0.00     0.090 C
HETATM   42  C29 UNL     1      21.299  14.350  11.448  1.00  0.00     0.050 C
HETATM   43  C30 UNL     1      22.708  14.245  11.893  1.00  0.00     0.180 C
HETATM   44  O6  UNL     1      23.252  15.509  11.713  1.00  0.00    -0.321 OA
HETATM   45  C31 UNL     1      22.369  16.336  10.972  1.00  0.00     0.271 C
HETATM   46  O7  UNL     1      22.885  17.423  10.545  1.00  0.00    -0.264 OA
BRANCH  41  47
HETATM   47  C23 UNL     1      20.749  15.582   9.392  1.00  0.00     0.007 C
HETATM   48  C24 UNL     1      19.654  14.499   9.180  1.00  0.00     0.006 C
HETATM   49  C25 UNL     1      19.050  14.723   7.814  1.00  0.00     0.000 C
HETATM   50  C26 UNL     1      20.055  15.363   6.922  1.00  0.00     0.000 C
HETATM   51  C27 UNL     1      21.477  14.927   7.132  1.00  0.00     0.000 C
HETATM   52  C28 UNL     1      21.910  15.029   8.599  1.00  0.00     0.006 C
ENDBRANCH  41  47
ENDBRANCH  36  41
ENDBRANCH  33  36
ENDBRANCH  30  33
ENDBRANCH   1  30
TORSDOF 18
ENDMDL