MODEL 2
REMARK VINA RESULT: -7.699351635      1.013      1.528
REMARK  16 active torsions:
REMARK  status: ('A' for Active; 'I' for Inactive)
REMARK    1  A    between atoms: C2_2  and  C3_3
REMARK    2  A    between atoms: C3_3  and  C4_4
REMARK    3  A    between atoms: C4_4  and  C5_5
REMARK    4  A    between atoms: C5_5  and  C6_6
REMARK    5  A    between atoms: C6_6  and  C7_7
REMARK    6  A    between atoms: C7_7  and  C8_8
REMARK    7  A    between atoms: C8_8  and  C9_10
REMARK    8  A    between atoms: C9_10  and  C10_11
REMARK    9  A    between atoms: C10_11  and  C11_12
REMARK   10  A    between atoms: C11_12  and  C12_13
REMARK   11  A    between atoms: C12_13  and  C13_14
REMARK   12  A    between atoms: C13_14  and  C14_15
REMARK   13  A    between atoms: C15_18  and  O2_19
REMARK   14  A    between atoms: N3_27  and  C19_28
REMARK   15  A    between atoms: C28_45  and  C29_46
REMARK   16  A    between atoms: C29_46  and  C30_47
ROOT
HETATM    1  C14 UNL     1       6.606  24.449   2.935  1.00  0.00     0.175 C
HETATM    2  N1  UNL     1       6.661  25.529   3.855  1.00  0.00    -0.359 N
ATOM      3  H1  UNL     1       5.723  25.798   4.155  1.00  0.00     0.162 HD
HETATM    4  C15 UNL     1       7.608  26.316   4.457  1.00  0.00     0.135 C
HETATM    5  C16 UNL     1       8.677  26.010   5.438  1.00  0.00     0.156 C
HETATM    6  C17 UNL     1       9.656  27.158   5.605  1.00  0.00     0.041 C
HETATM    7  N2  UNL     1       8.101  25.617   6.708  1.00  0.00    -0.331 N
ATOM      8  H2  UNL     1       7.524  24.776   6.684  1.00  0.00     0.165 HD
HETATM    9  C18 UNL     1       8.221  26.221   7.952  1.00  0.00     0.324 C
HETATM   10  O3  UNL     1       8.516  25.505   8.981  1.00  0.00    -0.247 OA
HETATM   11  N3  UNL     1       8.049  27.622   8.247  1.00  0.00    -0.288 N
HETATM   12  C21 UNL     1       7.057  28.468   7.645  1.00  0.00     0.161 C
HETATM   13  C22 UNL     1       6.116  29.009   8.703  1.00  0.00     0.188 C
HETATM   14  O4  UNL     1       5.172  29.874   8.245  1.00  0.00    -0.387 OA
HETATM   15  C23 UNL     1       4.531  29.583   7.080  1.00  0.00     0.193 C
HETATM   16  C24 UNL     1       3.199  28.853   7.265  1.00  0.00     0.193 C
HETATM   17  O5  UNL     1       3.332  27.497   7.412  1.00  0.00    -0.387 OA
HETATM   18  C25 UNL     1       3.535  26.783   6.256  1.00  0.00     0.187 C
HETATM   19  C26 UNL     1       2.480  25.755   5.950  1.00  0.00     0.148 C
HETATM   20  N5  UNL     1       1.885  25.864   4.659  1.00  0.00    -0.357 N
ATOM     21  H5  UNL     1       1.038  26.425   4.576  1.00  0.00     0.162 HD
HETATM   22  C27 UNL     1       2.392  25.241   3.465  1.00  0.00     0.240 C
HETATM   23  O6  UNL     1       2.024  25.731   2.375  1.00  0.00    -0.271 OA
HETATM   24  C28 UNL     1       3.293  24.095   3.491  1.00  0.00     0.177 C
HETATM   25  N6  UNL     1       4.127  24.019   2.303  1.00  0.00    -0.346 N
ATOM     26  H6  UNL     1       3.735  23.479   1.532  1.00  0.00     0.163 HD
HETATM   27  C33 UNL     1       5.367  24.568   2.062  1.00  0.00     0.241 C
HETATM   28  O7  UNL     1       5.536  25.267   0.993  1.00  0.00    -0.271 OA
ENDROOT
BRANCH   1  29
HETATM   29  C13 UNL     1       6.697  23.055   3.396  1.00  0.00     0.035 C
BRANCH  29  30
HETATM   30  C12 UNL     1       7.879  22.239   3.037  1.00  0.00     0.002 C
BRANCH  30  31
HETATM   31  C11 UNL     1       9.069  23.084   2.624  1.00  0.00     0.000 C
BRANCH  31  32
HETATM   32  C10 UNL     1      10.382  22.523   3.098  1.00  0.00     0.007 C
BRANCH  32  33
HETATM   33  C9  UNL     1      10.793  23.072   4.431  1.00  0.00     0.078 C
BRANCH  33  34
HETATM   34  C8  UNL     1      11.941  22.293   4.956  1.00  0.00     0.127 C
HETATM   35  O1  UNL     1      11.750  21.559   5.901  1.00  0.00    -0.298 OA
BRANCH  34  36
HETATM   36  C7  UNL     1      13.306  22.410   4.327  1.00  0.00     0.078 C
BRANCH  36  37
HETATM   37  C6  UNL     1      14.101  21.142   4.554  1.00  0.00     0.007 C
BRANCH  37  38
HETATM   38  C5  UNL     1      14.706  20.739   3.222  1.00  0.00     0.000 C
BRANCH  38  39
HETATM   39  C4  UNL     1      15.156  19.300   3.306  1.00  0.00     0.000 C
BRANCH  39  40
HETATM   40  C3  UNL     1      14.854  18.549   2.039  1.00  0.00    -0.000 C
BRANCH  40  41
HETATM   41  C2  UNL     1      16.042  18.508   1.099  1.00  0.00    -0.005 C
HETATM   42  C1  UNL     1      16.986  17.427   1.627  1.00  0.00     0.005 C
ENDBRANCH  40  41
ENDBRANCH  39  40
ENDBRANCH  38  39
ENDBRANCH  37  38
ENDBRANCH  36  37
ENDBRANCH  34  36
ENDBRANCH  33  34
ENDBRANCH  32  33
ENDBRANCH  31  32
ENDBRANCH  30  31
ENDBRANCH  29  30
ENDBRANCH   1  29
BRANCH   4  43
HETATM   43  O2  UNL     1       7.585  27.584   4.128  1.00  0.00    -0.348 OA
ATOM     44  H2  UNL     1       7.177  28.166   4.759  1.00  0.00     0.219 HD
ENDBRANCH   4  43
BRANCH  24  45
HETATM   45  C29 UNL     1       2.632  22.798   3.742  1.00  0.00     0.038 C
BRANCH  45  46
HETATM   46  C30 UNL     1       3.275  21.534   3.355  1.00  0.00    -0.020 C
HETATM   47  C31 UNL     1       2.458  20.459   2.731  1.00  0.00     0.009 C
HETATM   48  C32 UNL     1       3.944  20.886   4.594  1.00  0.00     0.009 C
ENDBRANCH  45  46
ENDBRANCH  24  45
BRANCH  11  49
HETATM   49  C19 UNL     1       8.954  28.133   9.233  1.00  0.00     0.076 C
HETATM   50  C20 UNL     1       8.500  28.548  10.566  1.00  0.00     0.089 C
HETATM   51  N4  UNL     1      10.182  28.216   8.907  1.00  0.00    -0.389 N
ATOM     52  H42 UNL     1      10.497  27.928   7.981  1.00  0.00     0.157 HD
ATOM     53  H41 UNL     1      10.826  28.580   9.609  1.00  0.00     0.157 HD
ENDBRANCH  11  49
TORSDOF 16
ENDMDL