MODEL 2
REMARK VINA RESULT: -8.069395622      4.991     14.404
REMARK  18 active torsions:
REMARK  status: ('A' for Active; 'I' for Inactive)
REMARK    1  A    between atoms: C2_2  and  N1_3
REMARK    2  A    between atoms: N1_3  and  C3_4
REMARK    3  A    between atoms: N1_3  and  C5_6
REMARK    4  A    between atoms: C5_6  and  C7_8
REMARK    5  A    between atoms: C7_8  and  N2_9
REMARK    6  A    between atoms: C7_8  and  C28_40
REMARK    7  A    between atoms: C8_11  and  O1_12
REMARK    8  A    between atoms: C8_11  and  N3_14
REMARK    9  A    between atoms: N3_14  and  C9_16
REMARK   10  A    between atoms: C9_16  and  C10_17
REMARK   11  A    between atoms: C10_17  and  C11_18
REMARK   12  A    between atoms: C11_18  and  C12_19
REMARK   13  A    between atoms: C12_19  and  C14_21
REMARK   14  A    between atoms: C20_29  and  C21_30
REMARK   15  A    between atoms: C21_30  and  N5_31
REMARK   16  A    between atoms: C25_35  and  O2_36
REMARK   17  A    between atoms: C28_40  and  C29_41
REMARK       I    between atoms: C29_41  and  N6_43
REMARK   18  A    between atoms: N6_43  and  C30_45
ROOT
HETATM    1  N3  UNL     1       6.842  26.542   7.057  1.00  0.00    -0.356 N
ATOM      2  H3  UNL     1       6.559  25.564   7.127  1.00  0.00     0.163 HD
ENDROOT
BRANCH   1   3
HETATM    3  C8  UNL     1       6.703  27.148   5.787  1.00  0.00     0.216 C
HETATM    4  N2  UNL     1       5.578  27.188   5.157  1.00  0.00    -0.327 N
ATOM      5  H2  UNL     1       5.574  27.645   4.245  1.00  0.00     0.169 HD
BRANCH   4   6
HETATM    6  C7  UNL     1       4.347  26.654   5.615  1.00  0.00     0.030 C
BRANCH   6   7
HETATM    7  C5  UNL     1       3.420  27.608   6.280  1.00  0.00     0.126 C
HETATM    8  C6  UNL     1       3.271  27.217   7.747  1.00  0.00     0.038 C
BRANCH   7   9
HETATM    9  N1  UNL     1       3.591  28.978   6.167  1.00  0.00    -0.385 N
BRANCH   9  10
HETATM   10  C2  UNL     1       4.108  29.769   7.177  1.00  0.00     0.054 C
HETATM   11  C1  UNL     1       3.590  31.185   7.152  1.00  0.00     0.054 C
ENDBRANCH   9  10
BRANCH   9  12
HETATM   12  C3  UNL     1       2.601  29.589   5.355  1.00  0.00     0.118 C
HETATM   13  C4  UNL     1       2.808  29.618   3.884  1.00  0.00     0.026 C
ENDBRANCH   9  12
ENDBRANCH   7   9
ENDBRANCH   6   7
BRANCH   6  14
HETATM   14  C28 UNL     1       3.744  25.716   4.648  1.00  0.00     0.081 A
HETATM   15  C34 UNL     1       2.386  26.016   4.093  1.00  0.00     0.025 A
HETATM   16  C35 UNL     1       1.855  24.789   4.784  1.00  0.00     0.003 A
HETATM   17  C36 UNL     1       3.228  24.410   5.230  1.00  0.00     0.025 A
BRANCH  14  18
HETATM   18  C29 UNL     1       4.658  25.403   3.521  1.00  0.00     0.232 C
HETATM   19  O3  UNL     1       4.461  25.932   2.391  1.00  0.00    -0.272 OA
HETATM   20  N6  UNL     1       5.756  24.503   3.727  1.00  0.00    -0.352 N
ATOM     21  H6  UNL     1       5.880  24.097   4.655  1.00  0.00     0.163 HD
BRANCH  20  22
HETATM   22  C30 UNL     1       6.690  24.143   2.699  1.00  0.00     0.022 C
HETATM   23  C31 UNL     1       7.531  22.943   3.055  1.00  0.00     0.037 C
HETATM   24  C32 UNL     1       7.697  25.285   2.489  1.00  0.00     0.037 C
HETATM   25  C33 UNL     1       6.018  23.902   1.366  1.00  0.00     0.037 C
ENDBRANCH  20  22
ENDBRANCH  14  18
ENDBRANCH   6  14
ENDBRANCH   4   6
BRANCH   3  26
HETATM   26  O1  UNL     1       7.811  27.719   5.196  1.00  0.00    -0.333 OA
ATOM     27  H1  UNL     1       8.348  27.183   4.624  1.00  0.00     0.220 HD
ENDBRANCH   3  26
ENDBRANCH   1   3
BRANCH   1  28
HETATM   28  C9  UNL     1       7.333  27.146   8.249  1.00  0.00     0.123 C
BRANCH  28  29
HETATM   29  C10 UNL     1       8.660  26.620   8.678  1.00  0.00     0.020 C
BRANCH  29  30
HETATM   30  C11 UNL     1       9.727  26.717   7.640  1.00  0.00     0.006 C
BRANCH  30  31
HETATM   31  C12 UNL     1      10.943  25.952   8.087  1.00  0.00    -0.014 C
HETATM   32  C13 UNL     1      10.792  25.670   9.571  1.00  0.00     0.010 C
BRANCH  31  33
HETATM   33  C14 UNL     1      11.120  24.636   7.310  1.00  0.00    -0.006 C
HETATM   34  C15 UNL     1      10.036  24.694   6.224  1.00  0.00     0.006 C
HETATM   35  C16 UNL     1      10.733  24.599   4.904  1.00  0.00     0.005 C
HETATM   36  C17 UNL     1      12.180  24.887   5.137  1.00  0.00    -0.008 C
HETATM   37  C18 UNL     1      13.114  23.930   4.421  1.00  0.00     0.030 C
HETATM   38  C27 UNL     1      12.416  24.637   6.634  1.00  0.00     0.002 C
HETATM   39  C19 UNL     1      14.170  23.720   5.458  1.00  0.00     0.084 C
HETATM   40  N4  UNL     1      15.147  22.757   5.220  1.00  0.00    -0.408 N
HETATM   41  C26 UNL     1      13.321  23.484   6.707  1.00  0.00     0.041 C
HETATM   42  C20 UNL     1      14.779  21.389   5.336  1.00  0.00     0.117 C
ATOM     43  H4  UNL     1      16.099  23.026   4.970  1.00  0.00     0.154 HD
HETATM   44  C24 UNL     1      13.437  21.094   5.874  1.00  0.00     0.062 C
HETATM   45  C25 UNL     1      12.824  22.118   6.795  1.00  0.00     0.126 C
BRANCH  42  46
HETATM   46  C21 UNL     1      15.871  20.620   6.053  1.00  0.00     0.082 C
BRANCH  46  47
HETATM   47  N5  UNL     1      16.600  19.734   5.250  1.00  0.00    -0.400 N
HETATM   48  C22 UNL     1      16.210  19.498   3.919  1.00  0.00     0.148 C
HETATM   49  C23 UNL     1      17.978  19.536   5.515  1.00  0.00     0.148 C
ENDBRANCH  46  47
ENDBRANCH  42  46
BRANCH  45  50
HETATM   50  O2  UNL     1      11.446  21.933   6.660  1.00  0.00    -0.395 OA
ATOM     51  H2  UNL     1      11.059  22.618   7.194  1.00  0.00     0.210 HD
ENDBRANCH  45  50
ENDBRANCH  31  33
ENDBRANCH  30  31
ENDBRANCH  29  30
ENDBRANCH  28  29
ENDBRANCH   1  28
TORSDOF 18
ENDMDL