MODEL 5
REMARK VINA RESULT: -9.323050408      2.964     11.614
REMARK  13 active torsions:
REMARK  status: ('A' for Active; 'I' for Inactive)
REMARK    1  A    between atoms: C2_2  and  C3_3
REMARK    2  A    between atoms: C2_2  and  C23_36
REMARK    3  A    between atoms: C3_3  and  O1_4
REMARK    4  A    between atoms: C3_3  and  N1_6
REMARK    5  A    between atoms: C4_7  and  C5_8
REMARK       I    between atoms: C5_8  and  N2_10
REMARK    6  A    between atoms: N2_10  and  C6_12
REMARK    7  A    between atoms: C6_12  and  C7_13
REMARK    8  A    between atoms: C6_12  and  C14_20
REMARK    9  A    between atoms: C7_13  and  C8_14
REMARK   10  A    between atoms: C14_20  and  C15_22
REMARK       I    between atoms: C15_22  and  N3_24
REMARK   11  A    between atoms: C26_39  and  N5_40
REMARK       I    between atoms: N5_40  and  C27_42
REMARK   12  A    between atoms: C27_42  and  O6_44
REMARK   13  A    between atoms: O6_44  and  C28_45
ROOT
HETATM    1  N1  UNL     1       6.233   1.896  11.647  1.00  0.00    -0.313 N
HETATM    2  C4  UNL     1       6.105   2.037  10.153  1.00  0.00     0.216 C
HETATM    3  C17 UNL     1       7.566   2.035   9.715  1.00  0.00     0.150 C
HETATM    4  C18 UNL     1       8.181   0.662   9.797  1.00  0.00     0.049 C
HETATM    5  C19 UNL     1       7.782   2.666   8.374  1.00  0.00     0.049 C
HETATM    6  N4  UNL     1       8.153   2.868  10.723  1.00  0.00    -0.038 N
ATOM      7  H41 UNL     1       8.129   3.863  10.498  1.00  0.00     0.281 HD
ATOM      8  H42 UNL     1       9.167   2.784  10.786  1.00  0.00     0.281 HD
HETATM    9  C20 UNL     1       7.451   2.526  11.976  1.00  0.00     0.196 C
HETATM   10  C21 UNL     1       8.444   1.599  12.687  1.00  0.00     0.070 C
HETATM   11  C22 UNL     1       7.358   3.786  12.803  1.00  0.00     0.070 C
ENDROOT
BRANCH   1  12
HETATM   12  C3  UNL     1       5.232   1.178  12.320  1.00  0.00     0.146 C
BRANCH  12  13
HETATM   13  C2  UNL     1       4.229   0.237  11.993  1.00  0.00    -0.013 C
HETATM   14  C1  UNL     1       3.087   0.458  11.432  1.00  0.00     0.023 C
BRANCH  13  15
HETATM   15  C23 UNL     1       4.485  -1.209  12.379  1.00  0.00     0.022 C
HETATM   16  C24 UNL     1       5.924  -1.572  12.437  1.00  0.00     0.011 C
HETATM   17  C25 UNL     1       6.048  -3.061  12.750  1.00  0.00     0.026 C
HETATM   18  C26 UNL     1       5.629  -3.254  14.199  1.00  0.00     0.086 C
HETATM   19  C32 UNL     1       4.812  -2.090  14.675  1.00  0.00     0.026 C
HETATM   20  C33 UNL     1       3.807  -1.636  13.634  1.00  0.00     0.011 C
BRANCH  18  21
HETATM   21  N5  UNL     1       6.822  -3.290  15.054  1.00  0.00    -0.332 N
HETATM   22  C27 UNL     1       6.975  -4.187  16.140  1.00  0.00     0.361 C
HETATM   23  O5  UNL     1       6.060  -4.991  16.389  1.00  0.00    -0.238 OA
ATOM     24  H5  UNL     1       7.579  -2.636  14.857  1.00  0.00     0.165 HD
BRANCH  22  25
HETATM   25  O6  UNL     1       8.112  -4.159  16.890  1.00  0.00    -0.294 OA
BRANCH  25  26
HETATM   26  C28 UNL     1       9.334  -4.692  16.508  1.00  0.00     0.061 C
HETATM   27  C29 UNL     1      10.261  -3.591  16.035  1.00  0.00     0.046 C
HETATM   28  C30 UNL     1       9.977  -5.307  17.755  1.00  0.00     0.046 C
HETATM   29  C31 UNL     1       9.244  -5.798  15.472  1.00  0.00     0.046 C
ENDBRANCH  25  26
ENDBRANCH  22  25
ENDBRANCH  18  21
ENDBRANCH  13  15
ENDBRANCH  12  13
BRANCH  12  30
HETATM   30  O1  UNL     1       5.192   1.443  13.657  1.00  0.00    -0.346 OA
ATOM     31  H1  UNL     1       4.753   0.732  14.110  1.00  0.00     0.219 HD
ENDBRANCH  12  30
ENDBRANCH   1  12
BRANCH   2  32
HETATM   32  C5  UNL     1       5.421   3.257   9.746  1.00  0.00     0.243 C
HETATM   33  O2  UNL     1       5.694   4.363  10.253  1.00  0.00    -0.271 OA
HETATM   34  N2  UNL     1       4.400   3.258   8.748  1.00  0.00    -0.347 N
ATOM     35  H2  UNL     1       4.127   2.375   8.316  1.00  0.00     0.163 HD
BRANCH  34  36
HETATM   36  C6  UNL     1       3.740   4.481   8.329  1.00  0.00     0.168 C
BRANCH  36  37
HETATM   37  C7  UNL     1       2.269   4.365   8.236  1.00  0.00     0.072 C
BRANCH  37  38
HETATM   38  C8  UNL     1       1.539   3.733   9.330  1.00  0.00    -0.056 A
HETATM   39  C9  UNL     1       0.464   2.888   9.041  1.00  0.00     0.007 A
HETATM   40  C10 UNL     1      -0.243   2.310  10.112  1.00  0.00     0.001 A
HETATM   41  C11 UNL     1       0.086   2.549  11.408  1.00  0.00     0.000 A
HETATM   42  C12 UNL     1       1.136   3.374  11.690  1.00  0.00     0.001 A
HETATM   43  C13 UNL     1       1.834   3.943  10.649  1.00  0.00     0.007 A
ENDBRANCH  37  38
ENDBRANCH  36  37
BRANCH  36  44
HETATM   44  C14 UNL     1       4.402   4.954   7.117  1.00  0.00     0.239 C
HETATM   45  O3  UNL     1       4.601   6.209   6.918  1.00  0.00    -0.285 OA
BRANCH  44  46
HETATM   46  C15 UNL     1       4.870   4.084   6.077  1.00  0.00     0.289 C
HETATM   47  O4  UNL     1       4.165   3.179   5.583  1.00  0.00    -0.264 OA
HETATM   48  N3  UNL     1       6.203   4.177   5.512  1.00  0.00    -0.359 N
HETATM   49  C16 UNL     1       6.628   3.279   4.481  1.00  0.00     0.149 C
ATOM     50  H3  UNL     1       6.846   4.892   5.853  1.00  0.00     0.162 HD
ENDBRANCH  44  46
ENDBRANCH  36  44
ENDBRANCH  34  36
ENDBRANCH   2  32
TORSDOF 13
ENDMDL