MODEL 3
REMARK VINA RESULT: -8.434516281      2.121      4.260
REMARK  15 active torsions:
REMARK  status: ('A' for Active; 'I' for Inactive)
REMARK    1  A    between atoms: C2_2  and  C4_4
REMARK    2  A    between atoms: C4_4  and  C5_5
REMARK    3  A    between atoms: C5_5  and  N1_6
REMARK    4  A    between atoms: C5_5  and  C32_47
REMARK    5  A    between atoms: N1_6  and  C6_8
REMARK    6  A    between atoms: C6_8  and  O1_9
REMARK    7  A    between atoms: C6_8  and  C7_11
REMARK    8  A    between atoms: C12_17  and  N2_18
REMARK       I    between atoms: N2_18  and  C13_20
REMARK    9  A    between atoms: C13_20  and  C14_22
REMARK   10  A    between atoms: N3_26  and  C18_27
REMARK   11  A    between atoms: C18_27  and  O4_28
REMARK   12  A    between atoms: C19_30  and  N4_31
REMARK   13  A    between atoms: C19_30  and  C25_40
REMARK       I    between atoms: N4_31  and  C20_33
REMARK   14  A    between atoms: C20_33  and  O6_35
REMARK   15  A    between atoms: O6_35  and  C21_36
ROOT
HETATM    1  N2  UNL     1       6.043  -1.814  13.366  1.00  0.00    -0.351 N
ATOM      2  H2  UNL     1       6.340  -1.778  14.341  1.00  0.00     0.163 HD
HETATM    3  C13 UNL     1       5.180  -2.895  12.986  1.00  0.00     0.241 C
HETATM    4  O3  UNL     1       4.827  -2.888  11.785  1.00  0.00    -0.271 OA
ENDROOT
BRANCH   1   5
HETATM    5  C12 UNL     1       6.511  -0.814  12.527  1.00  0.00     0.136 C
HETATM    6  C7  UNL     1       5.893   0.465  12.180  1.00  0.00     0.154 C
HETATM    7  O2  UNL     1       6.857   0.914  11.162  1.00  0.00    -0.358 OA
HETATM    8  C29 UNL     1       6.512   1.104  13.355  1.00  0.00     0.002 C
HETATM    9  C8  UNL     1       8.093   0.566  11.685  1.00  0.00     0.062 C
HETATM   10  C9  UNL     1       8.717  -0.587  10.870  1.00  0.00     0.046 C
HETATM   11  C10 UNL     1       9.138   1.622  11.723  1.00  0.00     0.046 C
HETATM   12  C11 UNL     1       7.618   0.110  13.034  1.00  0.00     0.057 C
HETATM   13  C30 UNL     1       5.972   1.018  14.724  1.00  0.00     0.019 C
HETATM   14  C31 UNL     1       6.794   2.559  13.022  1.00  0.00     0.019 C
BRANCH   6  15
HETATM   15  C6  UNL     1       4.550   0.652  11.759  1.00  0.00     0.150 C
BRANCH  15  16
HETATM   16  N1  UNL     1       3.943   1.561  10.874  1.00  0.00    -0.357 N
ATOM     17  H1  UNL     1       3.764   1.256   9.918  1.00  0.00     0.162 HD
BRANCH  16  18
HETATM   18  C5  UNL     1       3.556   2.911  11.247  1.00  0.00     0.184 C
BRANCH  18  19
HETATM   19  C4  UNL     1       2.101   3.020  11.582  1.00  0.00     0.040 C
BRANCH  19  20
HETATM   20  C2  UNL     1       1.204   2.015  10.946  1.00  0.00    -0.020 C
HETATM   21  C1  UNL     1       0.214   2.527   9.962  1.00  0.00     0.009 C
HETATM   22  C3  UNL     1       0.426   1.268  12.029  1.00  0.00     0.009 C
ENDBRANCH  19  20
ENDBRANCH  18  19
BRANCH  18  23
HETATM   23  C32 UNL     1       4.055   3.861  10.262  1.00  0.00     0.196 C
HETATM   24  O7  UNL     1       3.551   3.981   9.103  1.00  0.00    -0.646 OA
HETATM   25  O8  UNL     1       5.128   4.710  10.517  1.00  0.00    -0.646 OA
ENDBRANCH  18  23
ENDBRANCH  16  18
ENDBRANCH  15  16
BRANCH  15  26
HETATM   26  O1  UNL     1       3.689  -0.176  12.280  1.00  0.00    -0.347 OA
ATOM     27  H1  UNL     1       3.998  -0.544  13.099  1.00  0.00     0.219 HD
ENDBRANCH  15  26
ENDBRANCH   6  15
ENDBRANCH   1   5
BRANCH   3  28
HETATM   28  C14 UNL     1       4.697  -3.971  13.857  1.00  0.00     0.178 C
HETATM   29  C15 UNL     1       3.186  -3.783  14.152  1.00  0.00     0.037 C
HETATM   30  C16 UNL     1       3.215  -2.892  15.342  1.00  0.00     0.022 C
HETATM   31  C17 UNL     1       4.575  -2.963  15.929  1.00  0.00     0.126 C
HETATM   32  N3  UNL     1       5.323  -4.012  15.139  1.00  0.00    -0.347 N
BRANCH  32  33
HETATM   33  C18 UNL     1       6.367  -4.689  15.766  1.00  0.00     0.163 C
HETATM   34  C19 UNL     1       7.664  -4.410  16.283  1.00  0.00     0.072 C
BRANCH  33  35
HETATM   35  O4  UNL     1       6.039  -6.003  15.927  1.00  0.00    -0.345 OA
ATOM     36  H4  UNL     1       5.707  -6.149  16.805  1.00  0.00     0.219 HD
ENDBRANCH  33  35
BRANCH  34  37
HETATM   37  N4  UNL     1       8.351  -5.641  16.710  1.00  0.00    -0.301 N
HETATM   38  C20 UNL     1       8.165  -6.239  17.973  1.00  0.00     0.365 C
HETATM   39  O5  UNL     1       7.370  -5.736  18.840  1.00  0.00    -0.238 OA
ATOM     40  H4  UNL     1       8.996  -6.085  16.056  1.00  0.00     0.171 HD
BRANCH  38  41
HETATM   41  O6  UNL     1       8.817  -7.394  18.361  1.00  0.00    -0.294 OA
BRANCH  41  42
HETATM   42  C21 UNL     1       8.276  -8.666  18.109  1.00  0.00     0.061 C
HETATM   43  C22 UNL     1       6.787  -8.755  18.396  1.00  0.00     0.046 C
HETATM   44  C23 UNL     1       8.482  -9.101  16.677  1.00  0.00     0.046 C
HETATM   45  C24 UNL     1       9.038  -9.664  18.992  1.00  0.00     0.046 C
ENDBRANCH  41  42
ENDBRANCH  38  41
ENDBRANCH  34  37
BRANCH  34  46
HETATM   46  C25 UNL     1       8.623  -3.455  15.704  1.00  0.00    -0.004 C
HETATM   47  C26 UNL     1       8.808  -3.776  14.178  1.00  0.00     0.021 C
HETATM   48  C27 UNL     1      10.058  -3.704  16.219  1.00  0.00     0.021 C
HETATM   49  C28 UNL     1       8.333  -2.013  15.813  1.00  0.00     0.021 C
ENDBRANCH  34  46
ENDBRANCH  32  33
ENDBRANCH   3  28
TORSDOF 15
ENDMDL