MODEL 5
REMARK VINA RESULT: -8.517087870      0.981      1.604
REMARK  13 active torsions:
REMARK  status: ('A' for Active; 'I' for Inactive)
REMARK       I    between atoms: N1_2  and  C2_4
REMARK       I    between atoms: C2_4  and  N2_6
REMARK    1  A    between atoms: N2_6  and  C3_8
REMARK    2  A    between atoms: C5_10  and  C6_11
REMARK    3  A    between atoms: C6_11  and  O2_12
REMARK    4  A    between atoms: C6_11  and  N3_14
REMARK    5  A    between atoms: N3_14  and  C7_16
REMARK    6  A    between atoms: C16_26  and  N4_27
REMARK    7  A    between atoms: N4_27  and  C17_29
REMARK    8  A    between atoms: C17_29  and  C18_30
REMARK    9  A    between atoms: C18_30  and  O4_31
REMARK   10  A    between atoms: C21_34  and  N5_35
REMARK   11  A    between atoms: N6_40  and  C26_41
REMARK   12  A    between atoms: C26_41  and  O5_42
REMARK   13  A    between atoms: C26_41  and  N7_44
ROOT
HETATM    1  C6  UNL     1       6.397  -0.070  14.735  1.00  0.00     0.121 C
ENDROOT
BRANCH   1   2
HETATM    2  C5  UNL     1       6.960  -1.373  14.527  1.00  0.00     0.080 C
HETATM    3  C4  UNL     1       5.793  -2.250  14.058  1.00  0.00     0.041 C
HETATM    4  C3  UNL     1       5.892  -3.669  14.507  1.00  0.00     0.105 C
HETATM    5  C33 UNL     1       7.301  -4.178  14.470  1.00  0.00     0.151 C
HETATM    6  N6  UNL     1       8.057  -3.394  15.403  1.00  0.00    -0.345 N
HETATM    7  C25 UNL     1       7.736  -1.957  15.609  1.00  0.00     0.139 C
BRANCH   4   8
HETATM    8  N2  UNL     1       5.228  -3.974  15.749  1.00  0.00    -0.337 N
HETATM    9  C2  UNL     1       4.388  -5.103  15.886  1.00  0.00     0.316 C
HETATM   10  N1  UNL     1       3.749  -5.509  17.063  1.00  0.00    -0.347 N
HETATM   11  O1  UNL     1       4.192  -5.814  14.844  1.00  0.00    -0.247 OA
HETATM   12  C1  UNL     1       2.818  -6.618  17.016  1.00  0.00     0.151 C
ATOM     13  H1  UNL     1       3.939  -5.031  17.943  1.00  0.00     0.163 HD
ATOM     14  H2  UNL     1       5.367  -3.358  16.551  1.00  0.00     0.164 HD
ENDBRANCH   4   8
BRANCH   6  15
HETATM   15  C26 UNL     1       9.157  -3.895  16.104  1.00  0.00     0.218 C
BRANCH  15  16
HETATM   16  O5  UNL     1      10.257  -3.154  16.045  1.00  0.00    -0.332 OA
ATOM     17  H5  UNL     1      10.637  -2.921  16.884  1.00  0.00     0.220 HD
ENDBRANCH  15  16
BRANCH  15  18
HETATM   18  N7  UNL     1       9.348  -5.052  16.873  1.00  0.00    -0.339 N
HETATM   19  C27 UNL     1      10.348  -5.432  17.825  1.00  0.00     0.084 C
HETATM   20  C28 UNL     1      11.679  -5.856  17.177  1.00  0.00     0.032 C
HETATM   21  C29 UNL     1       9.865  -6.741  18.484  1.00  0.00     0.027 C
HETATM   22  C30 UNL     1       9.121  -7.354  17.306  1.00  0.00     0.027 C
HETATM   23  C31 UNL     1       8.361  -6.157  16.824  1.00  0.00     0.084 C
HETATM   24  C32 UNL     1       7.312  -5.815  17.891  1.00  0.00     0.032 C
ENDBRANCH  15  18
ENDBRANCH   6  15
ENDBRANCH   1   2
BRANCH   1  25
HETATM   25  O2  UNL     1       5.527  -0.116  15.782  1.00  0.00    -0.349 OA
ATOM     26  H2  UNL     1       5.044  -0.934  15.755  1.00  0.00     0.219 HD
ENDBRANCH   1  25
BRANCH   1  27
HETATM   27  N3  UNL     1       6.494   1.221  14.166  1.00  0.00    -0.343 N
ATOM     28  H3  UNL     1       6.409   2.039  14.769  1.00  0.00     0.167 HD
BRANCH  27  29
HETATM   29  C7  UNL     1       6.703   1.400  12.810  1.00  0.00     0.028 C
HETATM   30  C8  UNL     1       7.663   0.398  12.228  1.00  0.00     0.096 C
HETATM   31  C9  UNL     1       8.514   1.059  11.147  1.00  0.00     0.066 C
HETATM   32  C10 UNL     1       9.952   0.986  11.617  1.00  0.00     0.046 C
HETATM   33  C11 UNL     1       8.327   0.345   9.827  1.00  0.00     0.046 C
HETATM   34  O3  UNL     1       8.110   2.405  10.963  1.00  0.00    -0.339 OA
HETATM   35  C12 UNL     1       6.768   2.730  10.876  1.00  0.00     0.089 A
HETATM   36  C13 UNL     1       6.283   3.642   9.962  1.00  0.00    -0.025 A
HETATM   37  C24 UNL     1       5.932   2.039  11.806  1.00  0.00     0.034 A
HETATM   38  C14 UNL     1       7.150   4.365   9.000  1.00  0.00     0.051 C
HETATM   39  C15 UNL     1       4.941   3.874   9.972  1.00  0.00     0.039 A
HETATM   40  C16 UNL     1       4.107   3.207  10.865  1.00  0.00     0.041 A
HETATM   41  C20 UNL     1       4.610   2.263  11.797  1.00  0.00     0.021 A
HETATM   42  C21 UNL     1       3.677   1.629  12.665  1.00  0.00     0.103 C
BRANCH  40  43
HETATM   43  N4  UNL     1       2.724   3.544  10.846  1.00  0.00    -0.387 N
ATOM     44  H4  UNL     1       2.111   3.247  11.605  1.00  0.00     0.159 HD
BRANCH  43  45
HETATM   45  C17 UNL     1       2.188   4.325   9.722  1.00  0.00     0.146 C
BRANCH  45  46
HETATM   46  C18 UNL     1       1.261   3.491   8.887  1.00  0.00     0.186 C
BRANCH  46  47
HETATM   47  O4  UNL     1       1.639   3.481   7.552  1.00  0.00    -0.394 OA
HETATM   48  C19 UNL     1       0.878   4.402   6.810  1.00  0.00     0.201 C
ENDBRANCH  46  47
ENDBRANCH  45  46
ENDBRANCH  43  45
ENDBRANCH  40  43
BRANCH  42  49
HETATM   49  N5  UNL     1       3.418   0.246  12.599  1.00  0.00    -0.380 N
HETATM   50  C22 UNL     1       3.486  -0.709  11.666  1.00  0.00     0.120 C
HETATM   51  C23 UNL     1       2.368  -0.102  13.615  1.00  0.00     0.153 C
ENDBRANCH  42  49
ENDBRANCH  27  29
ENDBRANCH   1  27
TORSDOF 13
ENDMDL