MODEL 1
REMARK VINA RESULT: -9.550253213      0.000      0.000
REMARK  12 active torsions:
REMARK  status: ('A' for Active; 'I' for Inactive)
REMARK    1  A    between atoms: C2_2  and  C3_3
REMARK    2  A    between atoms: C3_3  and  O2_5
REMARK    3  A    between atoms: O2_5  and  C4_6
REMARK    4  A    between atoms: C12_14  and  C13_15
REMARK    5  A    between atoms: C13_15  and  C14_16
REMARK    6  A    between atoms: C14_16  and  C15_17
REMARK       I    between atoms: C15_17  and  N1_19
REMARK    7  A    between atoms: C19_23  and  C20_24
REMARK       I    between atoms: C20_24  and  N2_26
REMARK    8  A    between atoms: N2_26  and  C21_28
REMARK    9  A    between atoms: C21_28  and  C22_29
REMARK   10  A    between atoms: C21_28  and  C24_33
REMARK   11  A    between atoms: C22_29  and  C23_30
REMARK   12  A    between atoms: C26_37  and  O9_38
ROOT
HETATM    1  C4  UNL     1       6.896   3.306  10.488  1.00  0.00     0.144 C
HETATM    2  C5  UNL     1       6.215   1.990  10.873  1.00  0.00     0.026 C
HETATM    3  C6  UNL     1       4.775   2.210  11.058  1.00  0.00     0.009 C
HETATM    4  C7  UNL     1       4.149   2.151  12.395  1.00  0.00     0.010 C
HETATM    5  C8  UNL     1       3.885   0.713  12.751  1.00  0.00    -0.038 C
HETATM    6  C9  UNL     1       2.721   0.246  11.868  1.00  0.00     0.015 C
HETATM    7  C10 UNL     1       3.533   0.520  14.187  1.00  0.00     0.010 C
HETATM    8  C11 UNL     1       4.115  -0.809  14.625  1.00  0.00     0.006 C
HETATM    9  C12 UNL     1       4.808  -1.326  13.412  1.00  0.00    -0.007 C
HETATM   10  C25 UNL     1       5.056  -0.198  12.476  1.00  0.00     0.027 C
HETATM   11  C26 UNL     1       6.331   0.486  12.912  1.00  0.00     0.132 C
HETATM   12  C27 UNL     1       7.026   1.268  11.839  1.00  0.00    -0.012 C
HETATM   13  C28 UNL     1       7.908   0.245  11.085  1.00  0.00     0.018 C
HETATM   14  C29 UNL     1       8.063   2.120  12.583  1.00  0.00     0.013 C
HETATM   15  C30 UNL     1       7.611   3.498  12.866  1.00  0.00     0.012 C
HETATM   16  C31 UNL     1       7.222   4.207  11.606  1.00  0.00    -0.021 C
HETATM   17  C32 UNL     1       6.151   5.235  11.908  1.00  0.00     0.017 C
HETATM   18  C33 UNL     1       8.455   5.019  11.171  1.00  0.00     0.017 C
ENDROOT
BRANCH   9  19
HETATM   19  C13 UNL     1       4.090  -2.513  12.853  1.00  0.00     0.014 C
BRANCH  19  20
HETATM   20  C14 UNL     1       3.622  -3.483  13.880  1.00  0.00     0.103 C
BRANCH  20  21
HETATM   21  C15 UNL     1       4.794  -4.201  14.446  1.00  0.00     0.220 C
HETATM   22  O3  UNL     1       5.924  -4.094  13.848  1.00  0.00    -0.273 OA
HETATM   23  N1  UNL     1       4.685  -4.992  15.620  1.00  0.00    -0.339 N
HETATM   24  C16 UNL     1       3.451  -5.157  16.362  1.00  0.00     0.127 C
HETATM   25  C19 UNL     1       5.725  -5.740  16.250  1.00  0.00     0.179 C
HETATM   26  C17 UNL     1       3.994  -5.319  17.774  1.00  0.00     0.022 C
HETATM   27  C18 UNL     1       5.105  -6.331  17.522  1.00  0.00     0.037 C
BRANCH  25  28
HETATM   28  C20 UNL     1       6.897  -4.942  16.665  1.00  0.00     0.241 C
HETATM   29  O4  UNL     1       6.788  -3.726  17.022  1.00  0.00    -0.271 OA
HETATM   30  N2  UNL     1       8.205  -5.501  16.683  1.00  0.00    -0.344 N
ATOM     31  H2  UNL     1       8.322  -6.475  16.405  1.00  0.00     0.163 HD
BRANCH  30  32
HETATM   32  C21 UNL     1       9.381  -4.745  17.080  1.00  0.00     0.195 C
BRANCH  32  33
HETATM   33  C22 UNL     1      10.119  -4.307  15.858  1.00  0.00     0.149 C
BRANCH  33  34
HETATM   34  C23 UNL     1       9.324  -4.367  14.624  1.00  0.00     0.175 C
HETATM   35  O5  UNL     1       8.829  -3.299  14.160  1.00  0.00    -0.648 OA
HETATM   36  O6  UNL     1       9.079  -5.539  13.928  1.00  0.00    -0.648 OA
ENDBRANCH  33  34
ENDBRANCH  32  33
BRANCH  32  37
HETATM   37  C24 UNL     1      10.319  -5.620  17.851  1.00  0.00     0.197 C
HETATM   38  O7  UNL     1       9.920  -6.183  18.883  1.00  0.00    -0.646 OA
HETATM   39  O8  UNL     1      11.605  -5.788  17.406  1.00  0.00    -0.646 OA
ENDBRANCH  32  37
ENDBRANCH  30  32
ENDBRANCH  25  28
ENDBRANCH  20  21
ENDBRANCH  19  20
ENDBRANCH   9  19
BRANCH  11  40
HETATM   40  O9  UNL     1       6.185   1.188  14.116  1.00  0.00    -0.394 OA
ATOM     41  H9  UNL     1       6.033   2.116  13.985  1.00  0.00     0.210 HD
ENDBRANCH  11  40
BRANCH   1  42
HETATM   42  O2  UNL     1       8.079   2.966   9.796  1.00  0.00    -0.315 OA
BRANCH  42  43
HETATM   43  C3  UNL     1       8.186   2.938   8.430  1.00  0.00     0.258 C
HETATM   44  O1  UNL     1       8.757   3.889   7.856  1.00  0.00    -0.265 OA
BRANCH  43  45
HETATM   45  C2  UNL     1       7.623   1.783   7.692  1.00  0.00     0.106 C
HETATM   46  C1  UNL     1       6.501   2.157   6.779  1.00  0.00     0.015 C
ENDBRANCH  43  45
ENDBRANCH  42  43
ENDBRANCH   1  42
TORSDOF 12
ENDMDL