MODEL 5
REMARK VINA RESULT: -9.219483350      2.730     10.504
REMARK  12 active torsions:
REMARK  status: ('A' for Active; 'I' for Inactive)
REMARK    1  A    between atoms: C11_11  and  N1_12
REMARK    2  A    between atoms: N1_12  and  C12_14
REMARK    3  A    between atoms: C16_22  and  O1_23
REMARK    4  A    between atoms: C22_30  and  C23_31
REMARK    5  A    between atoms: C23_31  and  C24_32
REMARK    6  A    between atoms: C26_34  and  O2_35
REMARK    7  A    between atoms: N4_39  and  C29_40
REMARK    8  A    between atoms: C29_40  and  C30_41
REMARK    9  A    between atoms: C30_41  and  O3_42
REMARK   10  A    between atoms: O3_42  and  C31_43
REMARK   11  A    between atoms: C31_43  and  C32_44
REMARK   12  A    between atoms: C32_44  and  N5_45
ROOT
HETATM    1  C1  UNL     1       6.102  -0.065  15.401  1.00  0.00     0.016 C
HETATM    2  C2  UNL     1       5.938  -0.816  14.094  1.00  0.00    -0.036 C
HETATM    3  C3  UNL     1       4.727  -0.316  13.341  1.00  0.00     0.010 C
HETATM    4  C4  UNL     1       5.004   0.568  12.178  1.00  0.00     0.007 C
HETATM    5  C5  UNL     1       6.343   1.254  12.207  1.00  0.00     0.005 C
HETATM    6  C6  UNL     1       7.482   0.323  12.433  1.00  0.00    -0.001 C
HETATM    7  C7  UNL     1       8.210  -0.172  11.235  1.00  0.00     0.033 C
HETATM    8  C8  UNL     1       8.357   0.922  10.242  1.00  0.00    -0.023 C
HETATM    9  C9  UNL     1       7.604   1.982  10.188  1.00  0.00    -0.070 C
HETATM   10  C10 UNL     1       7.562   3.168   9.309  1.00  0.00     0.063 C
HETATM   11  C11 UNL     1       6.068   3.365   9.117  1.00  0.00     0.133 C
HETATM   12  C16 UNL     1       5.383   2.474  10.176  1.00  0.00     0.154 C
HETATM   13  C17 UNL     1       6.479   2.259  11.145  1.00  0.00     0.011 C
HETATM   14  C18 UNL     1       6.841   3.637  11.744  1.00  0.00     0.023 C
HETATM   15  C19 UNL     1       7.123  -0.910  13.245  1.00  0.00    -0.001 C
HETATM   16  C20 UNL     1       6.768  -2.065  12.326  1.00  0.00     0.006 C
HETATM   17  C21 UNL     1       6.178  -3.070  13.305  1.00  0.00     0.006 C
HETATM   18  C22 UNL     1       5.612  -2.282  14.477  1.00  0.00    -0.004 C
ENDROOT
BRANCH  18  19
HETATM   19  C23 UNL     1       6.251  -2.684  15.766  1.00  0.00     0.031 C
BRANCH  19  20
HETATM   20  C24 UNL     1       7.488  -3.477  15.627  1.00  0.00     0.091 C
HETATM   21  C25 UNL     1       8.788  -3.045  16.121  1.00  0.00     0.057 C
HETATM   22  C26 UNL     1       9.858  -4.104  15.894  1.00  0.00     0.124 C
HETATM   23  C27 UNL     1       9.430  -5.258  15.051  1.00  0.00     0.076 C
HETATM   24  C28 UNL     1       8.036  -5.745  15.356  1.00  0.00     0.066 C
HETATM   25  N4  UNL     1       7.265  -4.851  16.110  1.00  0.00    -0.367 N
BRANCH  22  26
HETATM   26  O2  UNL     1      10.952  -3.459  15.322  1.00  0.00    -0.395 OA
ATOM     27  H2  UNL     1      10.610  -2.753  14.787  1.00  0.00     0.210 HD
ENDBRANCH  22  26
BRANCH  25  28
HETATM   28  C29 UNL     1       7.181  -4.960  17.505  1.00  0.00     0.089 C
BRANCH  28  29
HETATM   29  C30 UNL     1       7.579  -6.233  18.120  1.00  0.00     0.212 C
BRANCH  29  30
HETATM   30  O3  UNL     1       6.671  -7.248  17.930  1.00  0.00    -0.384 OA
BRANCH  30  31
HETATM   31  C31 UNL     1       5.347  -6.940  18.169  1.00  0.00     0.198 C
BRANCH  31  32
HETATM   32  C32 UNL     1       4.449  -7.440  17.049  1.00  0.00     0.298 C
BRANCH  32  33
HETATM   33  N5  UNL     1       3.566  -6.419  16.539  1.00  0.00     0.093 N
HETATM   34  C33 UNL     1       3.566  -5.353  17.549  1.00  0.00     0.300 C
HETATM   35  C34 UNL     1       3.081  -4.098  16.858  1.00  0.00     0.262 C
HETATM   36  N6  UNL     1       2.260  -4.406  15.698  1.00  0.00    -0.072 N
HETATM   37  C35 UNL     1       3.029  -5.047  14.655  1.00  0.00     0.262 C
ATOM     38  H62 UNL     1       1.446  -4.963  15.957  1.00  0.00     0.277 HD
ATOM     39  H61 UNL     1       1.781  -3.576  15.351  1.00  0.00     0.277 HD
HETATM   40  C36 UNL     1       4.160  -5.799  15.353  1.00  0.00     0.300 C
ENDBRANCH  32  33
ENDBRANCH  31  32
ENDBRANCH  30  31
ENDBRANCH  29  30
ENDBRANCH  28  29
ENDBRANCH  25  28
ENDBRANCH  19  20
ENDBRANCH  18  19
BRANCH  12  41
HETATM   41  O1  UNL     1       4.317   3.234  10.644  1.00  0.00    -0.392 OA
ATOM     42  H1  UNL     1       3.637   3.128   9.989  1.00  0.00     0.210 HD
ENDBRANCH  12  41
BRANCH  11  43
HETATM   43  N1  UNL     1       5.615   2.935   7.835  1.00  0.00    -0.219 N
ATOM     44  H1  UNL     1       6.092   2.119   7.450  1.00  0.00     0.178 HD
BRANCH  43  45
HETATM   45  C12 UNL     1       4.701   3.429   7.110  1.00  0.00     0.678 A
HETATM   46  N2  UNL     1       3.532   3.737   7.686  1.00  0.00    -0.202 N
HETATM   47  C13 UNL     1       2.490   4.264   7.028  1.00  0.00     0.107 A
ATOM     48  H2  UNL     1       3.429   3.561   8.685  1.00  0.00     0.183 HD
HETATM   49  C14 UNL     1       2.667   4.489   5.681  1.00  0.00     0.035 A
HETATM   50  C15 UNL     1       3.865   4.176   5.079  1.00  0.00     0.107 A
HETATM   51  N3  UNL     1       4.858   3.653   5.807  1.00  0.00    -0.202 N
ATOM     52  H3  UNL     1       5.745   3.422   5.359  1.00  0.00     0.183 HD
ENDBRANCH  43  45
ENDBRANCH  11  43
TORSDOF 12
ENDMDL