MODEL 1
REMARK VINA RESULT: -8.520263383      0.000      0.000
REMARK  13 active torsions:
REMARK  status: ('A' for Active; 'I' for Inactive)
REMARK    1  A    between atoms: C2_2  and  C3_3
REMARK    2  A    between atoms: C4_4  and  C5_5
REMARK    3  A    between atoms: C5_5  and  O1_6
REMARK       I    between atoms: N1_10  and  C8_11
REMARK    4  A    between atoms: C8_11  and  C9_13
REMARK    5  A    between atoms: N2_14  and  C10_15
REMARK    6  A    between atoms: C10_15  and  C11_16
REMARK    7  A    between atoms: C11_16  and  O3_17
REMARK    8  A    between atoms: C11_16  and  C12_19
REMARK    9  A    between atoms: C12_19  and  C13_20
REMARK   10  A    between atoms: C13_20  and  O4_23
REMARK   11  A    between atoms: C32_42  and  C33_43
REMARK   12  A    between atoms: C33_43  and  C34_44
REMARK   13  A    between atoms: C34_44  and  O6_45
ROOT
HETATM    1  C9  UNL     1       5.499  -0.135  12.108  1.00  0.00     0.323 C
HETATM    2  N2  UNL     1       4.238  -0.059  12.815  1.00  0.00     0.110 N
HETATM    3  C16 UNL     1       4.013  -1.282  13.558  1.00  0.00     0.225 C
HETATM    4  C17 UNL     1       3.504  -0.837  14.874  1.00  0.00     0.043 C
HETATM    5  C18 UNL     1       5.153  -2.160  13.413  1.00  0.00     0.034 C
HETATM    6  C19 UNL     1       5.693  -3.118  14.354  1.00  0.00     0.002 C
HETATM    7  C20 UNL     1       4.767  -3.920  15.196  1.00  0.00     0.013 C
HETATM    8  C21 UNL     1       5.411  -5.312  15.436  1.00  0.00     0.079 C
HETATM    9  C22 UNL     1       6.810  -5.134  15.903  1.00  0.00     0.135 C
HETATM   10  O5  UNL     1       7.216  -6.000  16.694  1.00  0.00    -0.297 OA
HETATM   11  C23 UNL     1       7.715  -4.040  15.509  1.00  0.00     0.021 C
HETATM   12  C24 UNL     1       8.609  -3.784  16.732  1.00  0.00     0.024 C
HETATM   13  C25 UNL     1       8.673  -4.442  14.414  1.00  0.00     0.024 C
HETATM   14  C26 UNL     1       6.919  -2.777  15.167  1.00  0.00    -0.026 C
HETATM   15  C27 UNL     1       6.679  -2.143  16.493  1.00  0.00     0.016 C
HETATM   16  C28 UNL     1       7.905  -1.887  14.442  1.00  0.00     0.011 C
HETATM   17  C29 UNL     1       7.110  -0.692  13.950  1.00  0.00     0.013 C
HETATM   18  C30 UNL     1       6.225  -1.194  12.868  1.00  0.00     0.002 C
HETATM   19  C31 UNL     1       7.113  -1.954  11.869  1.00  0.00     0.018 C
ENDROOT
BRANCH   1  20
HETATM   20  C8  UNL     1       6.160   1.202  12.245  1.00  0.00     0.254 C
HETATM   21  N1  UNL     1       6.306   2.157  11.225  1.00  0.00    -0.345 N
HETATM   22  C7  UNL     1       5.810   2.025   9.873  1.00  0.00     0.131 C
HETATM   23  C32 UNL     1       7.005   3.399  11.532  1.00  0.00     0.089 C
HETATM   24  C6  UNL     1       6.931   2.015   8.893  1.00  0.00     0.015 C
HETATM   25  C4  UNL     1       6.896   3.100   7.827  1.00  0.00     0.020 C
HETATM   26  C36 UNL     1       8.175   2.714   9.429  1.00  0.00    -0.002 C
HETATM   27  C3  UNL     1       8.395   3.203   8.017  1.00  0.00    -0.004 C
HETATM   28  C35 UNL     1       7.810   3.853  10.337  1.00  0.00     0.031 C
HETATM   29  O2  UNL     1       6.621   1.483  13.403  1.00  0.00    -0.271 OA
BRANCH  25  30
HETATM   30  C5  UNL     1       6.528   2.593   6.451  1.00  0.00     0.169 C
BRANCH  30  31
HETATM   31  O1  UNL     1       6.708   1.191   6.453  1.00  0.00    -0.400 OA
ATOM     32  H1  UNL     1       7.641   1.022   6.391  1.00  0.00     0.209 HD
ENDBRANCH  30  31
ENDBRANCH  25  30
BRANCH  27  33
HETATM   33  C2  UNL     1       8.994   4.566   7.876  1.00  0.00     0.001 C
HETATM   34  C1  UNL     1       9.567   4.781   6.475  1.00  0.00     0.005 C
ENDBRANCH  27  33
BRANCH  23  35
HETATM   35  C33 UNL     1       6.023   4.460  11.992  1.00  0.00     0.051 C
BRANCH  35  36
HETATM   36  C34 UNL     1       6.757   5.563  12.695  1.00  0.00     0.166 C
BRANCH  36  37
HETATM   37  O6  UNL     1       5.925   6.359  13.463  1.00  0.00    -0.401 OA
ATOM     38  H6  UNL     1       6.398   6.882  14.100  1.00  0.00     0.209 HD
ENDBRANCH  36  37
ENDBRANCH  35  36
ENDBRANCH  23  35
ENDBRANCH   1  20
BRANCH   2  39
HETATM   39  C10 UNL     1       3.227   0.278  11.869  1.00  0.00     0.305 C
BRANCH  39  40
HETATM   40  C11 UNL     1       2.372   1.457  12.166  1.00  0.00     0.149 C
BRANCH  40  41
HETATM   41  O3  UNL     1       3.113   2.629  12.306  1.00  0.00    -0.394 OA
ATOM     42  H3  UNL     1       3.715   2.591  13.040  1.00  0.00     0.210 HD
ENDBRANCH  40  41
BRANCH  40  43
HETATM   43  C12 UNL     1       1.532   1.685  10.891  1.00  0.00     0.070 C
BRANCH  43  44
HETATM   44  C13 UNL     1       0.692   2.912  10.963  1.00  0.00     0.053 C
HETATM   45  C14 UNL     1      -0.639   2.561  10.284  1.00  0.00     0.045 C
HETATM   46  C15 UNL     1       1.274   4.040  10.108  1.00  0.00     0.045 C
BRANCH  44  47
HETATM   47  O4  UNL     1       0.414   3.337  12.238  1.00  0.00    -0.391 OA
ATOM     48  H4  UNL     1       1.153   3.722  12.694  1.00  0.00     0.210 HD
ENDBRANCH  44  47
ENDBRANCH  43  44
ENDBRANCH  40  43
ENDBRANCH  39  40
ENDBRANCH   2  39
TORSDOF 13
ENDMDL