MODEL 2
REMARK VINA RESULT: -7.003253147      1.305      2.606
REMARK  11 active torsions:
REMARK  status: ('A' for Active; 'I' for Inactive)
REMARK    1  A    between atoms: C2_2  and  C4_4
REMARK    2  A    between atoms: C4_4  and  N1_5
REMARK    3  A    between atoms: N1_5  and  N2_7
REMARK    4  A    between atoms: N2_7  and  C5_8
REMARK    5  A    between atoms: N2_7  and  S1_43
REMARK    6  A    between atoms: C5_8  and  C6_9
REMARK    7  A    between atoms: C10_13  and  O1_14
REMARK    8  A    between atoms: C12_16  and  O2_17
REMARK    9  A    between atoms: C18_24  and  O3_25
REMARK   10  A    between atoms: C21_29  and  O4_30
REMARK   11  A    between atoms: S1_43  and  C33_46
ROOT
HETATM    1  C6  UNL     1       6.759   3.257   7.085  1.00  0.00     0.010 C
HETATM    2  C7  UNL     1       5.302   3.692   6.961  1.00  0.00    -0.010 C
HETATM    3  C8  UNL     1       5.228   4.974   6.175  1.00  0.00     0.010 C
HETATM    4  C9  UNL     1       4.554   3.732   8.249  1.00  0.00     0.039 C
HETATM    5  C10 UNL     1       3.081   3.841   8.126  1.00  0.00     0.154 C
HETATM    6  C12 UNL     1       2.343   2.800   8.999  1.00  0.00     0.175 C
HETATM    7  C13 UNL     1       2.246   3.228  10.411  1.00  0.00    -0.056 C
HETATM    8  C14 UNL     1       2.200   4.706  10.675  1.00  0.00     0.046 C
HETATM    9  C15 UNL     1       2.189   2.417  11.449  1.00  0.00    -0.015 C
HETATM   10  C16 UNL     1       2.208   0.935  11.403  1.00  0.00     0.033 C
HETATM   11  C17 UNL     1       1.091   0.445  12.297  1.00  0.00     0.017 C
HETATM   12  C18 UNL     1       3.543   0.331  11.788  1.00  0.00     0.131 C
HETATM   13  C19 UNL     1       3.943   0.590  13.217  1.00  0.00     0.040 C
HETATM   14  C20 UNL     1       3.846  -0.614  14.108  1.00  0.00     0.015 C
HETATM   15  C21 UNL     1       5.205   1.357  13.376  1.00  0.00     0.131 C
HETATM   16  C22 UNL     1       6.483   0.583  13.484  1.00  0.00     0.033 C
HETATM   17  C23 UNL     1       7.563   1.572  13.843  1.00  0.00     0.017 C
HETATM   18  C24 UNL     1       6.796  -0.342  12.410  1.00  0.00    -0.020 C
HETATM   19  C25 UNL     1       7.774  -0.443  11.546  1.00  0.00    -0.004 C
HETATM   20  C26 UNL     1       8.948   0.378  11.341  1.00  0.00    -0.004 C
HETATM   21  C27 UNL     1       9.098   1.524  10.710  1.00  0.00    -0.022 C
HETATM   22  C28 UNL     1       8.040   2.240  10.046  1.00  0.00     0.012 C
HETATM   23  C29 UNL     1       7.438   1.504   8.819  1.00  0.00     0.014 C
HETATM   24  C30 UNL     1       7.094   2.924   8.433  1.00  0.00    -0.004 C
HETATM   25  C31 UNL     1       8.534   3.193   8.919  1.00  0.00    -0.007 C
HETATM   26  C32 UNL     1       8.764   4.595   9.368  1.00  0.00     0.011 C
ENDROOT
BRANCH   1  27
HETATM   27  C5  UNL     1       6.979   2.282   5.978  1.00  0.00     0.137 C
BRANCH  27  28
HETATM   28  N2  UNL     1       7.816   2.634   4.906  1.00  0.00    -0.118 NA
BRANCH  28  29
HETATM   29  N1  UNL     1       8.954   3.367   5.194  1.00  0.00    -0.337 N
ATOM     30  H1  UNL     1       9.726   2.956   5.718  1.00  0.00     0.175 HD
BRANCH  29  31
HETATM   31  C4  UNL     1       9.009   4.706   4.739  1.00  0.00     0.167 C
BRANCH  31  32
HETATM   32  C2  UNL     1       9.421   5.662   5.818  1.00  0.00    -0.074 C
HETATM   33  C1  UNL     1       8.615   6.602   6.270  1.00  0.00     0.015 C
HETATM   34  C3  UNL     1      10.776   5.556   6.402  1.00  0.00     0.044 C
ENDBRANCH  31  32
ENDBRANCH  29  31
ENDBRANCH  28  29
BRANCH  28  35
HETATM   35  S1  UNL     1       8.255   1.283   3.910  1.00  0.00     0.285 S
HETATM   36  O5  UNL     1       7.995   1.702   2.481  1.00  0.00    -0.202 OA
HETATM   37  O6  UNL     1       9.705   0.960   4.015  1.00  0.00    -0.202 OA
BRANCH  35  38
HETATM   38  C33 UNL     1       7.331  -0.143   4.229  1.00  0.00     0.385 C
HETATM   39  O7  UNL     1       7.759  -1.282   4.052  1.00  0.00    -0.289 OA
ENDBRANCH  35  38
ENDBRANCH  28  35
ENDBRANCH  27  28
ENDBRANCH   1  27
BRANCH   5  40
HETATM   40  O1  UNL     1       2.565   3.824   6.839  1.00  0.00    -0.388 OA
HETATM   41  C11 UNL     1       1.823   4.935   6.502  1.00  0.00     0.202 C
ENDBRANCH   5  40
BRANCH   6  42
HETATM   42  O2  UNL     1       1.026   2.815   8.474  1.00  0.00    -0.389 OA
ATOM     43  H2  UNL     1       0.827   1.893   8.365  1.00  0.00     0.210 HD
ENDBRANCH   6  42
BRANCH  12  44
HETATM   44  O3  UNL     1       4.450   0.836  10.876  1.00  0.00    -0.394 OA
ATOM     45  H3  UNL     1       4.159   0.516  10.030  1.00  0.00     0.210 HD
ENDBRANCH  12  44
BRANCH  15  46
HETATM   46  O4  UNL     1       5.239   2.433  12.513  1.00  0.00    -0.394 OA
ATOM     47  H4  UNL     1       5.675   2.203  11.700  1.00  0.00     0.210 HD
ENDBRANCH  15  46
TORSDOF 11
ENDMDL