MODEL 3
REMARK VINA RESULT: -8.678599747      1.085      1.408
REMARK  13 active torsions:
REMARK  status: ('A' for Active; 'I' for Inactive)
REMARK    1  A    between atoms: C2_2  and  C3_3
REMARK    2  A    between atoms: C3_3  and  C4_4
REMARK    3  A    between atoms: C5_6  and  C6_7
REMARK    4  A    between atoms: C6_7  and  C7_8
REMARK    5  A    between atoms: C7_8  and  O2_9
REMARK    6  A    between atoms: C7_8  and  C8_11
REMARK    7  A    between atoms: N1_23  and  C20_24
REMARK    8  A    between atoms: C20_24  and  C21_25
REMARK    9  A    between atoms: C21_25  and  C23_27
REMARK   10  A    between atoms: C23_27  and  N2_28
REMARK       I    between atoms: N2_28  and  C24_30
REMARK   11  A    between atoms: C24_30  and  C25_32
REMARK   12  A    between atoms: C25_32  and  N3_33
REMARK   13  A    between atoms: C36_48  and  O5_49
ROOT
HETATM    1  C8  UNL     1       7.137   0.512  13.197  1.00  0.00     0.019 C
HETATM    2  C9  UNL     1       7.949  -0.472  12.407  1.00  0.00     0.008 C
HETATM    3  C10 UNL     1       7.399  -1.869  12.746  1.00  0.00     0.008 C
HETATM    4  C11 UNL     1       6.073  -1.532  13.331  1.00  0.00     0.029 C
HETATM    5  C12 UNL     1       6.481  -0.362  14.234  1.00  0.00    -0.001 C
HETATM    6  C13 UNL     1       5.240   0.244  14.824  1.00  0.00     0.006 C
HETATM    7  C14 UNL     1       4.011  -0.613  14.621  1.00  0.00     0.012 C
HETATM    8  C15 UNL     1       4.262  -2.071  14.935  1.00  0.00    -0.003 C
HETATM    9  C16 UNL     1       2.945  -2.786  14.731  1.00  0.00     0.018 C
HETATM   10  C17 UNL     1       4.699  -2.295  16.341  1.00  0.00     0.020 C
HETATM   11  C18 UNL     1       3.567  -2.681  17.271  1.00  0.00     0.012 C
HETATM   12  C19 UNL     1       5.650  -3.479  16.204  1.00  0.00     0.278 C
HETATM   13  N1  UNL     1       6.214  -3.414  14.914  1.00  0.00     0.099 N
HETATM   14  C26 UNL     1       5.376  -2.636  14.065  1.00  0.00     0.167 C
HETATM   15  C27 UNL     1       4.681  -3.469  12.985  1.00  0.00     0.050 C
ENDROOT
BRANCH   1  16
HETATM   16  C7  UNL     1       7.985   1.621  13.787  1.00  0.00     0.125 C
BRANCH  16  17
HETATM   17  C6  UNL     1       8.498   2.562  12.785  1.00  0.00     0.067 C
BRANCH  17  18
HETATM   18  C5  UNL     1       7.574   3.402  11.990  1.00  0.00     0.160 C
HETATM   19  O1  UNL     1       6.284   2.833  12.244  1.00  0.00    -0.368 OA
HETATM   20  C4  UNL     1       5.448   2.792  11.164  1.00  0.00     0.095 C
HETATM   21  C30 UNL     1       5.348   4.229  10.655  1.00  0.00    -0.011 C
HETATM   22  C36 UNL     1       5.908   1.959  10.002  1.00  0.00     0.167 C
HETATM   23  C29 UNL     1       6.694   4.544  10.048  1.00  0.00     0.053 C
HETATM   24  C31 UNL     1       5.091   5.109  11.887  1.00  0.00     0.018 C
HETATM   25  C32 UNL     1       4.236   4.490   9.708  1.00  0.00     0.018 C
HETATM   26  C28 UNL     1       7.669   3.473  10.542  1.00  0.00     0.101 C
HETATM   27  O4  UNL     1       8.802   3.544   9.811  1.00  0.00    -0.370 OA
HETATM   28  C35 UNL     1       7.401   2.119   9.974  1.00  0.00     0.051 A
HETATM   29  C33 UNL     1       8.167   2.705   8.893  1.00  0.00     0.138 A
HETATM   30  C34 UNL     1       8.293   1.278   9.223  1.00  0.00     0.051 A
BRANCH  20  31
HETATM   31  C3  UNL     1       4.121   2.296  11.656  1.00  0.00     0.041 C
BRANCH  31  32
HETATM   32  C2  UNL     1       3.978   0.831  11.365  1.00  0.00    -0.002 C
HETATM   33  C1  UNL     1       2.553   0.352  11.618  1.00  0.00     0.005 C
ENDBRANCH  31  32
ENDBRANCH  20  31
BRANCH  22  34
HETATM   34  O5  UNL     1       5.316   2.364   8.810  1.00  0.00    -0.392 OA
ATOM     35  H5  UNL     1       5.922   2.312   8.080  1.00  0.00     0.210 HD
ENDBRANCH  22  34
ENDBRANCH  17  18
ENDBRANCH  16  17
BRANCH  16  36
HETATM   36  O2  UNL     1       7.266   2.154  14.825  1.00  0.00    -0.395 OA
ATOM     37  H2  UNL     1       6.502   1.667  15.111  1.00  0.00     0.210 HD
ENDBRANCH  16  36
ENDBRANCH   1  16
BRANCH  13  38
HETATM   38  C20 UNL     1       6.690  -4.628  14.354  1.00  0.00     0.279 C
BRANCH  38  39
HETATM   39  C21 UNL     1       8.127  -4.956  14.528  1.00  0.00     0.028 C
HETATM   40  C22 UNL     1       9.009  -3.763  14.781  1.00  0.00     0.013 C
BRANCH  39  41
HETATM   41  C23 UNL     1       8.298  -5.870  15.733  1.00  0.00     0.128 C
BRANCH  41  42
HETATM   42  N2  UNL     1       9.693  -6.131  16.043  1.00  0.00    -0.359 N
HETATM   43  C24 UNL     1      10.242  -5.873  17.317  1.00  0.00     0.243 C
HETATM   44  O3  UNL     1       9.505  -5.404  18.214  1.00  0.00    -0.272 OA
ATOM     45  H2  UNL     1      10.295  -6.515  15.315  1.00  0.00     0.162 HD
BRANCH  43  46
HETATM   46  C25 UNL     1      11.659  -6.143  17.611  1.00  0.00     0.331 C
BRANCH  46  47
HETATM   47  N3  UNL     1      12.528  -5.080  17.148  1.00  0.00    -0.071 N
ATOM     48  H33 UNL     1      12.678  -5.139  16.141  1.00  0.00     0.274 HD
ATOM     49  H32 UNL     1      12.058  -4.176  17.190  1.00  0.00     0.274 HD
ATOM     50  H31 UNL     1      13.414  -5.059  17.653  1.00  0.00     0.274 HD
ENDBRANCH  46  47
ENDBRANCH  43  46
ENDBRANCH  41  42
ENDBRANCH  39  41
ENDBRANCH  38  39
ENDBRANCH  13  38
TORSDOF 13
ENDMDL