MODEL 4
REMARK VINA RESULT: -8.742779014      1.800      2.389
REMARK  13 active torsions:
REMARK  status: ('A' for Active; 'I' for Inactive)
REMARK    1  A    between atoms: C2_2  and  C3_3
REMARK    2  A    between atoms: C3_3  and  C6_6
REMARK       I    between atoms: C6_6  and  N1_8
REMARK    3  A    between atoms: C7_10  and  C8_11
REMARK    4  A    between atoms: C7_10  and  C11_20
REMARK    5  A    between atoms: C8_11  and  C9_12
REMARK    6  A    between atoms: C9_12  and  C10_13
REMARK       I    between atoms: C10_13  and  N2_15
REMARK    7  A    between atoms: N2_15  and  N3_17
REMARK    8  A    between atoms: C16_25  and  O3_26
REMARK    9  A    between atoms: C24_35  and  O4_36
REMARK   10  A    between atoms: C27_40  and  O5_41
REMARK   11  A    between atoms: O5_41  and  C28_42
REMARK   12  A    between atoms: C28_42  and  C29_44
REMARK   13  A    between atoms: C29_44  and  N4_45
ROOT
HETATM    1  C11 UNL     1       7.455   2.186  10.995  1.00  0.00     0.032 C
HETATM    2  C12 UNL     1       7.878   0.986  10.162  1.00  0.00     0.011 C
HETATM    3  C13 UNL     1       8.202   0.005  11.256  1.00  0.00     0.013 C
HETATM    4  C14 UNL     1       7.242   0.323  12.417  1.00  0.00    -0.009 C
HETATM    5  C15 UNL     1       6.635   1.668  12.097  1.00  0.00     0.023 C
HETATM    6  C16 UNL     1       8.092   0.312  13.657  1.00  0.00     0.128 C
HETATM    7  C17 UNL     1       7.485  -0.665  14.647  1.00  0.00     0.042 C
HETATM    8  C18 UNL     1       6.186  -1.082  14.096  1.00  0.00    -0.027 C
HETATM    9  C19 UNL     1       5.172  -0.181  14.719  1.00  0.00     0.016 C
HETATM   10  C20 UNL     1       6.331  -0.796  12.609  1.00  0.00     0.005 C
HETATM   11  C21 UNL     1       4.920  -0.730  12.148  1.00  0.00     0.007 C
HETATM   12  C22 UNL     1       4.420  -2.164  12.137  1.00  0.00     0.008 C
HETATM   13  C23 UNL     1       4.680  -2.970  13.369  1.00  0.00     0.026 C
HETATM   14  C24 UNL     1       3.370  -3.217  14.031  1.00  0.00     0.123 C
HETATM   15  C25 UNL     1       3.349  -3.383  15.500  1.00  0.00     0.034 C
HETATM   16  C26 UNL     1       4.487  -2.882  16.271  1.00  0.00     0.036 C
HETATM   17  C27 UNL     1       5.841  -2.989  15.612  1.00  0.00     0.141 C
HETATM   18  C33 UNL     1       5.868  -2.560  14.181  1.00  0.00    -0.004 C
HETATM   19  C34 UNL     1       7.092  -3.261  13.555  1.00  0.00     0.019 C
ENDROOT
BRANCH   6  20
HETATM   20  O3  UNL     1       8.213   1.596  14.134  1.00  0.00    -0.395 OA
ATOM     21  H3  UNL     1       8.382   1.568  15.068  1.00  0.00     0.210 HD
ENDBRANCH   6  20
BRANCH   1  22
HETATM   22  C7  UNL     1       6.988   3.222  10.115  1.00  0.00    -0.006 C
HETATM   23  N1  UNL     1       7.696   3.366   9.001  1.00  0.00    -0.333 N
HETATM   24  C6  UNL     1       7.444   4.289   7.998  1.00  0.00     0.229 C
ATOM     25  H1  UNL     1       8.493   2.743   8.872  1.00  0.00     0.168 HD
HETATM   26  O1  UNL     1       7.749   5.505   8.191  1.00  0.00    -0.272 OA
BRANCH  24  27
HETATM   27  C3  UNL     1       6.833   3.944   6.694  1.00  0.00     0.034 C
HETATM   28  C4  UNL     1       7.725   4.149   5.515  1.00  0.00     0.025 C
HETATM   29  C5  UNL     1       5.616   4.868   6.542  1.00  0.00     0.025 C
BRANCH  27  30
HETATM   30  C2  UNL     1       6.299   2.515   6.694  1.00  0.00     0.014 C
HETATM   31  C1  UNL     1       7.158   1.601   5.880  1.00  0.00     0.006 C
ENDBRANCH  27  30
ENDBRANCH  24  27
BRANCH  22  32
HETATM   32  C8  UNL     1       5.856   4.146  10.248  1.00  0.00     0.062 C
BRANCH  32  33
HETATM   33  C9  UNL     1       4.586   3.486   9.784  1.00  0.00     0.110 C
BRANCH  33  34
HETATM   34  C10 UNL     1       3.624   3.310  10.918  1.00  0.00     0.235 C
HETATM   35  O2  UNL     1       3.516   4.260  11.728  1.00  0.00    -0.272 OA
HETATM   36  N2  UNL     1       2.888   2.117  11.042  1.00  0.00    -0.277 N
ATOM     37  H2  UNL     1       3.022   1.381  10.349  1.00  0.00     0.189 HD
BRANCH  36  38
HETATM   38  N3  UNL     1       1.989   1.910  12.074  1.00  0.00    -0.343 N
ATOM     39  H32 UNL     1       1.998   2.567  12.853  1.00  0.00     0.176 HD
ATOM     40  H31 UNL     1       1.332   1.130  12.073  1.00  0.00     0.176 HD
ENDBRANCH  36  38
ENDBRANCH  33  34
ENDBRANCH  32  33
ENDBRANCH  22  32
ENDBRANCH   1  22
BRANCH  17  41
HETATM   41  O5  UNL     1       6.523  -4.159  15.916  1.00  0.00    -0.314 OA
BRANCH  41  42
HETATM   42  C28 UNL     1       7.625  -4.321  16.729  1.00  0.00     0.285 C
HETATM   43  O6  UNL     1       8.518  -3.487  16.501  1.00  0.00    -0.263 OA
BRANCH  42  44
HETATM   44  C29 UNL     1       7.648  -5.388  17.723  1.00  0.00     0.346 C
BRANCH  44  45
HETATM   45  N4  UNL     1       8.642  -6.390  17.575  1.00  0.00    -0.070 N
HETATM   46  C30 UNL     1       8.209  -7.532  18.403  1.00  0.00     0.272 C
HETATM   47  C31 UNL     1       9.962  -6.067  18.016  1.00  0.00     0.272 C
HETATM   48  C32 UNL     1       8.725  -6.909  16.217  1.00  0.00     0.272 C
ENDBRANCH  44  45
ENDBRANCH  42  44
ENDBRANCH  41  42
ENDBRANCH  17  41
BRANCH  14  49
HETATM   49  O4  UNL     1       2.340  -2.344  13.568  1.00  0.00    -0.395 OA
ATOM     50  H4  UNL     1       2.285  -2.308  12.620  1.00  0.00     0.210 HD
ENDBRANCH  14  49
TORSDOF 13
ENDMDL