MODEL 4
REMARK VINA RESULT: -8.463029568      2.474      5.557
REMARK  13 active torsions:
REMARK  status: ('A' for Active; 'I' for Inactive)
REMARK    1  A    between atoms: C2_2  and  C3_3
REMARK    2  A    between atoms: C3_3  and  C5_5
REMARK    3  A    between atoms: C5_5  and  N1_6
REMARK    4  A    between atoms: C5_5  and  C17_24
REMARK       I    between atoms: N1_6  and  C6_8
REMARK    5  A    between atoms: C6_8  and  C7_10
REMARK    6  A    between atoms: C7_10  and  N2_11
REMARK    7  A    between atoms: C7_10  and  C13_20
REMARK       I    between atoms: N2_11  and  C8_13
REMARK    8  A    between atoms: C8_13  and  O3_15
REMARK    9  A    between atoms: O3_15  and  C9_16
REMARK       I    between atoms: C17_24  and  N3_26
REMARK   10  A    between atoms: C23_32  and  C24_33
REMARK   11  A    between atoms: C26_40  and  C27_41
REMARK   12  A    between atoms: C27_41  and  O8_43
REMARK   13  A    between atoms: O8_43  and  C28_44
ROOT
HETATM    1  C17 UNL     1       7.350  -4.245  15.049  1.00  0.00     0.243 C
HETATM    2  O4  UNL     1       7.783  -4.868  14.045  1.00  0.00    -0.271 OA
HETATM    3  N3  UNL     1       6.650  -3.054  14.827  1.00  0.00    -0.334 N
HETATM    4  C18 UNL     1       6.044  -2.207  15.815  1.00  0.00     0.129 C
HETATM    5  C19 UNL     1       4.696  -1.893  15.190  1.00  0.00     0.061 C
HETATM    6  C20 UNL     1       5.118  -1.624  13.747  1.00  0.00     0.157 C
HETATM    7  C21 UNL     1       5.238  -0.143  13.597  1.00  0.00     0.042 C
HETATM    8  C22 UNL     1       3.922   0.495  13.999  1.00  0.00     0.019 C
HETATM    9  C23 UNL     1       2.726  -0.318  13.603  1.00  0.00     0.112 C
HETATM   10  C25 UNL     1       3.138  -1.195  12.428  1.00  0.00     0.248 C
HETATM   11  N4  UNL     1       4.059  -2.180  12.918  1.00  0.00    -0.063 N
ATOM     12  H41 UNL     1       3.564  -2.921  13.414  1.00  0.00     0.278 HD
ATOM     13  H42 UNL     1       4.450  -2.723  12.148  1.00  0.00     0.278 HD
HETATM   14  C26 UNL     1       6.369  -2.398  13.535  1.00  0.00     0.223 C
ENDROOT
BRANCH   1  15
HETATM   15  C5  UNL     1       7.598  -4.805  16.376  1.00  0.00     0.180 C
BRANCH  15  16
HETATM   16  C3  UNL     1       8.902  -4.440  16.956  1.00  0.00     0.013 C
HETATM   17  C4  UNL     1       9.766  -5.604  17.340  1.00  0.00     0.012 C
BRANCH  16  18
HETATM   18  C2  UNL     1       9.682  -3.335  16.266  1.00  0.00     0.002 C
HETATM   19  C1  UNL     1      10.943  -3.810  15.609  1.00  0.00     0.005 C
ENDBRANCH  16  18
ENDBRANCH  15  16
BRANCH  15  20
HETATM   20  N1  UNL     1       7.277  -6.223  16.450  1.00  0.00    -0.346 N
HETATM   21  C6  UNL     1       6.708  -6.866  17.545  1.00  0.00     0.242 C
HETATM   22  O1  UNL     1       6.440  -6.137  18.548  1.00  0.00    -0.271 OA
ATOM     23  H1  UNL     1       7.486  -6.794  15.630  1.00  0.00     0.163 HD
BRANCH  21  24
HETATM   24  C7  UNL     1       6.388  -8.288  17.651  1.00  0.00     0.186 C
BRANCH  24  25
HETATM   25  N2  UNL     1       5.569  -8.785  16.545  1.00  0.00    -0.323 N
HETATM   26  C8  UNL     1       4.236  -9.195  16.630  1.00  0.00     0.362 C
HETATM   27  O2  UNL     1       3.548  -9.190  17.680  1.00  0.00    -0.238 OA
ATOM     28  H2  UNL     1       6.011  -8.837  15.628  1.00  0.00     0.165 HD
BRANCH  26  29
HETATM   29  O3  UNL     1       3.599  -9.647  15.481  1.00  0.00    -0.294 OA
BRANCH  29  30
HETATM   30  C9  UNL     1       3.663 -10.996  15.055  1.00  0.00     0.061 C
HETATM   31  C10 UNL     1       4.971 -11.656  15.339  1.00  0.00     0.046 C
HETATM   32  C11 UNL     1       2.518 -11.827  15.576  1.00  0.00     0.046 C
HETATM   33  C12 UNL     1       3.515 -10.942  13.527  1.00  0.00     0.046 C
ENDBRANCH  29  30
ENDBRANCH  26  29
ENDBRANCH  24  25
BRANCH  24  34
HETATM   34  C13 UNL     1       7.465  -9.258  17.920  1.00  0.00    -0.022 C
HETATM   35  C14 UNL     1       7.934  -9.939  16.641  1.00  0.00     0.017 C
HETATM   36  C15 UNL     1       8.640  -8.809  18.693  1.00  0.00     0.017 C
HETATM   37  C16 UNL     1       6.819 -10.398  18.777  1.00  0.00     0.017 C
ENDBRANCH  24  34
ENDBRANCH  21  24
ENDBRANCH  15  20
ENDBRANCH   1  15
BRANCH  14  38
HETATM   38  C27 UNL     1       7.534  -1.636  13.066  1.00  0.00     0.284 C
HETATM   39  O7  UNL     1       8.640  -1.560  13.716  1.00  0.00    -0.263 OA
BRANCH  38  40
HETATM   40  O8  UNL     1       7.533  -0.935  11.874  1.00  0.00    -0.314 OA
BRANCH  40  41
HETATM   41  C28 UNL     1       8.456   0.111  11.589  1.00  0.00     0.132 C
HETATM   42  C29 UNL     1       8.817   0.145  10.123  1.00  0.00     0.032 C
HETATM   43  C30 UNL     1       8.376   1.472   9.586  1.00  0.00     0.002 C
HETATM   44  C31 UNL     1       7.889   2.309  10.723  1.00  0.00     0.002 C
HETATM   45  C32 UNL     1       7.822   1.416  11.937  1.00  0.00     0.032 C
ENDBRANCH  40  41
ENDBRANCH  38  40
ENDBRANCH  14  38
BRANCH   9  46
HETATM   46  C24 UNL     1       1.633   0.556  13.121  1.00  0.00     0.178 C
HETATM   47  O5  UNL     1       1.910   1.513  12.363  1.00  0.00    -0.648 OA
HETATM   48  O6  UNL     1       0.298   0.335  13.493  1.00  0.00    -0.648 OA
ENDBRANCH   9  46
TORSDOF 13
ENDMDL