MODEL 4
REMARK VINA RESULT: -7.481533589      1.587      2.557
REMARK  6 active torsions:
REMARK  status: ('A' for Active; 'I' for Inactive)
REMARK    1  A    between atoms: C2_2  and  C3_3
REMARK    2  A    between atoms: C5_9  and  N3_10
REMARK    3  A    between atoms: N3_10  and  C6_12
REMARK    4  A    between atoms: C6_12  and  C8_14
REMARK    5  A    between atoms: C8_14  and  N4_15
REMARK    6  A    between atoms: C8_14  and  C12_22
REMARK       I    between atoms: N4_15  and  C9_17
REMARK       I    between atoms: C9_17  and  N5_19
ROOT
HETATM    1  N3  UNL     1     -18.137 -33.571  22.030  1.00  0.00    -0.368 N
ATOM      2  H3  UNL     1     -18.515 -32.894  22.694  1.00  0.00     0.161 HD
ENDROOT
BRANCH   1   3
HETATM    3  C5  UNL     1     -16.999 -33.914  22.353  1.00  0.00     0.129 A
HETATM    4  N2  UNL     1     -15.892 -33.853  21.509  1.00  0.00    -0.284 N
HETATM    5  N1  UNL     1     -14.827 -34.278  22.124  1.00  0.00    -0.296 N
ATOM      6  H2  UNL     1     -15.914 -33.522  20.543  1.00  0.00     0.188 HD
HETATM    7  C4  UNL     1     -15.109 -34.649  23.386  1.00  0.00     0.084 A
ATOM      8  H1  UNL     1     -13.899 -34.325  21.704  1.00  0.00     0.187 HD
HETATM    9  C3  UNL     1     -14.310 -35.151  24.394  1.00  0.00     0.040 A
HETATM   10  C16 UNL     1     -16.473 -34.422  23.538  1.00  0.00     0.040 A
HETATM   11  N6  UNL     1     -14.897 -35.424  25.559  1.00  0.00    -0.362 N
HETATM   12  C18 UNL     1     -16.213 -35.226  25.765  1.00  0.00     0.091 A
HETATM   13  C19 UNL     1     -14.109 -35.949  26.635  1.00  0.00     0.155 C
HETATM   14  C17 UNL     1     -17.005 -34.726  24.762  1.00  0.00     0.035 A
BRANCH   9  15
HETATM   15  C2  UNL     1     -12.878 -35.364  24.164  1.00  0.00     0.055 C
HETATM   16  C1  UNL     1     -12.052 -34.126  24.472  1.00  0.00     0.011 C
ENDBRANCH   9  15
ENDBRANCH   1   3
BRANCH   1  17
HETATM   17  C6  UNL     1     -19.031 -33.835  21.049  1.00  0.00     0.102 C
HETATM   18  C7  UNL     1     -19.213 -32.554  20.200  1.00  0.00     0.034 C
BRANCH  17  19
HETATM   19  C8  UNL     1     -20.407 -34.349  21.458  1.00  0.00     0.115 C
BRANCH  19  20
HETATM   20  N4  UNL     1     -21.213 -33.172  21.572  1.00  0.00    -0.336 N
HETATM   21  C9  UNL     1     -22.382 -32.795  22.161  1.00  0.00     0.318 C
HETATM   22  O1  UNL     1     -23.136 -33.509  22.823  1.00  0.00    -0.247 OA
HETATM   23  N5  UNL     1     -22.831 -31.425  22.027  1.00  0.00    -0.343 N
HETATM   24  C10 UNL     1     -24.063 -30.997  22.638  1.00  0.00     0.154 C
HETATM   25  C11 UNL     1     -22.056 -30.457  21.280  1.00  0.00     0.154 C
ATOM     26  H4  UNL     1     -20.791 -32.391  21.068  1.00  0.00     0.164 HD
ENDBRANCH  19  20
BRANCH  19  27
HETATM   27  C12 UNL     1     -20.898 -35.491  20.672  1.00  0.00    -0.029 C
HETATM   28  C13 UNL     1     -21.654 -36.440  21.578  1.00  0.00     0.016 C
HETATM   29  C14 UNL     1     -19.717 -36.281  20.133  1.00  0.00     0.016 C
HETATM   30  C15 UNL     1     -21.783 -35.172  19.512  1.00  0.00     0.016 C
ENDBRANCH  19  27
ENDBRANCH  17  19
ENDBRANCH   1  17
TORSDOF 6
ENDMDL