MODEL 1
REMARK VINA RESULT: -8.114040502      0.000      0.000
REMARK  6 active torsions:
REMARK  status: ('A' for Active; 'I' for Inactive)
REMARK    1  A    between atoms: C2_2  and  C3_3
REMARK    2  A    between atoms: C3_3  and  C4_4
REMARK    3  A    between atoms: C9_9  and  C10_10
REMARK    4  A    between atoms: C11_13  and  C12_14
REMARK    5  A    between atoms: C13_17  and  C14_18
REMARK    6  A    between atoms: C14_18  and  C15_19
ROOT
HETATM    1  C10 UNL     1     -17.288 -34.033  21.793  1.00  0.00     0.109 A
HETATM    2  N1  UNL     1     -18.101 -33.324  21.013  1.00  0.00    -0.325 N
ATOM      3  H1  UNL     1     -17.952 -32.723  20.203  1.00  0.00     0.169 HD
HETATM    4  C11 UNL     1     -19.194 -33.701  21.697  1.00  0.00     0.153 A
HETATM    5  N6  UNL     1     -18.395 -34.418  22.490  1.00  0.00    -0.325 N
ATOM      6  H6  UNL     1     -18.551 -35.017  23.301  1.00  0.00     0.169 HD
ENDROOT
BRANCH   4   7
HETATM    7  C12 UNL     1     -20.481 -33.420  21.561  1.00  0.00     0.153 A
HETATM    8  N2  UNL     1     -21.129 -32.162  21.650  1.00  0.00    -0.341 N
HETATM    9  C13 UNL     1     -22.414 -32.340  21.451  1.00  0.00     0.039 A
ATOM     10  H2  UNL     1     -20.673 -31.268  21.838  1.00  0.00     0.167 HD
HETATM   11  C18 UNL     1     -22.661 -33.759  21.218  1.00  0.00     0.032 A
HETATM   12  C19 UNL     1     -23.989 -34.416  20.960  1.00  0.00     0.070 C
HETATM   13  N5  UNL     1     -21.521 -34.355  21.289  1.00  0.00    -0.337 N
HETATM   14  C20 UNL     1     -21.287 -35.778  21.114  1.00  0.00     0.158 C
BRANCH   9  15
HETATM   15  C14 UNL     1     -23.391 -31.246  21.470  1.00  0.00     0.117 C
BRANCH  15  16
HETATM   16  C15 UNL     1     -23.937 -31.058  22.818  1.00  0.00     0.031 A
HETATM   17  C16 UNL     1     -23.695 -29.898  23.563  1.00  0.00     0.114 A
HETATM   18  N3  UNL     1     -24.306 -30.007  24.749  1.00  0.00    -0.360 N
HETATM   19  C17 UNL     1     -24.913 -31.199  24.747  1.00  0.00     0.180 A
ATOM     20  H3  UNL     1     -24.309 -29.320  25.502  1.00  0.00     0.166 HD
HETATM   21  N4  UNL     1     -24.689 -31.821  23.591  1.00  0.00    -0.354 N
ATOM     22  H4  UNL     1     -25.043 -32.744  23.341  1.00  0.00     0.166 HD
ENDBRANCH  15  16
ENDBRANCH   9  15
ENDBRANCH   4   7
BRANCH   1  23
HETATM   23  C9  UNL     1     -16.002 -34.310  21.927  1.00  0.00     0.060 C
HETATM   24  C8  UNL     1     -15.269 -34.336  23.165  1.00  0.00    -0.032 A
HETATM   25  C7  UNL     1     -15.709 -34.084  24.505  1.00  0.00     0.012 A
HETATM   26  C21 UNL     1     -13.961 -34.626  23.219  1.00  0.00     0.022 A
HETATM   27  C6  UNL     1     -14.686 -34.217  25.368  1.00  0.00     0.012 A
HETATM   28  C5  UNL     1     -13.506 -34.573  24.595  1.00  0.00    -0.039 A
HETATM   29  C4  UNL     1     -12.320 -34.784  25.104  1.00  0.00    -0.015 C
BRANCH  29  30
HETATM   30  C3  UNL     1     -11.138 -35.145  24.275  1.00  0.00     0.027 C
BRANCH  30  31
HETATM   31  C2  UNL     1     -10.911 -36.644  24.362  1.00  0.00    -0.001 C
HETATM   32  C1  UNL     1     -10.004 -37.091  23.242  1.00  0.00     0.005 C
ENDBRANCH  30  31
ENDBRANCH  29  30
ENDBRANCH   1  23
TORSDOF 6
ENDMDL