MODEL 2
REMARK VINA RESULT: -7.931232544      1.546      2.562
REMARK  9 active torsions:
REMARK  status: ('A' for Active; 'I' for Inactive)
REMARK    1  A    between atoms: C4_4  and  C5_5
REMARK    2  A    between atoms: C5_5  and  N1_6
REMARK    3  A    between atoms: C8_9  and  C9_10
REMARK    4  A    between atoms: C10_13  and  N3_14
REMARK    5  A    between atoms: N3_14  and  C11_16
REMARK    6  A    between atoms: C11_16  and  C12_20
REMARK    7  A    between atoms: C12_20  and  O1_21
REMARK    8  A    between atoms: O1_21  and  C13_22
REMARK    9  A    between atoms: C13_22  and  C14_23
ROOT
HETATM    1  C1  UNL     1     -14.869 -33.748  27.540  1.00  0.00     0.027 C
HETATM    2  C2  UNL     1     -15.007 -33.960  26.348  1.00  0.00    -0.026 C
HETATM    3  C3  UNL     1     -15.178 -34.230  24.965  1.00  0.00    -0.014 C
HETATM    4  C4  UNL     1     -15.343 -34.454  23.792  1.00  0.00    -0.072 C
ENDROOT
BRANCH   4   5
HETATM    5  C5  UNL     1     -15.568 -34.726  22.372  1.00  0.00     0.223 C
BRANCH   5   6
HETATM    6  N1  UNL     1     -16.965 -34.647  22.007  1.00  0.00    -0.350 N
HETATM    7  C6  UNL     1     -17.848 -35.392  22.676  1.00  0.00     0.093 A
HETATM    8  C7  UNL     1     -19.182 -35.374  22.393  1.00  0.00     0.031 A
HETATM    9  C8  UNL     1     -19.668 -34.551  21.366  1.00  0.00    -0.004 A
HETATM   10  C19 UNL     1     -18.733 -33.816  20.720  1.00  0.00     0.038 A
HETATM   11  C20 UNL     1     -17.354 -33.842  21.021  1.00  0.00     0.009 A
HETATM   12  C21 UNL     1     -16.415 -32.993  20.246  1.00  0.00     0.068 C
BRANCH   9  13
HETATM   13  C9  UNL     1     -21.111 -34.541  21.130  1.00  0.00     0.082 A
HETATM   14  N2  UNL     1     -22.028 -34.005  21.995  1.00  0.00    -0.189 N
HETATM   15  C10 UNL     1     -23.244 -34.203  21.477  1.00  0.00     0.684 A
ATOM     16  H2  UNL     1     -21.820 -33.537  22.878  1.00  0.00     0.184 HD
HETATM   17  N5  UNL     1     -23.177 -34.837  20.323  1.00  0.00    -0.193 N
HETATM   18  C17 UNL     1     -21.838 -35.060  20.089  1.00  0.00     0.051 A
ATOM     19  H5  UNL     1     -23.959 -35.108  19.725  1.00  0.00     0.184 HD
HETATM   20  C18 UNL     1     -21.335 -35.778  18.890  1.00  0.00     0.071 C
BRANCH  15  21
HETATM   21  N3  UNL     1     -24.344 -33.811  22.055  1.00  0.00    -0.179 N
ATOM     22  H3  UNL     1     -25.198 -34.356  21.935  1.00  0.00     0.185 HD
BRANCH  21  23
HETATM   23  C11 UNL     1     -24.372 -32.632  22.850  1.00  0.00     0.115 C
HETATM   24  N4  UNL     1     -24.734 -32.736  24.080  1.00  0.00    -0.387 N
ATOM     25  H42 UNL     1     -24.988 -33.656  24.439  1.00  0.00     0.157 HD
ATOM     26  H41 UNL     1     -24.754 -31.891  24.650  1.00  0.00     0.157 HD
BRANCH  23  27
HETATM   27  C12 UNL     1     -24.005 -31.298  22.329  1.00  0.00     0.245 C
BRANCH  27  28
HETATM   28  O1  UNL     1     -22.635 -31.156  22.319  1.00  0.00    -0.372 OA
BRANCH  28  29
HETATM   29  C13 UNL     1     -22.195 -30.260  21.347  1.00  0.00     0.261 C
BRANCH  29  30
HETATM   30  C14 UNL     1     -21.687 -30.952  20.161  1.00  0.00    -0.081 C
HETATM   31  C15 UNL     1     -21.244 -31.519  19.172  1.00  0.00    -0.109 C
HETATM   32  C16 UNL     1     -20.737 -32.192  17.979  1.00  0.00     0.112 C
ENDBRANCH  29  30
ENDBRANCH  28  29
ENDBRANCH  27  28
ENDBRANCH  23  27
ENDBRANCH  21  23
ENDBRANCH  15  21
ENDBRANCH   9  13
ENDBRANCH   5   6
ENDBRANCH   4   5
TORSDOF 9
ENDMDL