MODEL 5
REMARK VINA RESULT: -8.458294074      2.115      2.987
REMARK  7 active torsions:
REMARK  status: ('A' for Active; 'I' for Inactive)
REMARK    1  A    between atoms: C5_5  and  C6_6
REMARK    2  A    between atoms: C6_6  and  C7_7
REMARK    3  A    between atoms: C8_10  and  C9_11
REMARK    4  A    between atoms: C9_11  and  C10_12
REMARK    5  A    between atoms: C13_15  and  C14_16
REMARK    6  A    between atoms: C14_16  and  C15_17
REMARK    7  A    between atoms: C15_17  and  O1_18
ROOT
HETATM    1  C7  UNL     1     -19.806 -33.373  21.100  1.00  0.00     0.041 A
HETATM    2  N1  UNL     1     -18.961 -33.680  22.074  1.00  0.00    -0.355 N
ATOM      3  H1  UNL     1     -18.652 -33.022  22.791  1.00  0.00     0.166 HD
HETATM    4  C8  UNL     1     -18.562 -34.952  22.004  1.00  0.00     0.040 A
HETATM    5  C21 UNL     1     -19.230 -35.472  20.876  1.00  0.00    -0.027 A
HETATM    6  C22 UNL     1     -19.073 -36.863  20.429  1.00  0.00     0.051 C
HETATM    7  C23 UNL     1     -20.007 -34.485  20.310  1.00  0.00    -0.027 A
HETATM    8  C24 UNL     1     -20.861 -34.637  19.107  1.00  0.00     0.051 C
ENDROOT
BRANCH   4   9
HETATM    9  C9  UNL     1     -17.616 -35.649  22.826  1.00  0.00     0.042 C
BRANCH   9  10
HETATM   10  C10 UNL     1     -16.845 -35.342  23.827  1.00  0.00    -0.018 A
HETATM   11  C11 UNL     1     -15.595 -34.767  23.734  1.00  0.00    -0.044 A
HETATM   12  C12 UNL     1     -15.028 -34.418  22.430  1.00  0.00     0.049 C
HETATM   13  C13 UNL     1     -14.789 -34.467  24.834  1.00  0.00    -0.043 A
HETATM   14  C16 UNL     1     -15.302 -34.775  26.064  1.00  0.00    -0.054 A
HETATM   15  C17 UNL     1     -14.468 -34.469  27.284  1.00  0.00     0.049 C
HETATM   16  C18 UNL     1     -16.530 -35.342  26.211  1.00  0.00     0.018 A
HETATM   17  C19 UNL     1     -17.339 -35.645  25.119  1.00  0.00    -0.034 A
HETATM   18  C20 UNL     1     -18.519 -36.194  25.348  1.00  0.00     0.024 C
BRANCH  13  19
HETATM   19  C14 UNL     1     -13.476 -33.873  24.683  1.00  0.00     0.065 C
BRANCH  19  20
HETATM   20  C15 UNL     1     -12.420 -34.946  24.530  1.00  0.00     0.168 C
BRANCH  20  21
HETATM   21  O1  UNL     1     -11.504 -34.668  23.533  1.00  0.00    -0.401 OA
ATOM     22  H1  UNL     1     -10.707 -34.267  23.858  1.00  0.00     0.209 HD
ENDBRANCH  20  21
ENDBRANCH  19  20
ENDBRANCH  13  19
ENDBRANCH   9  10
ENDBRANCH   4   9
BRANCH   1  23
HETATM   23  C6  UNL     1     -20.434 -32.066  20.879  1.00  0.00     0.059 C
BRANCH  23  24
HETATM   24  C5  UNL     1     -21.586 -31.742  21.426  1.00  0.00     0.034 A
HETATM   25  C4  UNL     1     -22.173 -30.501  21.360  1.00  0.00     0.032 A
HETATM   26  C3  UNL     1     -23.360 -30.569  22.054  1.00  0.00     0.031 A
HETATM   27  C2  UNL     1     -23.510 -31.844  22.548  1.00  0.00     0.023 A
HETATM   28  C1  UNL     1     -24.518 -32.308  23.267  1.00  0.00     0.043 C
HETATM   29  N2  UNL     1     -22.422 -32.517  22.148  1.00  0.00    -0.357 N
ATOM     30  H2  UNL     1     -22.247 -33.498  22.364  1.00  0.00     0.166 HD
ENDBRANCH  23  24
ENDBRANCH   1  23
TORSDOF 7
ENDMDL