MODEL 4
REMARK VINA RESULT: -8.567890967      1.025      1.102
REMARK  5 active torsions:
REMARK  status: ('A' for Active; 'I' for Inactive)
REMARK    1  A    between atoms: C2_2  and  C3_3
REMARK    2  A    between atoms: C3_3  and  C4_4
REMARK    3  A    between atoms: C4_4  and  N1_5
REMARK       I    between atoms: N1_5  and  C5_7
REMARK       I    between atoms: C5_7  and  N2_9
REMARK       I    between atoms: N3_11  and  C7_12
REMARK       I    between atoms: C7_12  and  N4_14
REMARK    4  A    between atoms: C8_16  and  N5_17
REMARK    5  A    between atoms: N5_17  and  C9_19
ROOT
HETATM    1  N1  UNL     1     -16.342 -35.837  24.185  1.00  0.00    -0.343 N
ATOM      2  H1  UNL     1     -15.465 -35.898  23.668  1.00  0.00     0.164 HD
HETATM    3  C5  UNL     1     -17.507 -35.465  23.488  1.00  0.00     0.320 C
HETATM    4  O1  UNL     1     -18.587 -35.384  24.123  1.00  0.00    -0.247 OA
HETATM    5  N2  UNL     1     -17.545 -35.168  22.081  1.00  0.00    -0.307 N
HETATM    6  C6  UNL     1     -18.764 -34.774  21.393  1.00  0.00     0.259 C
HETATM    7  N3  UNL     1     -18.306 -34.208  20.130  1.00  0.00    -0.315 N
HETATM    8  C7  UNL     1     -18.856 -33.161  19.347  1.00  0.00     0.324 C
HETATM    9  O2  UNL     1     -18.287 -32.819  18.255  1.00  0.00    -0.247 OA
HETATM   10  N4  UNL     1     -20.012 -32.438  19.670  1.00  0.00    -0.305 N
ATOM     11  H4  UNL     1     -20.006 -31.448  19.424  1.00  0.00     0.171 HD
HETATM   12  C8  UNL     1     -21.067 -32.868  20.233  1.00  0.00     0.186 C
HETATM   13  C14 UNL     1     -17.118 -34.953  19.800  1.00  0.00     0.160 C
HETATM   14  C15 UNL     1     -16.479 -35.194  21.138  1.00  0.00     0.047 C
HETATM   15  C16 UNL     1     -15.514 -34.071  21.457  1.00  0.00     0.040 C
HETATM   16  C17 UNL     1     -15.758 -36.534  21.108  1.00  0.00     0.040 C
ENDROOT
BRANCH  12  17
HETATM   17  N5  UNL     1     -22.157 -31.967  20.484  1.00  0.00    -0.337 N
ATOM     18  H5  UNL     1     -22.301 -31.150  19.892  1.00  0.00     0.168 HD
BRANCH  17  19
HETATM   19  C9  UNL     1     -22.951 -32.211  21.475  1.00  0.00     0.128 A
HETATM   20  N6  UNL     1     -23.582 -33.383  21.741  1.00  0.00    -0.285 N
HETATM   21  N7  UNL     1     -24.303 -33.243  22.832  1.00  0.00    -0.303 N
ATOM     22  H6  UNL     1     -23.509 -34.236  21.185  1.00  0.00     0.188 HD
HETATM   23  C10 UNL     1     -24.170 -31.996  23.307  1.00  0.00     0.031 A
ATOM     24  H7  UNL     1     -24.877 -33.973  23.254  1.00  0.00     0.186 HD
HETATM   25  C11 UNL     1     -24.790 -31.385  24.505  1.00  0.00     0.070 C
HETATM   26  C12 UNL     1     -23.309 -31.310  22.459  1.00  0.00     0.007 A
HETATM   27  C13 UNL     1     -22.892 -29.892  22.624  1.00  0.00     0.054 C
ENDBRANCH  17  19
ENDBRANCH  12  17
BRANCH   1  28
HETATM   28  C4  UNL     1     -16.330 -36.134  25.591  1.00  0.00     0.124 C
BRANCH  28  29
HETATM   29  C3  UNL     1     -15.063 -35.676  26.268  1.00  0.00     0.019 C
BRANCH  29  30
HETATM   30  C2  UNL     1     -15.323 -34.430  27.083  1.00  0.00    -0.003 C
HETATM   31  C1  UNL     1     -14.968 -33.198  26.293  1.00  0.00     0.005 C
ENDBRANCH  29  30
ENDBRANCH  28  29
ENDBRANCH   1  28
TORSDOF 5
ENDMDL