MODEL 5
REMARK VINA RESULT: -6.759049673      2.936      7.605
REMARK  6 active torsions:
REMARK  status: ('A' for Active; 'I' for Inactive)
REMARK    1  A    between atoms: C2_2  and  C3_3
REMARK    2  A    between atoms: C3_3  and  C4_4
REMARK    3  A    between atoms: C5_5  and  C6_6
REMARK       I    between atoms: N2_13  and  C12_15
REMARK       I    between atoms: C12_15  and  N4_19
REMARK    4  A    between atoms: N4_19  and  C13_21
REMARK    5  A    between atoms: C13_21  and  C14_22
REMARK    6  A    between atoms: C14_22  and  N5_23
ROOT
HETATM    1  C6  UNL     1     -16.796 -34.471  19.772  1.00  0.00     0.090 C
HETATM    2  C7  UNL     1     -16.809 -35.537  20.570  1.00  0.00     0.036 C
HETATM    3  C8  UNL     1     -18.066 -36.028  21.177  1.00  0.00     0.078 C
HETATM    4  C9  UNL     1     -17.773 -36.460  22.620  1.00  0.00     0.146 C
HETATM    5  N1  UNL     1     -16.782 -37.554  22.487  1.00  0.00    -0.221 N
HETATM    6  C10 UNL     1     -17.036 -38.877  22.983  1.00  0.00     0.168 C
HETATM    7  C11 UNL     1     -15.571 -37.254  21.832  1.00  0.00     0.694 C
HETATM    8  N2  UNL     1     -14.497 -37.808  22.056  1.00  0.00    -0.023 N
ATOM      9  H2  UNL     1     -13.760 -37.429  21.461  1.00  0.00     0.203 HD
HETATM   10  C12 UNL     1     -14.003 -38.797  22.883  1.00  0.00     0.686 C
HETATM   11  N3  UNL     1     -13.923 -40.018  22.483  1.00  0.00    -0.234 N
ATOM     12  H31 UNL     1     -13.559 -40.748  23.094  1.00  0.00     0.174 HD
ATOM     13  H32 UNL     1     -14.247 -40.239  21.541  1.00  0.00     0.174 HD
HETATM   14  N4  UNL     1     -13.555 -38.490  24.188  1.00  0.00    -0.224 N
ATOM     15  H4  UNL     1     -13.679 -39.163  24.946  1.00  0.00     0.177 HD
HETATM   16  N6  UNL     1     -15.592 -36.202  20.833  1.00  0.00    -0.194 N
ATOM     17  H6  UNL     1     -14.742 -35.948  20.330  1.00  0.00     0.184 HD
ENDROOT
BRANCH  14  18
HETATM   18  C13 UNL     1     -12.926 -37.226  24.440  1.00  0.00     0.166 C
BRANCH  18  19
HETATM   19  C14 UNL     1     -13.296 -36.557  25.702  1.00  0.00     0.257 C
BRANCH  19  20
HETATM   20  N5  UNL     1     -14.412 -35.708  25.740  1.00  0.00    -0.065 N
HETATM   21  C15 UNL     1     -14.305 -34.718  26.841  1.00  0.00     0.238 C
HETATM   22  C16 UNL     1     -14.936 -33.445  26.325  1.00  0.00     0.034 C
HETATM   23  C17 UNL     1     -15.740 -34.013  25.173  1.00  0.00     0.015 C
HETATM   24  C18 UNL     1     -16.623 -35.062  25.747  1.00  0.00     0.034 C
HETATM   25  C20 UNL     1     -14.617 -34.872  24.558  1.00  0.00     0.242 C
HETATM   26  C19 UNL     1     -15.708 -36.294  25.873  1.00  0.00     0.238 C
ENDBRANCH  19  20
ENDBRANCH  18  19
ENDBRANCH  14  18
BRANCH   1  27
HETATM   27  C5  UNL     1     -17.980 -33.737  19.450  1.00  0.00    -0.077 C
HETATM   28  C4  UNL     1     -18.989 -33.127  19.189  1.00  0.00    -0.102 C
BRANCH  28  29
HETATM   29  C3  UNL     1     -20.225 -32.383  18.893  1.00  0.00     0.094 C
BRANCH  29  30
HETATM   30  C2  UNL     1     -20.575 -31.583  20.122  1.00  0.00     0.007 C
HETATM   31  C1  UNL     1     -20.896 -32.462  21.304  1.00  0.00     0.006 C
ENDBRANCH  29  30
ENDBRANCH  28  29
ENDBRANCH   1  27
TORSDOF 6
ENDMDL