MODEL 2
REMARK VINA RESULT: -7.324823230      3.775      6.996
REMARK  7 active torsions:
REMARK  status: ('A' for Active; 'I' for Inactive)
REMARK    1  A    between atoms: C2_2  and  N1_5
REMARK       I    between atoms: C5_7  and  N2_8
REMARK       I    between atoms: C5_7  and  N4_19
REMARK    2  A    between atoms: N2_8  and  C6_10
REMARK    3  A    between atoms: C6_10  and  C7_11
REMARK    4  A    between atoms: C8_12  and  C9_13
REMARK    5  A    between atoms: C9_13  and  C10_14
REMARK    6  A    between atoms: C10_14  and  N3_15
REMARK       I    between atoms: N4_19  and  C14_21
REMARK       I    between atoms: C14_21  and  N5_23
REMARK    7  A    between atoms: N5_23  and  C15_25
ROOT
HETATM    1  N1  UNL     1     -18.788 -33.335  17.572  1.00  0.00    -0.218 N
ATOM      2  H1  UNL     1     -18.126 -34.004  17.179  1.00  0.00     0.178 HD
HETATM    3  C5  UNL     1     -18.806 -33.328  18.832  1.00  0.00     0.679 C
HETATM    4  N2  UNL     1     -17.950 -34.205  19.540  1.00  0.00    -0.216 N
ATOM      5  H2  UNL     1     -18.355 -34.865  20.204  1.00  0.00     0.178 HD
HETATM    6  N4  UNL     1     -19.651 -32.471  19.553  1.00  0.00    -0.141 N
ATOM      7  H4  UNL     1     -20.249 -31.851  19.007  1.00  0.00     0.189 HD
HETATM    8  C14 UNL     1     -19.755 -32.383  20.956  1.00  0.00     0.339 C
HETATM    9  O1  UNL     1     -19.049 -33.117  21.700  1.00  0.00    -0.246 OA
HETATM   10  N5  UNL     1     -20.660 -31.461  21.553  1.00  0.00    -0.308 N
ATOM     11  H5  UNL     1     -20.297 -30.542  21.807  1.00  0.00     0.170 HD
ENDROOT
BRANCH   1  12
HETATM   12  C2  UNL     1     -19.495 -32.605  16.594  1.00  0.00     0.036 C
HETATM   13  C1  UNL     1     -20.818 -32.053  17.058  1.00  0.00     0.038 C
HETATM   14  C3  UNL     1     -18.721 -31.472  15.969  1.00  0.00     0.038 C
HETATM   15  C4  UNL     1     -19.822 -33.600  15.461  1.00  0.00     0.038 C
ENDBRANCH   1  12
BRANCH   4  16
HETATM   16  C6  UNL     1     -16.498 -34.191  19.346  1.00  0.00     0.232 C
BRANCH  16  17
HETATM   17  C7  UNL     1     -15.813 -34.245  20.633  1.00  0.00    -0.086 C
HETATM   18  C8  UNL     1     -15.259 -34.299  21.720  1.00  0.00    -0.103 C
BRANCH  18  19
HETATM   19  C9  UNL     1     -14.619 -34.369  23.034  1.00  0.00     0.122 C
BRANCH  19  20
HETATM   20  C10 UNL     1     -15.702 -34.289  24.083  1.00  0.00     0.248 C
BRANCH  20  21
HETATM   21  N3  UNL     1     -15.240 -34.600  25.398  1.00  0.00    -0.078 N
HETATM   22  C11 UNL     1     -13.974 -35.328  25.249  1.00  0.00     0.271 C
HETATM   23  C12 UNL     1     -14.954 -33.420  26.199  1.00  0.00     0.271 C
HETATM   24  C13 UNL     1     -16.139 -35.456  26.133  1.00  0.00     0.271 C
ENDBRANCH  20  21
ENDBRANCH  19  20
ENDBRANCH  18  19
ENDBRANCH  16  17
ENDBRANCH   4  16
BRANCH  10  25
HETATM   25  C15 UNL     1     -21.886 -31.696  21.794  1.00  0.00     0.038 A
HETATM   26  C16 UNL     1     -22.447 -32.955  21.735  1.00  0.00     0.046 A
HETATM   27  C17 UNL     1     -23.797 -33.125  22.014  1.00  0.00     0.090 A
HETATM   28  N6  UNL     1     -24.509 -32.047  22.332  1.00  0.00    -0.375 N
HETATM   29  C18 UNL     1     -24.006 -30.819  22.398  1.00  0.00     0.090 A
ATOM     30  H6  UNL     1     -25.501 -32.172  22.538  1.00  0.00     0.164 HD
HETATM   31  C19 UNL     1     -22.682 -30.614  22.132  1.00  0.00     0.046 A
ENDBRANCH  10  25
TORSDOF 7
ENDMDL