MODEL 5
REMARK VINA RESULT: -6.279946413      3.879      7.758
REMARK  9 active torsions:
REMARK  status: ('A' for Active; 'I' for Inactive)
REMARK    1  A    between atoms: C2_2  and  N1_3
REMARK    2  A    between atoms: N1_3  and  C4_5
REMARK    3  A    between atoms: C4_5  and  N2_7
REMARK       I    between atoms: C5_9  and  N3_10
REMARK       I    between atoms: C5_9  and  N6_22
REMARK    4  A    between atoms: N3_10  and  C6_12
REMARK    5  A    between atoms: C7_13  and  C8_14
REMARK    6  A    between atoms: C8_14  and  C9_15
REMARK    7  A    between atoms: C9_15  and  N4_16
REMARK    8  A    between atoms: N4_16  and  C10_18
REMARK    9  A    between atoms: C10_18  and  S2_20
ROOT
HETATM    1  N2  UNL     1     -20.674 -33.143  21.596  1.00  0.00    -0.166 N
ATOM      2  H2  UNL     1     -20.643 -32.468  22.360  1.00  0.00     0.186 HD
HETATM    3  C5  UNL     1     -21.791 -33.243  20.975  1.00  0.00     0.690 C
HETATM    4  N3  UNL     1     -22.056 -34.115  19.887  1.00  0.00    -0.148 N
ATOM      5  H3  UNL     1     -21.657 -33.885  18.977  1.00  0.00     0.195 HD
HETATM    6  N6  UNL     1     -22.826 -32.362  21.478  1.00  0.00    -0.217 N
HETATM    7  C12 UNL     1     -22.767 -30.993  21.018  1.00  0.00     0.141 C
HETATM    8  C13 UNL     1     -22.761 -30.115  22.248  1.00  0.00     0.020 C
HETATM    9  C14 UNL     1     -24.003 -30.389  23.033  1.00  0.00     0.003 C
HETATM   10  C15 UNL     1     -24.169 -31.820  23.459  1.00  0.00     0.020 C
HETATM   11  C16 UNL     1     -23.844 -32.803  22.370  1.00  0.00     0.141 C
ENDROOT
BRANCH   1  12
HETATM   12  C4  UNL     1     -19.495 -33.848  21.350  1.00  0.00     0.188 C
HETATM   13  S1  UNL     1     -19.242 -35.301  22.036  1.00  0.00    -0.040 SA
BRANCH  12  14
HETATM   14  N1  UNL     1     -18.463 -33.333  20.492  1.00  0.00    -0.362 N
HETATM   15  C3  UNL     1     -18.615 -33.434  19.034  1.00  0.00     0.152 C
BRANCH  14  16
HETATM   16  C2  UNL     1     -17.276 -32.715  21.017  1.00  0.00     0.120 C
HETATM   17  C1  UNL     1     -16.049 -33.244  20.279  1.00  0.00     0.026 C
ENDBRANCH  14  16
ENDBRANCH  12  14
ENDBRANCH   1  12
BRANCH   4  18
HETATM   18  C6  UNL     1     -22.834 -35.271  19.997  1.00  0.00     0.026 C
HETATM   19  C7  UNL     1     -23.537 -36.266  20.088  1.00  0.00    -0.081 C
BRANCH  19  20
HETATM   20  C8  UNL     1     -24.406 -37.437  20.188  1.00  0.00     0.115 C
BRANCH  20  21
HETATM   21  C9  UNL     1     -25.363 -37.385  19.003  1.00  0.00     0.133 C
BRANCH  21  22
HETATM   22  N4  UNL     1     -24.766 -38.088  17.904  1.00  0.00    -0.372 N
ATOM     23  H4  UNL     1     -24.846 -37.620  17.000  1.00  0.00     0.161 HD
BRANCH  22  24
HETATM   24  C10 UNL     1     -24.099 -39.300  17.876  1.00  0.00     0.149 C
HETATM   25  N5  UNL     1     -24.869 -40.497  18.174  1.00  0.00    -0.075 NA
BRANCH  24  26
HETATM   26  S2  UNL     1     -22.553 -39.504  17.511  1.00  0.00    -0.102 SA
HETATM   27  C11 UNL     1     -21.280 -38.272  17.885  1.00  0.00     0.098 C
ENDBRANCH  24  26
ENDBRANCH  22  24
ENDBRANCH  21  22
ENDBRANCH  20  21
ENDBRANCH  19  20
ENDBRANCH   4  18
TORSDOF 9
ENDMDL