MODEL 3
REMARK VINA RESULT: -8.041266922      1.443      1.659
REMARK  5 active torsions:
REMARK  status: ('A' for Active; 'I' for Inactive)
REMARK    1  A    between atoms: C10_12  and  N2_13
REMARK    2  A    between atoms: N2_13  and  N3_14
REMARK    3  A    between atoms: N4_19  and  C12_20
REMARK    4  A    between atoms: C12_20  and  C14_22
REMARK    5  A    between atoms: C14_22  and  C15_23
ROOT
HETATM    1  C1  UNL     1     -20.876 -35.737  17.786  1.00  0.00     0.022 C
HETATM    2  C2  UNL     1     -20.938 -34.478  18.150  1.00  0.00    -0.031 C
HETATM    3  C3  UNL     1     -20.334 -33.433  17.285  1.00  0.00     0.002 A
HETATM    4  C4  UNL     1     -19.791 -33.178  16.038  1.00  0.00    -0.034 A
HETATM    5  C5  UNL     1     -19.599 -34.170  14.943  1.00  0.00     0.050 C
HETATM    6  C6  UNL     1     -19.457 -31.843  15.984  1.00  0.00     0.095 A
HETATM    7  N1  UNL     1     -19.782 -31.309  17.147  1.00  0.00    -0.368 N
ATOM      8  H1  UNL     1     -19.648 -30.328  17.396  1.00  0.00     0.165 HD
HETATM    9  C7  UNL     1     -20.313 -32.238  17.956  1.00  0.00     0.027 A
HETATM   10  C8  UNL     1     -20.852 -32.437  19.280  1.00  0.00     0.071 C
HETATM   11  C9  UNL     1     -21.885 -31.486  19.769  1.00  0.00     0.094 C
HETATM   12  C10 UNL     1     -22.448 -32.049  21.048  1.00  0.00     0.176 C
HETATM   13  C11 UNL     1     -22.146 -33.399  21.499  1.00  0.00     0.287 C
HETATM   14  O1  UNL     1     -22.576 -33.758  22.614  1.00  0.00    -0.265 OA
HETATM   15  N4  UNL     1     -21.359 -34.263  20.622  1.00  0.00    -0.309 N
HETATM   16  C20 UNL     1     -21.529 -33.829  19.261  1.00  0.00     0.136 C
ENDROOT
BRANCH  15  17
HETATM   17  C12 UNL     1     -20.587 -35.287  21.179  1.00  0.00    -0.005 C
HETATM   18  C13 UNL     1     -21.342 -36.455  21.782  1.00  0.00     0.064 C
BRANCH  17  19
HETATM   19  C14 UNL     1     -19.385 -34.904  21.987  1.00  0.00     0.111 C
BRANCH  19  20
HETATM   20  C15 UNL     1     -18.096 -34.766  21.370  1.00  0.00     0.033 A
HETATM   21  C16 UNL     1     -17.260 -35.781  20.950  1.00  0.00     0.115 A
HETATM   22  N5  UNL     1     -16.132 -35.311  20.432  1.00  0.00    -0.354 N
HETATM   23  C17 UNL     1     -16.219 -33.971  20.506  1.00  0.00     0.079 A
ATOM     24  H5  UNL     1     -15.357 -35.855  20.053  1.00  0.00     0.166 HD
HETATM   25  C18 UNL     1     -15.168 -33.021  20.034  1.00  0.00     0.089 C
HETATM   26  N6  UNL     1     -17.401 -33.629  21.072  1.00  0.00    -0.343 N
HETATM   27  C19 UNL     1     -17.813 -32.259  21.305  1.00  0.00     0.157 C
ENDBRANCH  19  20
ENDBRANCH  17  19
ENDBRANCH  15  17
BRANCH  12  28
HETATM   28  N2  UNL     1     -23.204 -31.274  21.713  1.00  0.00    -0.332 NA
BRANCH  28  29
HETATM   29  N3  UNL     1     -23.886 -30.744  22.612  1.00  0.00    -0.280 N
ATOM     30  H32 UNL     1     -23.095 -30.647  23.250  1.00  0.00     0.191 HD
ATOM     31  H31 UNL     1     -24.648 -30.346  23.160  1.00  0.00     0.191 HD
ENDBRANCH  28  29
ENDBRANCH  12  28
TORSDOF 5
ENDMDL