MODEL 5
REMARK VINA RESULT: -8.471913865      5.980     12.317
REMARK  11 active torsions:
REMARK  status: ('A' for Active; 'I' for Inactive)
REMARK    1  A    between atoms: O1_2  and  C2_3
REMARK    2  A    between atoms: C7_9  and  N1_10
REMARK       I    between atoms: C8_12  and  N2_13
REMARK       I    between atoms: C8_12  and  N4_17
REMARK    3  A    between atoms: N4_17  and  C10_19
REMARK    4  A    between atoms: C14_24  and  O2_25
REMARK    5  A    between atoms: O2_25  and  C15_26
REMARK    6  A    between atoms: C15_26  and  C16_27
REMARK    7  A    between atoms: C16_27  and  C17_28
REMARK    8  A    between atoms: C17_28  and  C18_29
REMARK    9  A    between atoms: C18_29  and  C19_30
REMARK   10  A    between atoms: C19_30  and  N5_31
REMARK   11  A    between atoms: C25_37  and  S1_38
ROOT
HETATM    1  N1  UNL     1       6.007  26.174   4.513  1.00  0.00    -0.188 N
ATOM      2  H1  UNL     1       6.193  26.141   5.515  1.00  0.00     0.184 HD
HETATM    3  C8  UNL     1       6.966  26.458   3.743  1.00  0.00     0.692 C
HETATM    4  N2  UNL     1       6.895  26.546   2.333  1.00  0.00    -0.126 N
ATOM      5  H2  UNL     1       6.188  26.017   1.821  1.00  0.00     0.197 HD
HETATM    6  C9  UNL     1       7.809  27.373   1.636  1.00  0.00     0.196 C
HETATM    7  N3  UNL     1       8.566  28.032   1.060  1.00  0.00    -0.171 NA
HETATM    8  N4  UNL     1       8.245  26.710   4.397  1.00  0.00    -0.190 N
ATOM      9  H4  UNL     1       8.492  27.649   4.708  1.00  0.00     0.184 HD
ENDROOT
BRANCH   1  10
HETATM   10  C7  UNL     1       4.702  25.901   4.075  1.00  0.00     0.082 A
HETATM   11  C2  UNL     1       3.795  26.915   3.799  1.00  0.00     0.096 A
HETATM   12  C3  UNL     1       2.527  26.607   3.326  1.00  0.00     0.058 A
HETATM   13  C4  UNL     1       2.193  25.285   3.145  1.00  0.00     0.013 A
HETATM   14 BR1  UNL     1       0.443  24.859   2.496  1.00  0.00    -0.051 Br
HETATM   15  C5  UNL     1       3.060  24.256   3.409  1.00  0.00     0.021 A
HETATM   16  C6  UNL     1       4.307  24.569   3.872  1.00  0.00     0.034 A
BRANCH  11  17
HETATM   17  O1  UNL     1       4.152  28.228   3.996  1.00  0.00    -0.354 OA
HETATM   18  C1  UNL     1       3.846  29.032   5.099  1.00  0.00     0.210 C
ENDBRANCH  11  17
ENDBRANCH   1  10
BRANCH   8  19
HETATM   19  C10 UNL     1       9.139  25.625   4.594  1.00  0.00     0.069 A
HETATM   20  C11 UNL     1       9.214  24.665   3.603  1.00  0.00     0.033 A
HETATM   21  C12 UNL     1      10.058  23.602   3.744  1.00  0.00     0.029 A
HETATM   22  C13 UNL     1      10.851  23.470   4.889  1.00  0.00     0.068 A
HETATM   23 CL1  UNL     1      11.844  22.024   4.941  1.00  0.00    -0.081 Cl
HETATM   24  C14 UNL     1      10.774  24.416   5.859  1.00  0.00     0.109 A
HETATM   25  C25 UNL     1       9.909  25.522   5.730  1.00  0.00     0.062 A
BRANCH  24  26
HETATM   26  O2  UNL     1      11.488  24.394   7.008  1.00  0.00    -0.348 OA
BRANCH  26  27
HETATM   27  C15 UNL     1      12.785  24.375   7.351  1.00  0.00     0.176 C
BRANCH  27  28
HETATM   28  C16 UNL     1      13.587  23.189   7.686  1.00  0.00     0.027 C
BRANCH  28  29
HETATM   29  C17 UNL     1      15.033  23.226   7.283  1.00  0.00     0.004 C
BRANCH  29  30
HETATM   30  C18 UNL     1      15.243  22.874   5.850  1.00  0.00     0.030 C
BRANCH  30  31
HETATM   31  C19 UNL     1      15.804  21.519   5.643  1.00  0.00     0.272 C
BRANCH  31  32
HETATM   32  N5  UNL     1      15.472  20.974   4.344  1.00  0.00     0.088 N
HETATM   33  C20 UNL     1      14.724  19.762   4.367  1.00  0.00     0.272 C
HETATM   34  C21 UNL     1      14.900  18.975   3.080  1.00  0.00     0.030 C
HETATM   35  C22 UNL     1      14.868  19.943   1.912  1.00  0.00     0.003 C
HETATM   36  C23 UNL     1      14.195  21.237   2.337  1.00  0.00     0.030 C
HETATM   37  C24 UNL     1      15.002  21.938   3.400  1.00  0.00     0.272 C
ENDBRANCH  31  32
ENDBRANCH  30  31
ENDBRANCH  29  30
ENDBRANCH  28  29
ENDBRANCH  27  28
ENDBRANCH  26  27
ENDBRANCH  24  26
BRANCH  25  38
HETATM   38  S1  UNL     1       9.745  26.718   7.016  1.00  0.00    -0.129 SA
HETATM   39  C26 UNL     1       8.817  26.176   8.444  1.00  0.00     0.095 C
ENDBRANCH  25  38
ENDBRANCH   8  19
TORSDOF 11
ENDMDL