MODEL 1
REMARK VINA RESULT: -9.520152655      0.000      0.000
REMARK  13 active torsions:
REMARK  status: ('A' for Active; 'I' for Inactive)
REMARK    1  A    between atoms: C3_3  and  O1_4
REMARK    2  A    between atoms: C3_3  and  C4_7
REMARK    3  A    between atoms: C4_7  and  O2_8
REMARK    4  A    between atoms: O2_8  and  C5_9
REMARK    5  A    between atoms: C6_12  and  C7_13
REMARK    6  A    between atoms: C12_18  and  N2_19
REMARK    7  A    between atoms: N2_19  and  C13_21
REMARK    8  A    between atoms: C15_23  and  O3_24
REMARK    9  A    between atoms: O3_24  and  C16_25
REMARK   10  A    between atoms: C21_30  and  O4_31
REMARK   11  A    between atoms: O4_31  and  C22_32
REMARK   12  A    between atoms: C22_32  and  C23_33
REMARK   13  A    between atoms: C23_33  and  C24_34
ROOT
HETATM    1  C1  UNL     1      15.378  21.278   8.897  1.00  0.00     0.018 C
HETATM    2  C2  UNL     1      15.593  21.371   7.718  1.00  0.00    -0.043 C
HETATM    3  C3  UNL     1      15.884  21.486   6.267  1.00  0.00     0.289 C
HETATM    4  F1  UNL     1      15.090  20.594   5.617  1.00  0.00    -0.194 F
ENDROOT
BRANCH   3   5
HETATM    5  O1  UNL     1      17.219  21.124   6.128  1.00  0.00    -0.350 OA
ATOM      6  H1  UNL     1      17.227  20.434   5.475  1.00  0.00     0.214 HD
ENDBRANCH   3   5
BRANCH   3   7
HETATM    7  C4  UNL     1      15.665  22.916   5.822  1.00  0.00     0.265 C
BRANCH   7   8
HETATM    8  O2  UNL     1      15.011  22.999   4.593  1.00  0.00    -0.329 OA
BRANCH   8   9
HETATM    9  C5  UNL     1      13.650  23.360   4.595  1.00  0.00     0.149 A
HETATM   10  N1  UNL     1      13.149  24.177   5.520  1.00  0.00    -0.332 N
HETATM   11  C6  UNL     1      11.817  24.527   5.518  1.00  0.00     0.100 A
ATOM     12  H1  UNL     1      13.763  24.550   6.243  1.00  0.00     0.168 HD
HETATM   13  C28 UNL     1      11.051  24.005   4.537  1.00  0.00     0.151 A
HETATM   14  F2  UNL     1       9.737  24.274   4.429  1.00  0.00    -0.203 F
HETATM   15  C29 UNL     1      11.540  23.139   3.540  1.00  0.00    -0.011 A
HETATM   16  C30 UNL     1      10.657  22.592   2.480  1.00  0.00     0.052 C
HETATM   17  C31 UNL     1      12.873  22.825   3.591  1.00  0.00    -0.002 A
HETATM   18  C32 UNL     1      13.506  21.912   2.582  1.00  0.00     0.053 C
BRANCH  11  19
HETATM   19  C7  UNL     1      11.345  25.421   6.571  1.00  0.00     0.064 A
HETATM   20  C8  UNL     1      11.705  25.405   7.878  1.00  0.00     0.038 A
HETATM   21  C9  UNL     1      11.218  26.297   8.841  1.00  0.00    -0.056 A
HETATM   22  C10 UNL     1      11.698  26.174  10.259  1.00  0.00     0.048 C
HETATM   23  C11 UNL     1      10.328  27.247   8.462  1.00  0.00     0.055 A
HETATM   24  C12 UNL     1       9.952  27.272   7.120  1.00  0.00     0.106 A
HETATM   25  N3  UNL     1      10.441  26.401   6.232  1.00  0.00    -0.341 N
ATOM     26  H3  UNL     1      10.130  26.466   5.263  1.00  0.00     0.167 HD
BRANCH  24  27
HETATM   27  N2  UNL     1       9.112  28.167   6.724  1.00  0.00    -0.341 N
ATOM     28  H2  UNL     1       9.249  29.122   7.055  1.00  0.00     0.167 HD
BRANCH  27  29
HETATM   29  C13 UNL     1       8.031  27.926   5.875  1.00  0.00     0.058 A
HETATM   30  C14 UNL     1       8.146  27.879   4.495  1.00  0.00     0.071 A
HETATM   31  C15 UNL     1       7.097  27.641   3.668  1.00  0.00     0.104 A
HETATM   32  C21 UNL     1       5.786  27.421   4.191  1.00  0.00     0.103 A
HETATM   33  C26 UNL     1       5.717  27.476   5.584  1.00  0.00     0.065 A
HETATM   34  C27 UNL     1       6.783  27.717   6.407  1.00  0.00     0.063 A
HETATM   35 CL1  UNL     1       6.588  27.768   8.158  1.00  0.00    -0.082 Cl
BRANCH  31  36
HETATM   36  O3  UNL     1       7.209  27.596   2.308  1.00  0.00    -0.343 OA
BRANCH  36  37
HETATM   37  C16 UNL     1       8.118  26.890   1.533  1.00  0.00     0.129 C
HETATM   38  C17 UNL     1       7.977  25.402   1.862  1.00  0.00     0.032 C
HETATM   39  C18 UNL     1       6.646  25.019   1.235  1.00  0.00     0.002 C
HETATM   40  C19 UNL     1       6.243  26.149   0.333  1.00  0.00     0.002 C
HETATM   41  C20 UNL     1       7.558  26.886   0.102  1.00  0.00     0.032 C
ENDBRANCH  36  37
ENDBRANCH  31  36
BRANCH  32  42
HETATM   42  O4  UNL     1       4.801  27.198   3.373  1.00  0.00    -0.348 OA
BRANCH  42  43
HETATM   43  C22 UNL     1       3.722  26.673   2.911  1.00  0.00     0.176 C
BRANCH  43  44
HETATM   44  C23 UNL     1       3.180  25.416   3.511  1.00  0.00     0.026 C
BRANCH  44  45
HETATM   45  C24 UNL     1       3.403  24.162   2.739  1.00  0.00    -0.002 C
HETATM   46  C25 UNL     1       3.881  23.101   3.765  1.00  0.00     0.005 C
ENDBRANCH  44  45
ENDBRANCH  43  44
ENDBRANCH  42  43
ENDBRANCH  32  42
ENDBRANCH  27  29
ENDBRANCH  24  27
ENDBRANCH  11  19
ENDBRANCH   8   9
ENDBRANCH   7   8
ENDBRANCH   3   7
TORSDOF 13
ENDMDL