MODEL 4
REMARK VINA RESULT: -9.335761170      1.696      2.698
REMARK  13 active torsions:
REMARK  status: ('A' for Active; 'I' for Inactive)
REMARK    1  A    between atoms: C2_2  and  O1_3
REMARK    2  A    between atoms: C2_2  and  C3_5
REMARK    3  A    between atoms: C3_5  and  C4_6
REMARK    4  A    between atoms: C4_6  and  C5_7
REMARK    5  A    between atoms: C5_7  and  C6_8
REMARK    6  A    between atoms: C6_8  and  C7_9
REMARK    7  A    between atoms: C17_22  and  C18_23
REMARK    8  A    between atoms: C19_24  and  C20_25
REMARK    9  A    between atoms: C19_24  and  C31_39
REMARK   10  A    between atoms: C21_26  and  C22_27
REMARK   11  A    between atoms: C22_27  and  N1_28
REMARK   12  A    between atoms: C29_35  and  C30_36
REMARK   13  A    between atoms: C30_36  and  O5_37
ROOT
HETATM    1  C6  UNL     1      15.024  21.402   4.659  1.00  0.00     0.103 C
HETATM    2  O2  UNL     1      14.878  22.815   4.798  1.00  0.00    -0.229 OA
HETATM    3  O3  UNL     1      15.433  23.320   5.809  1.00  0.00    -0.234 OA
HETATM    4  C10 UNL     1      14.823  23.209   7.017  1.00  0.00     0.167 C
HETATM    5  C11 UNL     1      15.402  21.943   7.677  1.00  0.00     0.036 C
HETATM    6  C12 UNL     1      14.882  20.690   7.105  1.00  0.00     0.010 C
HETATM    7  C13 UNL     1      14.298  20.688   5.754  1.00  0.00     0.026 C
HETATM    8  C14 UNL     1      12.857  21.078   5.827  1.00  0.00     0.040 C
HETATM    9  C15 UNL     1      12.588  22.523   6.023  1.00  0.00     0.136 C
HETATM   10  O4  UNL     1      11.275  22.642   6.630  1.00  0.00    -0.350 OA
HETATM   11  C16 UNL     1      11.250  23.918   7.136  1.00  0.00     0.047 C
HETATM   12  C17 UNL     1      10.147  24.607   7.474  1.00  0.00     0.033 C
HETATM   13  C32 UNL     1      12.626  24.463   7.273  1.00  0.00     0.074 C
HETATM   14  C33 UNL     1      13.393  23.142   7.125  1.00  0.00     0.053 C
ENDROOT
BRANCH  12  15
HETATM   15  C18 UNL     1      10.224  25.932   7.994  1.00  0.00     0.018 C
HETATM   16  C19 UNL     1       9.350  26.903   7.728  1.00  0.00     0.048 C
BRANCH  16  17
HETATM   17  C20 UNL     1       8.245  26.596   6.849  1.00  0.00     0.017 C
HETATM   18  C21 UNL     1       7.927  27.293   5.622  1.00  0.00     0.018 C
BRANCH  18  19
HETATM   19  C22 UNL     1       8.646  27.288   4.358  1.00  0.00     0.090 C
BRANCH  19  20
HETATM   20  N1  UNL     1       8.171  26.392   3.385  1.00  0.00    -0.363 N
HETATM   21  C23 UNL     1       6.954  26.480   2.747  1.00  0.00     0.072 C
HETATM   22  C24 UNL     1       6.220  25.153   2.562  1.00  0.00    -0.015 C
HETATM   23  C25 UNL     1       6.327  24.782   1.102  1.00  0.00     0.020 C
HETATM   24  C26 UNL     1       4.748  25.298   2.878  1.00  0.00     0.020 C
HETATM   25  C27 UNL     1       6.875  24.062   3.370  1.00  0.00     0.016 C
HETATM   26  C28 UNL     1       8.301  23.970   2.859  1.00  0.00     0.029 C
HETATM   27  C29 UNL     1       9.001  25.244   3.166  1.00  0.00     0.112 C
BRANCH  27  28
HETATM   28  C30 UNL     1      10.018  25.579   2.090  1.00  0.00     0.189 C
BRANCH  28  29
HETATM   29  O5  UNL     1      11.317  25.493   2.605  1.00  0.00    -0.399 OA
ATOM     30  H5  UNL     1      11.779  26.312   2.472  1.00  0.00     0.209 HD
ENDBRANCH  28  29
ENDBRANCH  27  28
ENDBRANCH  19  20
ENDBRANCH  18  19
ENDBRANCH  16  17
BRANCH  16  31
HETATM   31  C31 UNL     1       9.681  28.213   8.302  1.00  0.00     0.417 C
HETATM   32  F1  UNL     1       9.674  29.282   7.509  1.00  0.00    -0.166 F
HETATM   33  F2  UNL     1       8.776  28.517   9.360  1.00  0.00    -0.166 F
HETATM   34  F3  UNL     1      10.950  28.082   8.899  1.00  0.00    -0.166 F
ENDBRANCH  16  31
ENDBRANCH  12  15
BRANCH   1  35
HETATM   35  C5  UNL     1      16.448  21.140   4.549  1.00  0.00     0.042 C
BRANCH  35  36
HETATM   36  C4  UNL     1      17.136  20.047   5.237  1.00  0.00     0.006 C
BRANCH  36  37
HETATM   37  C3  UNL     1      17.903  19.127   4.299  1.00  0.00     0.031 C
BRANCH  37  38
HETATM   38  C2  UNL     1      17.115  17.938   3.864  1.00  0.00     0.114 C
HETATM   39  C1  UNL     1      17.541  17.551   2.465  1.00  0.00     0.039 C
BRANCH  38  40
HETATM   40  O1  UNL     1      17.328  16.869   4.753  1.00  0.00    -0.396 OA
ATOM     41  H1  UNL     1      16.646  16.848   5.414  1.00  0.00     0.210 HD
ENDBRANCH  38  40
ENDBRANCH  37  38
ENDBRANCH  36  37
ENDBRANCH  35  36
ENDBRANCH   1  35
BRANCH   1  42
HETATM   42  C7  UNL     1      14.259  21.157   3.388  1.00  0.00     0.016 C
HETATM   43  C8  UNL     1      14.800  20.231   2.393  1.00  0.00     0.012 C
HETATM   44  C9  UNL     1      13.984  22.511   2.684  1.00  0.00     0.012 C
ENDBRANCH   1  42
TORSDOF 13
ENDMDL