MODEL 4
REMARK VINA RESULT: -8.820570389      6.006     13.872
REMARK  12 active torsions:
REMARK  status: ('A' for Active; 'I' for Inactive)
REMARK    1  A    between atoms: O1_2  and  C2_3
REMARK    2  A    between atoms: C2_3  and  C3_5
REMARK    3  A    between atoms: C3_5  and  C4_6
REMARK    4  A    between atoms: C4_6  and  C5_7
REMARK    5  A    between atoms: C5_7  and  C6_8
REMARK    6  A    between atoms: C6_8  and  C7_9
REMARK    7  A    between atoms: C7_9  and  C8_10
REMARK    8  A    between atoms: C8_10  and  C9_11
REMARK    9  A    between atoms: C9_11  and  C10_12
REMARK   10  A    between atoms: C10_12  and  O3_13
REMARK   11  A    between atoms: O3_13  and  C11_14
REMARK   12  A    between atoms: C14_18  and  C15_19
ROOT
HETATM    1  C11 UNL     1      15.115  21.387   5.814  1.00  0.00     0.092 A
HETATM    2  C12 UNL     1      15.884  20.678   4.917  1.00  0.00     0.063 A
HETATM    3  C13 UNL     1      17.023  19.979   5.251  1.00  0.00     0.044 A
HETATM    4 CL1  UNL     1      17.956  19.091   4.035  1.00  0.00    -0.084 Cl
HETATM    5  C14 UNL     1      17.432  19.979   6.565  1.00  0.00    -0.014 A
HETATM    6  C28 UNL     1      16.686  20.683   7.511  1.00  0.00     0.036 A
HETATM    7  C29 UNL     1      15.555  21.372   7.150  1.00  0.00     0.068 A
HETATM    8 CL3  UNL     1      14.599  22.262   8.306  1.00  0.00    -0.081 Cl
ENDROOT
BRANCH   5   9
HETATM    9  C15 UNL     1      18.657  19.230   6.946  1.00  0.00     0.187 C
HETATM   10  C16 UNL     1      18.424  17.874   7.415  1.00  0.00     0.238 C
HETATM   11  O4  UNL     1      18.230  16.943   6.601  1.00  0.00    -0.272 OA
HETATM   12  N1  UNL     1      18.403  17.535   8.831  1.00  0.00    -0.324 N
HETATM   13  C17 UNL     1      18.906  18.466   9.748  1.00  0.00     0.067 A
ATOM     14  H1  UNL     1      18.030  16.639   9.148  1.00  0.00     0.169 HD
HETATM   15  C18 UNL     1      19.418  19.688   9.308  1.00  0.00     0.106 A
HETATM   16  C26 UNL     1      18.917  18.177  11.113  1.00  0.00     0.026 A
HETATM   17  C19 UNL     1      19.925  20.580  10.219  1.00  0.00     0.262 A
HETATM   18  C27 UNL     1      19.440  20.026   7.887  1.00  0.00     0.184 C
HETATM   19  O5  UNL     1      20.390  21.698   9.777  1.00  0.00    -0.267 OA
HETATM   20  N2  UNL     1      19.934  20.295  11.509  1.00  0.00    -0.320 N
HETATM   21  C20 UNL     1      19.452  19.138  11.989  1.00  0.00     0.070 A
ATOM     22  H2  UNL     1      20.319  20.978  12.162  1.00  0.00     0.169 HD
HETATM   23  C21 UNL     1      19.485  18.910  13.344  1.00  0.00     0.061 A
HETATM   24 CL2  UNL     1      20.174  20.158  14.377  1.00  0.00    -0.082 Cl
HETATM   25  C22 UNL     1      18.994  17.751  13.834  1.00  0.00     0.027 A
HETATM   26  C23 UNL     1      18.473  16.825  12.987  1.00  0.00     0.009 A
HETATM   27  C24 UNL     1      18.408  16.995  11.578  1.00  0.00    -0.047 A
HETATM   28  C25 UNL     1      17.775  15.947  10.789  1.00  0.00     0.049 C
HETATM   29  O6  UNL     1      20.151  21.021   7.505  1.00  0.00    -0.291 OA
ENDBRANCH   5   9
BRANCH   1  30
HETATM   30  O3  UNL     1      13.993  22.075   5.484  1.00  0.00    -0.349 OA
BRANCH  30  31
HETATM   31  C10 UNL     1      12.675  21.735   5.361  1.00  0.00     0.175 C
BRANCH  31  32
HETATM   32  C9  UNL     1      11.673  22.531   6.127  1.00  0.00     0.027 C
BRANCH  32  33
HETATM   33  C8  UNL     1      12.084  23.975   6.302  1.00  0.00     0.002 C
BRANCH  33  34
HETATM   34  C7  UNL     1      11.303  24.688   7.380  1.00  0.00     0.000 C
BRANCH  34  35
HETATM   35  C6  UNL     1      12.143  25.862   7.865  1.00  0.00     0.000 C
BRANCH  35  36
HETATM   36  C5  UNL     1      11.471  26.619   8.974  1.00  0.00     0.000 C
BRANCH  36  37
HETATM   37  C4  UNL     1       9.956  26.496   8.909  1.00  0.00     0.010 C
BRANCH  37  38
HETATM   38  C3  UNL     1       9.327  27.868   8.797  1.00  0.00     0.111 C
BRANCH  38  39
HETATM   39  C2  UNL     1       8.824  28.045   7.413  1.00  0.00     0.258 C
HETATM   40  O2  UNL     1       8.481  29.177   6.987  1.00  0.00    -0.265 OA
BRANCH  39  41
HETATM   41  O1  UNL     1       8.719  26.957   6.561  1.00  0.00    -0.326 OA
HETATM   42  C1  UNL     1       9.278  27.050   5.274  1.00  0.00     0.213 C
ENDBRANCH  39  41
ENDBRANCH  38  39
ENDBRANCH  37  38
ENDBRANCH  36  37
ENDBRANCH  35  36
ENDBRANCH  34  35
ENDBRANCH  33  34
ENDBRANCH  32  33
ENDBRANCH  31  32
ENDBRANCH  30  31
ENDBRANCH   1  30
TORSDOF 12
ENDMDL