MODEL 2
REMARK VINA RESULT: -9.591862879      0.693      1.209
REMARK  16 active torsions:
REMARK  status: ('A' for Active; 'I' for Inactive)
REMARK    1  A    between atoms: C2_2  and  C3_3
REMARK    2  A    between atoms: C3_3  and  C4_4
REMARK    3  A    between atoms: C4_4  and  O1_5
REMARK    4  A    between atoms: C4_4  and  C5_7
REMARK    5  A    between atoms: C5_7  and  O3_9
REMARK    6  A    between atoms: O3_9  and  C6_10
REMARK    7  A    between atoms: C9_13  and  C10_14
REMARK    8  A    between atoms: C17_21  and  O4_22
REMARK    9  A    between atoms: O4_22  and  C18_23
REMARK   10  A    between atoms: C18_23  and  C19_24
REMARK   11  A    between atoms: C19_24  and  C20_25
REMARK   12  A    between atoms: C21_31  and  C22_32
REMARK   13  A    between atoms: C22_32  and  C24_34
REMARK   14  A    between atoms: C24_34  and  C25_35
REMARK   15  A    between atoms: C25_35  and  C26_36
REMARK   16  A    between atoms: C33_43  and  O5_44
ROOT
HETATM    1  C10 UNL     1      14.372  23.517   5.727  1.00  0.00     0.004 C
HETATM    2  C11 UNL     1      15.158  22.887   6.581  1.00  0.00    -0.067 C
HETATM    3  C12 UNL     1      16.084  23.549   7.502  1.00  0.00     0.036 C
HETATM    4  C13 UNL     1      16.973  22.441   7.986  1.00  0.00     0.017 C
HETATM    5  C14 UNL     1      16.025  21.276   8.121  1.00  0.00    -0.005 C
HETATM    6  C15 UNL     1      14.974  21.499   9.144  1.00  0.00     0.019 C
HETATM    7  C16 UNL     1      15.250  21.440   6.769  1.00  0.00     0.099 C
HETATM    8  C17 UNL     1      16.104  20.713   5.842  1.00  0.00     0.123 C
HETATM    9  N1  UNL     1      16.840  19.905   6.453  1.00  0.00    -0.365 N
ATOM     10  H1  UNL     1      17.519  19.289   6.004  1.00  0.00     0.162 HD
HETATM   11  C21 UNL     1      16.597  19.962   7.895  1.00  0.00     0.121 C
ENDROOT
BRANCH   1  12
HETATM   12  C9  UNL     1      13.463  22.861   4.826  1.00  0.00     0.003 C
HETATM   13  C8  UNL     1      12.504  23.462   4.166  1.00  0.00    -0.075 C
HETATM   14  C7  UNL     1      12.182  24.896   4.221  1.00  0.00     0.066 C
HETATM   15  C32 UNL     1      11.624  22.643   3.260  1.00  0.00     0.066 C
HETATM   16  C6  UNL     1      10.872  25.020   4.980  1.00  0.00     0.138 C
HETATM   17  C34 UNL     1       9.901  23.935   4.576  1.00  0.00     0.065 C
HETATM   18  C33 UNL     1      10.273  23.273   3.273  1.00  0.00     0.124 C
BRANCH  16  19
HETATM   19  O3  UNL     1      10.302  26.310   4.859  1.00  0.00    -0.314 OA
BRANCH  19  20
HETATM   20  C5  UNL     1       9.581  26.910   5.878  1.00  0.00     0.288 C
HETATM   21  O2  UNL     1       8.973  27.978   5.614  1.00  0.00    -0.262 OA
BRANCH  20  22
HETATM   22  C4  UNL     1       9.482  26.376   7.253  1.00  0.00     0.217 C
BRANCH  22  23
HETATM   23  C3  UNL     1      10.379  27.118   8.216  1.00  0.00     0.041 C
BRANCH  23  24
HETATM   24  C2  UNL     1      11.281  26.195   9.003  1.00  0.00    -0.002 C
HETATM   25  C1  UNL     1      12.169  25.393   8.107  1.00  0.00     0.005 C
ENDBRANCH  23  24
ENDBRANCH  22  23
BRANCH  22  26
HETATM   26  O1  UNL     1       8.179  26.292   7.700  1.00  0.00    -0.386 OA
ATOM     27  H1  UNL     1       7.851  25.400   7.704  1.00  0.00     0.210 HD
ENDBRANCH  22  26
ENDBRANCH  20  22
ENDBRANCH  19  20
ENDBRANCH  16  19
BRANCH  18  28
HETATM   28  O5  UNL     1      10.045  24.138   2.207  1.00  0.00    -0.395 OA
ATOM     29  H5  UNL     1       9.126  24.270   2.008  1.00  0.00     0.210 HD
ENDBRANCH  18  28
ENDBRANCH   1  12
BRANCH   8  30
HETATM   30  O4  UNL     1      16.129  20.867   4.450  1.00  0.00    -0.338 OA
BRANCH  30  31
HETATM   31  C18 UNL     1      16.114  19.724   3.641  1.00  0.00     0.185 C
BRANCH  31  32
HETATM   32  C19 UNL     1      14.727  19.544   3.073  1.00  0.00     0.144 C
BRANCH  32  33
HETATM   33  C20 UNL     1      14.668  20.216   1.716  1.00  0.00     0.389 C
HETATM   34  F1  UNL     1      13.602  19.734   0.981  1.00  0.00    -0.171 F
HETATM   35  F2  UNL     1      14.484  21.567   1.918  1.00  0.00    -0.171 F
HETATM   36  F3  UNL     1      15.828  20.006   1.014  1.00  0.00    -0.171 F
ENDBRANCH  32  33
ENDBRANCH  31  32
ENDBRANCH  30  31
ENDBRANCH   8  30
BRANCH  11  37
HETATM   37  C22 UNL     1      17.748  19.430   8.593  1.00  0.00    -0.061 C
HETATM   38  C23 UNL     1      19.065  19.454   7.846  1.00  0.00     0.045 C
BRANCH  37  39
HETATM   39  C24 UNL     1      17.963  19.646   9.998  1.00  0.00     0.001 C
BRANCH  39  40
HETATM   40  C25 UNL     1      17.614  19.029  11.092  1.00  0.00    -0.022 C
BRANCH  40  41
HETATM   41  C26 UNL     1      17.807  17.527  11.277  1.00  0.00     0.008 C
HETATM   42  C27 UNL     1      16.597  16.758  10.888  1.00  0.00     0.008 C
HETATM   43  C28 UNL     1      15.803  16.201  12.018  1.00  0.00     0.001 C
HETATM   44  C29 UNL     1      16.600  15.541  13.090  1.00  0.00     0.000 C
HETATM   45  C30 UNL     1      18.089  15.743  12.925  1.00  0.00     0.001 C
HETATM   46  C31 UNL     1      18.290  17.238  12.673  1.00  0.00     0.008 C
ENDBRANCH  40  41
ENDBRANCH  39  40
ENDBRANCH  37  39
ENDBRANCH  11  37
TORSDOF 16
ENDMDL