MODEL 4
REMARK VINA RESULT: -9.078939489      3.664      6.822
REMARK  15 active torsions:
REMARK  status: ('A' for Active; 'I' for Inactive)
REMARK    1  A    between atoms: O1_2  and  C2_3
REMARK    2  A    between atoms: C4_5  and  S1_6
REMARK    3  A    between atoms: S1_6  and  C5_7
REMARK    4  A    between atoms: C8_10  and  C9_11
REMARK    5  A    between atoms: C9_11  and  O2_12
REMARK    6  A    between atoms: C9_11  and  C10_14
REMARK    7  A    between atoms: C10_14  and  C11_15
REMARK    8  A    between atoms: C11_15  and  C12_16
REMARK    9  A    between atoms: C15_20  and  C16_21
REMARK   10  A    between atoms: C24_33  and  C25_34
REMARK   11  A    between atoms: C25_34  and  O5_35
REMARK   12  A    between atoms: O5_35  and  C26_36
REMARK   13  A    between atoms: C26_36  and  C27_38
REMARK   14  A    between atoms: C27_38  and  C30_41
REMARK   15  A    between atoms: C30_41  and  O7_42
ROOT
HETATM    1  C5  UNL     1      10.329  24.786   3.001  1.00  0.00     0.011 A
HETATM    2  C6  UNL     1      10.984  25.778   3.773  1.00  0.00     0.020 A
HETATM    3  C7  UNL     1      12.151  25.490   4.469  1.00  0.00     0.015 A
HETATM    4  C8  UNL     1      12.734  24.262   4.451  1.00  0.00    -0.003 A
HETATM    5  C19 UNL     1      12.110  23.268   3.694  1.00  0.00     0.022 A
HETATM    6  C20 UNL     1      10.944  23.528   2.996  1.00  0.00    -0.044 A
HETATM    7  C21 UNL     1      10.238  22.470   2.249  1.00  0.00     0.049 C
ENDROOT
BRANCH   1   8
HETATM    8  S1  UNL     1       8.964  25.300   2.118  1.00  0.00    -0.087 SA
BRANCH   8   9
HETATM    9  C4  UNL     1       7.387  25.577   2.737  1.00  0.00     0.046 A
HETATM   10  C3  UNL     1       6.433  24.541   2.670  1.00  0.00     0.059 A
HETATM   11  C2  UNL     1       5.121  24.643   2.964  1.00  0.00     0.078 A
HETATM   12  C24 UNL     1       4.697  25.932   3.377  1.00  0.00     0.002 A
HETATM   13  C23 UNL     1       5.564  26.971   3.472  1.00  0.00     0.055 A
HETATM   14  C22 UNL     1       6.921  26.804   3.152  1.00  0.00     0.134 A
HETATM   15  F2  UNL     1       7.728  27.871   3.289  1.00  0.00    -0.205 F
BRANCH  11  16
HETATM   16  O1  UNL     1       4.206  23.614   2.891  1.00  0.00    -0.355 OA
HETATM   17  C1  UNL     1       4.262  22.560   3.810  1.00  0.00     0.210 C
ENDBRANCH  11  16
BRANCH  12  18
HETATM   18  C25 UNL     1       3.240  26.048   3.738  1.00  0.00     0.220 C
BRANCH  18  19
HETATM   19  O5  UNL     1       3.185  27.040   4.671  1.00  0.00    -0.316 OA
BRANCH  19  20
HETATM   20  C26 UNL     1       3.044  27.160   5.995  1.00  0.00     0.269 C
HETATM   21  O6  UNL     1       2.606  26.207   6.651  1.00  0.00    -0.264 OA
BRANCH  20  22
HETATM   22  C27 UNL     1       3.391  28.439   6.710  1.00  0.00     0.062 C
HETATM   23  C28 UNL     1       2.606  28.677   7.944  1.00  0.00     0.028 C
HETATM   24  C29 UNL     1       3.426  29.577   5.743  1.00  0.00     0.028 C
BRANCH  22  25
HETATM   25  C30 UNL     1       4.856  28.205   7.165  1.00  0.00     0.183 C
BRANCH  25  26
HETATM   26  O7  UNL     1       5.232  26.879   6.959  1.00  0.00    -0.400 OA
ATOM     27  H7  UNL     1       5.305  26.417   7.787  1.00  0.00     0.209 HD
ENDBRANCH  25  26
ENDBRANCH  22  25
ENDBRANCH  20  22
ENDBRANCH  19  20
ENDBRANCH  18  19
ENDBRANCH  12  18
ENDBRANCH   8   9
ENDBRANCH   1   8
BRANCH   4  28
HETATM   28  C9  UNL     1      13.904  23.899   5.274  1.00  0.00     0.075 C
BRANCH  28  29
HETATM   29  O2  UNL     1      15.004  23.722   4.603  1.00  0.00    -0.360 OA
ATOM     30  H2  UNL     1      15.373  24.515   4.231  1.00  0.00     0.217 HD
ENDBRANCH  28  29
BRANCH  28  31
HETATM   31  C10 UNL     1      13.963  23.726   6.681  1.00  0.00     0.038 C
BRANCH  31  32
HETATM   32  C11 UNL     1      13.010  23.582   7.569  1.00  0.00     0.016 C
BRANCH  32  33
HETATM   33  C12 UNL     1      11.998  24.654   7.745  1.00  0.00    -0.011 A
HETATM   34  C13 UNL     1      12.270  25.835   8.391  1.00  0.00     0.056 A
HETATM   35  C14 UNL     1      11.344  26.851   8.533  1.00  0.00     0.134 A
HETATM   36  F1  UNL     1      11.690  27.980   9.219  1.00  0.00    -0.205 F
HETATM   37  C15 UNL     1      10.074  26.713   8.015  1.00  0.00     0.081 A
HETATM   38  C17 UNL     1       9.813  25.537   7.371  1.00  0.00     0.046 A
HETATM   39  C18 UNL     1      10.739  24.508   7.229  1.00  0.00     0.045 A
HETATM   40 CL1  UNL     1      10.323  23.011   6.473  1.00  0.00    -0.083 Cl
BRANCH  37  41
HETATM   41  C16 UNL     1       9.087  27.787   8.110  1.00  0.00     0.212 C
HETATM   42  O3  UNL     1       9.449  28.910   7.682  1.00  0.00    -0.644 OA
HETATM   43  O4  UNL     1       7.839  27.615   8.636  1.00  0.00    -0.644 OA
ENDBRANCH  37  41
ENDBRANCH  32  33
ENDBRANCH  31  32
ENDBRANCH  28  31
ENDBRANCH   4  28
TORSDOF 15
ENDMDL