MODEL 1
REMARK VINA RESULT: -9.492204768      0.000      0.000
REMARK  11 active torsions:
REMARK  status: ('A' for Active; 'I' for Inactive)
REMARK    1  A    between atoms: O1_2  and  C2_3
REMARK    2  A    between atoms: C4_5  and  O2_6
REMARK    3  A    between atoms: O2_6  and  C5_7
REMARK    4  A    between atoms: C6_8  and  C7_9
REMARK    5  A    between atoms: C7_9  and  C8_10
REMARK    6  A    between atoms: C11_16  and  S1_17
REMARK    7  A    between atoms: C18_24  and  C19_25
REMARK       I    between atoms: C19_25  and  N1_27
REMARK    8  A    between atoms: N1_27  and  C20_29
REMARK    9  A    between atoms: C20_29  and  C21_30
REMARK   10  A    between atoms: C21_30  and  C22_31
REMARK   11  A    between atoms: C21_30  and  N2_39
ROOT
HETATM    1  C2  UNL     1      10.930  24.227   6.137  1.00  0.00     0.086 A
HETATM    2  C3  UNL     1      10.059  25.055   5.482  1.00  0.00     0.075 A
HETATM    3  C4  UNL     1       9.654  24.858   4.145  1.00  0.00     0.084 A
HETATM    4  C15 UNL     1      10.193  23.761   3.519  1.00  0.00    -0.027 A
HETATM    5  C16 UNL     1       9.807  23.424   2.098  1.00  0.00     0.051 C
HETATM    6  C17 UNL     1      11.055  22.955   4.193  1.00  0.00     0.029 A
HETATM    7  C18 UNL     1      11.481  23.121   5.521  1.00  0.00     0.066 A
ENDROOT
BRANCH   7   8
HETATM    8  C19 UNL     1      12.400  22.189   6.102  1.00  0.00     0.254 C
HETATM    9  O5  UNL     1      12.034  20.966   6.150  1.00  0.00    -0.268 OA
HETATM   10  N1  UNL     1      13.657  22.465   6.626  1.00  0.00    -0.355 N
ATOM     11  H1  UNL     1      13.991  23.428   6.613  1.00  0.00     0.162 HD
BRANCH  10  12
HETATM   12  C20 UNL     1      14.520  21.434   7.195  1.00  0.00     0.152 C
BRANCH  12  13
HETATM   13  C21 UNL     1      15.960  21.526   6.844  1.00  0.00     0.129 C
BRANCH  13  14
HETATM   14  C22 UNL     1      16.253  20.685   5.619  1.00  0.00    -0.032 A
HETATM   15  C23 UNL     1      17.418  19.957   5.583  1.00  0.00     0.011 A
HETATM   16  C24 UNL     1      17.737  19.165   4.480  1.00  0.00     0.026 A
HETATM   17  C25 UNL     1      16.877  19.102   3.399  1.00  0.00     0.055 A
HETATM   18 CL1  UNL     1      17.291  18.096   2.010  1.00  0.00    -0.083 Cl
HETATM   19  C26 UNL     1      15.716  19.831   3.439  1.00  0.00     0.056 A
HETATM   20 CL2  UNL     1      14.630  19.754   2.076  1.00  0.00    -0.083 Cl
HETATM   21  C27 UNL     1      15.398  20.628   4.551  1.00  0.00     0.035 A
ENDBRANCH  13  14
BRANCH  13  22
HETATM   22  N2  UNL     1      16.892  21.070   7.817  1.00  0.00    -0.411 N
HETATM   23  C28 UNL     1      17.814  21.996   8.340  1.00  0.00     0.143 C
HETATM   24  C29 UNL     1      16.341  20.151   8.778  1.00  0.00     0.143 C
ENDBRANCH  13  22
ENDBRANCH  12  13
ENDBRANCH  10  12
ENDBRANCH   7   8
BRANCH   1  25
HETATM   25  O1  UNL     1      11.258  24.519   7.452  1.00  0.00    -0.355 OA
HETATM   26  C1  UNL     1      11.769  25.781   7.785  1.00  0.00     0.210 C
ENDBRANCH   1  25
BRANCH   3  27
HETATM   27  O2  UNL     1       8.789  25.742   3.608  1.00  0.00    -0.309 OA
BRANCH  27  28
HETATM   28  C5  UNL     1       7.571  26.232   3.916  1.00  0.00     0.090 A
HETATM   29  C6  UNL     1       7.417  27.348   4.710  1.00  0.00    -0.011 A
HETATM   30  C9  UNL     1       6.120  27.796   4.984  1.00  0.00     0.054 A
HETATM   31  C10 UNL     1       4.993  27.176   4.497  1.00  0.00     0.134 A
HETATM   32  F1  UNL     1       3.763  27.686   4.819  1.00  0.00    -0.205 F
HETATM   33  C11 UNL     1       5.128  26.061   3.699  1.00  0.00     0.047 A
HETATM   34  C13 UNL     1       6.394  25.627   3.433  1.00  0.00    -0.008 A
HETATM   35  C14 UNL     1       6.541  24.454   2.494  1.00  0.00     0.052 C
BRANCH  29  36
HETATM   36  C7  UNL     1       8.571  28.110   5.263  1.00  0.00     0.154 C
BRANCH  36  37
HETATM   37  C8  UNL     1       8.450  28.161   6.720  1.00  0.00     0.177 C
HETATM   38  O3  UNL     1       8.592  29.249   7.322  1.00  0.00    -0.648 OA
HETATM   39  O4  UNL     1       8.175  27.032   7.502  1.00  0.00    -0.648 OA
ENDBRANCH  36  37
ENDBRANCH  29  36
BRANCH  33  40
HETATM   40  S1  UNL     1       3.698  25.214   3.044  1.00  0.00    -0.131 SA
HETATM   41  C12 UNL     1       3.201  23.834   4.072  1.00  0.00     0.095 C
ENDBRANCH  33  40
ENDBRANCH  27  28
ENDBRANCH   3  27
TORSDOF 11
ENDMDL