MODEL 4
REMARK VINA RESULT: -9.210928959      4.298     11.241
REMARK  14 active torsions:
REMARK  status: ('A' for Active; 'I' for Inactive)
REMARK    1  A    between atoms: O1_2  and  C2_3
REMARK    2  A    between atoms: C4_5  and  O2_6
REMARK    3  A    between atoms: C5_8  and  C6_9
REMARK    4  A    between atoms: C6_9  and  C7_10
REMARK    5  A    between atoms: C7_10  and  C8_11
REMARK    6  A    between atoms: C8_11  and  O3_12
REMARK    7  A    between atoms: C8_11  and  C9_14
REMARK    8  A    between atoms: C13_18  and  C14_19
REMARK    9  A    between atoms: C15_20  and  C16_21
REMARK   10  A    between atoms: C16_21  and  C17_23
REMARK   11  A    between atoms: C17_23  and  C18_24
REMARK   12  A    between atoms: C18_24  and  C19_26
REMARK   13  A    between atoms: C20_27  and  C21_28
REMARK   14  A    between atoms: C27_37  and  O6_38
ROOT
HETATM    1  C2  UNL     1      18.733  18.320   8.772  1.00  0.00     0.073 A
HETATM    2  C3  UNL     1      18.710  19.380   7.901  1.00  0.00     0.074 A
HETATM    3  C4  UNL     1      18.776  19.158   6.529  1.00  0.00     0.081 A
HETATM    4  C5  UNL     1      18.866  17.875   6.040  1.00  0.00     0.031 A
HETATM    5  C28 UNL     1      18.894  16.779   6.905  1.00  0.00     0.083 A
HETATM    6  O7  UNL     1      18.990  15.536   6.577  1.00  0.00    -0.355 OA
HETATM    7  C29 UNL     1      19.080  14.266   6.415  1.00  0.00     0.210 C
HETATM    8  C30 UNL     1      18.820  17.057   8.324  1.00  0.00     0.074 A
ENDROOT
BRANCH   4   9
HETATM    9  C6  UNL     1      19.060  17.717   4.563  1.00  0.00     0.020 C
BRANCH   9  10
HETATM   10  C7  UNL     1      18.049  17.599   3.784  1.00  0.00     0.038 C
BRANCH  10  11
HETATM   11  C8  UNL     1      17.223  18.287   2.880  1.00  0.00     0.078 C
BRANCH  11  12
HETATM   12  O3  UNL     1      17.595  18.011   1.590  1.00  0.00    -0.360 OA
ATOM     13  H3  UNL     1      17.264  18.679   1.002  1.00  0.00     0.217 HD
ENDBRANCH  11  12
BRANCH  11  14
HETATM   14  C9  UNL     1      16.129  19.174   2.894  1.00  0.00     0.031 A
HETATM   15  C10 UNL     1      15.603  19.563   1.633  1.00  0.00     0.017 A
HETATM   16  C11 UNL     1      14.555  20.427   1.522  1.00  0.00     0.002 A
HETATM   17  C12 UNL     1      13.954  20.966   2.623  1.00  0.00     0.014 A
HETATM   18  C13 UNL     1      14.432  20.619   3.908  1.00  0.00    -0.002 A
HETATM   19  C27 UNL     1      15.508  19.730   4.027  1.00  0.00     0.088 A
BRANCH  18  20
HETATM   20  C14 UNL     1      13.719  21.207   5.011  1.00  0.00     0.018 C
HETATM   21  C15 UNL     1      13.801  22.398   5.510  1.00  0.00     0.051 C
BRANCH  21  22
HETATM   22  C16 UNL     1      12.927  22.709   6.670  1.00  0.00     0.156 C
HETATM   23  O4  UNL     1      11.949  22.010   6.919  1.00  0.00    -0.293 OA
BRANCH  22  24
HETATM   24  C17 UNL     1      13.275  23.880   7.503  1.00  0.00     0.165 C
BRANCH  24  25
HETATM   25  C18 UNL     1      12.230  24.894   7.368  1.00  0.00     0.156 C
HETATM   26  O5  UNL     1      11.741  25.344   8.453  1.00  0.00    -0.293 OA
BRANCH  25  27
HETATM   27  C19 UNL     1      11.739  25.394   6.082  1.00  0.00     0.051 C
HETATM   28  C20 UNL     1      10.604  25.013   5.583  1.00  0.00     0.017 C
BRANCH  28  29
HETATM   29  C21 UNL     1       9.922  25.346   4.370  1.00  0.00    -0.013 A
HETATM   30  C22 UNL     1       8.802  26.187   4.444  1.00  0.00     0.038 A
HETATM   31  C23 UNL     1       8.046  26.574   3.386  1.00  0.00     0.056 A
HETATM   32 CL1  UNL     1       6.665  27.632   3.621  1.00  0.00    -0.083 Cl
HETATM   33  C24 UNL     1       8.394  26.111   2.133  1.00  0.00     0.057 A
HETATM   34 CL2  UNL     1       7.449  26.579   0.739  1.00  0.00    -0.082 Cl
HETATM   35  C25 UNL     1       9.464  25.296   1.987  1.00  0.00     0.050 A
HETATM   36  C26 UNL     1      10.229  24.916   3.117  1.00  0.00     0.046 A
HETATM   37 CL3  UNL     1      11.578  23.844   2.814  1.00  0.00    -0.083 Cl
ENDBRANCH  28  29
ENDBRANCH  25  27
ENDBRANCH  24  25
ENDBRANCH  22  24
ENDBRANCH  21  22
ENDBRANCH  18  20
BRANCH  19  38
HETATM   38  O6  UNL     1      15.938  19.404   5.226  1.00  0.00    -0.359 OA
ATOM     39  H6  UNL     1      15.332  19.026   5.854  1.00  0.00     0.217 HD
ENDBRANCH  19  38
ENDBRANCH  11  14
ENDBRANCH  10  11
ENDBRANCH   9  10
ENDBRANCH   4   9
BRANCH   3  40
HETATM   40  O2  UNL     1      18.750  20.245   5.657  1.00  0.00    -0.360 OA
ATOM     41  H2  UNL     1      18.927  20.107   4.733  1.00  0.00     0.217 HD
ENDBRANCH   3  40
BRANCH   1  42
HETATM   42  O1  UNL     1      18.665  18.526  10.154  1.00  0.00    -0.356 OA
HETATM   43  C1  UNL     1      17.582  19.180  10.764  1.00  0.00     0.210 C
ENDBRANCH   1  42
TORSDOF 14
ENDMDL