MODEL 2
REMARK VINA RESULT: -9.155691127      1.943      3.894
REMARK  12 active torsions:
REMARK  status: ('A' for Active; 'I' for Inactive)
REMARK    1  A    between atoms: O1_2  and  C2_3
REMARK    2  A    between atoms: C5_8  and  N2_9
REMARK    3  A    between atoms: C12_16  and  C13_17
REMARK    4  A    between atoms: C19_27  and  N4_28
REMARK    5  A    between atoms: C22_34  and  O2_35
REMARK    6  A    between atoms: O2_35  and  C23_36
REMARK    7  A    between atoms: C23_36  and  C24_37
REMARK    8  A    between atoms: C24_37  and  C25_38
REMARK    9  A    between atoms: C25_38  and  C26_39
REMARK   10  A    between atoms: C26_39  and  C27_40
REMARK   11  A    between atoms: C27_40  and  C28_41
REMARK   12  A    between atoms: C28_41  and  N5_42
ROOT
HETATM    1  C2  UNL     1      18.213  19.663   5.949  1.00  0.00     0.105 A
HETATM    2  C3  UNL     1      17.161  20.510   6.219  1.00  0.00     0.070 A
HETATM    3  C4  UNL     1      16.115  20.718   5.354  1.00  0.00     0.067 A
HETATM    4  N1  UNL     1      15.097  21.563   5.642  1.00  0.00    -0.191 N
ATOM      5  H1  UNL     1      15.083  22.067   6.528  1.00  0.00     0.184 HD
HETATM    6  C5  UNL     1      14.105  21.732   4.752  1.00  0.00     0.682 A
HETATM    7  N3  UNL     1      14.109  21.084   3.595  1.00  0.00    -0.176 N
ATOM      8  H3  UNL     1      13.339  21.238   2.944  1.00  0.00     0.186 HD
HETATM    9  C19 UNL     1      15.102  20.219   3.242  1.00  0.00     0.129 A
HETATM   10  C20 UNL     1      16.119  20.043   4.146  1.00  0.00     0.060 A
HETATM   11  C21 UNL     1      17.161  19.193   3.861  1.00  0.00     0.086 A
HETATM   12 CL3  UNL     1      17.122  18.355   2.316  1.00  0.00    -0.080 Cl
HETATM   13  C22 UNL     1      18.225  18.988   4.754  1.00  0.00     0.124 A
ENDROOT
BRANCH   6  14
HETATM   14  N2  UNL     1      13.022  22.628   5.079  1.00  0.00    -0.217 N
HETATM   15  C6  UNL     1      12.006  22.107   5.971  1.00  0.00     0.146 C
HETATM   16  C7  UNL     1      11.424  23.235   6.837  1.00  0.00     0.013 C
HETATM   17  C8  UNL     1      12.566  23.794   7.620  1.00  0.00     0.007 C
HETATM   18  C12 UNL     1      10.982  24.297   5.891  1.00  0.00     0.031 C
HETATM   19  C9  UNL     1      13.042  24.985   6.829  1.00  0.00     0.007 C
HETATM   20  C10 UNL     1      12.322  24.919   5.496  1.00  0.00     0.013 C
HETATM   21  C11 UNL     1      12.969  23.962   4.539  1.00  0.00     0.146 C
BRANCH  18  22
HETATM   22  C13 UNL     1      10.033  25.273   6.423  1.00  0.00    -0.031 A
HETATM   23  C14 UNL     1       9.730  25.456   7.752  1.00  0.00     0.011 A
HETATM   24  C15 UNL     1       8.830  26.396   8.193  1.00  0.00     0.024 A
HETATM   25  C16 UNL     1       8.197  27.198   7.268  1.00  0.00     0.035 A
HETATM   26 CL1  UNL     1       7.033  28.419   7.786  1.00  0.00    -0.084 Cl
HETATM   27  C17 UNL     1       8.469  27.052   5.927  1.00  0.00     0.048 A
HETATM   28  C18 UNL     1       9.381  26.094   5.519  1.00  0.00     0.042 A
HETATM   29 CL2  UNL     1       9.652  25.978   3.790  1.00  0.00    -0.084 Cl
ENDBRANCH  18  22
ENDBRANCH   6  14
BRANCH   9  30
HETATM   30  N4  UNL     1      15.054  19.623   2.113  1.00  0.00    -0.384 N
ATOM     31  H42 UNL     1      14.451  19.922   1.346  1.00  0.00     0.157 HD
ATOM     32  H41 UNL     1      15.636  18.802   1.948  1.00  0.00     0.157 HD
ENDBRANCH   9  30
BRANCH   1  33
HETATM   33  O1  UNL     1      19.248  19.508   6.889  1.00  0.00    -0.353 OA
HETATM   34  C1  UNL     1      19.494  20.565   7.794  1.00  0.00     0.210 C
ENDBRANCH   1  33
BRANCH  13  35
HETATM   35  O2  UNL     1      19.214  18.127   4.388  1.00  0.00    -0.347 OA
BRANCH  35  36
HETATM   36  C23 UNL     1      19.238  16.720   4.508  1.00  0.00     0.176 C
BRANCH  36  37
HETATM   37  C24 UNL     1      18.417  16.284   5.650  1.00  0.00     0.030 C
BRANCH  37  38
HETATM   38  C25 UNL     1      19.066  15.560   6.772  1.00  0.00     0.029 C
BRANCH  38  39
HETATM   39  C26 UNL     1      19.263  16.238   8.042  1.00  0.00    -0.029 C
BRANCH  39  40
HETATM   40  C27 UNL     1      18.197  16.584   8.969  1.00  0.00    -0.001 C
BRANCH  40  41
HETATM   41  C28 UNL     1      18.267  17.776   9.828  1.00  0.00     0.298 C
BRANCH  41  42
HETATM   42  N5  UNL     1      17.080  18.294  10.389  1.00  0.00     0.083 N
HETATM   43  C29 UNL     1      16.285  19.189   9.645  1.00  0.00     0.309 C
HETATM   44  C30 UNL     1      16.248  17.160  10.800  1.00  0.00     0.309 C
ENDBRANCH  41  42
ENDBRANCH  40  41
ENDBRANCH  39  40
ENDBRANCH  38  39
ENDBRANCH  37  38
ENDBRANCH  36  37
ENDBRANCH  35  36
ENDBRANCH  13  35
TORSDOF 12
ENDMDL