MODEL 1
REMARK VINA RESULT: -9.353894919      0.000      0.000
REMARK  15 active torsions:
REMARK  status: ('A' for Active; 'I' for Inactive)
REMARK    1  A    between atoms: C2_2  and  O2_4
REMARK    2  A    between atoms: O2_4  and  C3_5
REMARK    3  A    between atoms: C3_5  and  C11_16
REMARK    4  A    between atoms: C4_6  and  C5_7
REMARK    5  A    between atoms: C14_19  and  C15_20
REMARK    6  A    between atoms: C15_20  and  C17_22
REMARK    7  A    between atoms: C17_22  and  C18_23
REMARK    8  A    between atoms: C18_23  and  C19_24
REMARK    9  A    between atoms: C20_25  and  C22_27
REMARK   10  A    between atoms: C22_27  and  C23_28
REMARK   11  A    between atoms: C23_28  and  C24_29
REMARK   12  A    between atoms: C29_35  and  C30_36
REMARK       I    between atoms: C30_36  and  N1_38
REMARK   13  A    between atoms: N1_38  and  C31_40
REMARK   14  A    between atoms: C31_40  and  C32_41
REMARK   15  A    between atoms: C32_41  and  N2_42
ROOT
HETATM    1  C11 UNL     1      14.010  22.559   5.102  1.00  0.00     0.083 A
HETATM    2  C12 UNL     1      14.605  22.614   6.306  1.00  0.00     0.002 A
HETATM    3  C13 UNL     1      14.088  23.577   7.295  1.00  0.00     0.054 C
HETATM    4  C14 UNL     1      15.699  21.769   6.730  1.00  0.00     0.088 A
HETATM    5  O3  UNL     1      16.122  20.845   5.735  1.00  0.00    -0.291 OA
HETATM    6  C28 UNL     1      15.553  20.746   4.487  1.00  0.00     0.171 A
HETATM    7  C29 UNL     1      15.886  19.886   3.462  1.00  0.00     0.085 A
HETATM    8  C33 UNL     1      15.014  20.187   2.453  1.00  0.00     0.039 A
HETATM    9  C34 UNL     1      14.201  21.217   2.921  1.00  0.00     0.101 A
HETATM   10  N3  UNL     1      14.526  21.570   4.166  1.00  0.00    -0.298 N
ENDROOT
BRANCH   1  11
HETATM   11  C3  UNL     1      12.868  23.364   4.736  1.00  0.00     0.107 C
HETATM   12  C4  UNL     1      12.779  24.586   4.319  1.00  0.00     0.054 C
BRANCH  11  13
HETATM   13  O2  UNL     1      11.554  22.767   4.774  1.00  0.00    -0.277 OA
BRANCH  13  14
HETATM   14  C2  UNL     1      11.164  22.475   6.114  1.00  0.00     0.260 C
HETATM   15  C1  UNL     1      10.513  23.513   6.921  1.00  0.00     0.126 C
HETATM   16  O1  UNL     1      11.390  21.350   6.558  1.00  0.00    -0.265 OA
ENDBRANCH  13  14
ENDBRANCH  11  13
BRANCH  12  17
HETATM   17  C5  UNL     1      11.494  25.245   3.939  1.00  0.00     0.008 A
HETATM   18  C6  UNL     1      10.907  25.044   2.729  1.00  0.00     0.060 A
HETATM   19  C7  UNL     1       9.702  25.672   2.385  1.00  0.00     0.155 A
HETATM   20  F1  UNL     1       9.129  25.469   1.193  1.00  0.00    -0.203 F
HETATM   21  C8  UNL     1       9.079  26.519   3.291  1.00  0.00     0.157 A
HETATM   22  F2  UNL     1       7.908  27.138   2.982  1.00  0.00    -0.203 F
HETATM   23  C9  UNL     1       9.690  26.707   4.510  1.00  0.00     0.088 A
HETATM   24  C10 UNL     1      10.875  26.092   4.848  1.00  0.00     0.129 A
HETATM   25  F3  UNL     1      11.410  26.326   6.066  1.00  0.00    -0.205 F
ENDBRANCH  12  17
ENDBRANCH   1  11
BRANCH   4  26
HETATM   26  C15 UNL     1      16.340  21.714   7.861  1.00  0.00    -0.049 C
HETATM   27  C16 UNL     1      17.553  22.438   8.245  1.00  0.00     0.046 C
BRANCH  26  28
HETATM   28  C17 UNL     1      15.737  20.863   8.994  1.00  0.00     0.040 C
BRANCH  28  29
HETATM   29  C18 UNL     1      16.874  20.145   9.646  1.00  0.00     0.032 C
BRANCH  29  30
HETATM   30  C19 UNL     1      16.656  18.699   9.749  1.00  0.00    -0.024 C
HETATM   31  C20 UNL     1      17.295  17.910  10.645  1.00  0.00    -0.087 C
HETATM   32  C21 UNL     1      18.250  18.645  11.526  1.00  0.00     0.043 C
BRANCH  31  33
HETATM   33  C22 UNL     1      16.987  16.491  10.753  1.00  0.00     0.037 C
BRANCH  33  34
HETATM   34  C23 UNL     1      16.229  16.037  11.944  1.00  0.00     0.031 C
BRANCH  34  35
HETATM   35  C24 UNL     1      14.777  16.129  11.915  1.00  0.00    -0.024 C
HETATM   36  C25 UNL     1      14.015  15.843  12.963  1.00  0.00    -0.091 C
HETATM   37  C26 UNL     1      14.557  15.401  14.261  1.00  0.00     0.042 C
HETATM   38  C27 UNL     1      12.513  15.977  12.847  1.00  0.00     0.042 C
ENDBRANCH  34  35
ENDBRANCH  33  34
ENDBRANCH  31  33
ENDBRANCH  29  30
ENDBRANCH  28  29
ENDBRANCH  26  28
ENDBRANCH   4  26
BRANCH   7  39
HETATM   39  C30 UNL     1      16.907  18.862   3.333  1.00  0.00     0.256 C
HETATM   40  O4  UNL     1      17.600  18.776   2.266  1.00  0.00    -0.268 OA
HETATM   41  N1  UNL     1      17.199  17.925   4.332  1.00  0.00    -0.355 N
ATOM     42  H1  UNL     1      16.675  17.953   5.207  1.00  0.00     0.162 HD
BRANCH  41  43
HETATM   43  C31 UNL     1      18.237  16.905   4.152  1.00  0.00     0.150 C
BRANCH  43  44
HETATM   44  C32 UNL     1      18.624  16.262   5.449  1.00  0.00     0.249 C
BRANCH  44  45
HETATM   45  N2  UNL     1      18.255  17.107   6.585  1.00  0.00    -0.078 N
ATOM     46  H23 UNL     1      17.697  17.909   6.292  1.00  0.00     0.274 HD
ATOM     47  H22 UNL     1      17.568  16.651   7.185  1.00  0.00     0.274 HD
ATOM     48  H21 UNL     1      19.080  17.394   7.111  1.00  0.00     0.274 HD
ENDBRANCH  44  45
ENDBRANCH  43  44
ENDBRANCH  41  43
ENDBRANCH   7  39
TORSDOF 15
ENDMDL