MODEL 3
REMARK VINA RESULT: -7.239637462      1.768      2.328
REMARK  8 active torsions:
REMARK  status: ('A' for Active; 'I' for Inactive)
REMARK    1  A    between atoms: C2_2  and  N1_4
REMARK    2  A    between atoms: N1_4  and  C4_6
REMARK    3  A    between atoms: C4_6  and  C5_10
REMARK    4  A    between atoms: C5_10  and  N3_11
REMARK    5  A    between atoms: C5_10  and  C18_28
REMARK    6  A    between atoms: N3_11  and  S1_13
REMARK    7  A    between atoms: S1_13  and  C6_16
REMARK    8  A    between atoms: C7_17  and  C8_18
ROOT
HETATM    1  N3  UNL     1      10.897  17.075  -7.138  1.00  0.00    -0.303 N
ATOM      2  H3  UNL     1      10.942  16.507  -6.292  1.00  0.00     0.173 HD
ENDROOT
BRANCH   1   3
HETATM    3  C5  UNL     1      11.946  17.930  -7.387  1.00  0.00     0.163 C
BRANCH   3   4
HETATM    4  C4  UNL     1      13.192  17.205  -7.711  1.00  0.00     0.095 C
HETATM    5  N2  UNL     1      13.702  16.364  -6.863  1.00  0.00    -0.387 N
ATOM      6  H22 UNL     1      14.563  15.864  -7.086  1.00  0.00     0.157 HD
ATOM      7  H21 UNL     1      13.235  16.229  -5.966  1.00  0.00     0.157 HD
BRANCH   4   8
HETATM    8  N1  UNL     1      13.853  17.397  -8.980  1.00  0.00    -0.374 N
ATOM      9  H1  UNL     1      13.752  16.680  -9.699  1.00  0.00     0.161 HD
BRANCH   8  10
HETATM   10  C2  UNL     1      14.639  18.547  -9.267  1.00  0.00     0.074 C
HETATM   11  C1  UNL     1      15.764  18.755  -8.265  1.00  0.00     0.031 C
HETATM   12  C3  UNL     1      15.181  18.444 -10.685  1.00  0.00     0.031 C
ENDBRANCH   8  10
ENDBRANCH   4   8
ENDBRANCH   3   4
BRANCH   3  13
HETATM   13  C18 UNL     1      12.272  18.942  -6.316  1.00  0.00     0.008 C
HETATM   14  C19 UNL     1      12.512  20.338  -6.834  1.00  0.00     0.012 C
HETATM   15  C20 UNL     1      11.127  19.031  -5.329  1.00  0.00     0.012 C
ENDBRANCH   3  13
ENDBRANCH   1   3
BRANCH   1  16
HETATM   16  S1  UNL     1       9.566  16.898  -8.110  1.00  0.00     0.260 S
HETATM   17  O1  UNL     1       9.875  17.140  -9.556  1.00  0.00    -0.200 OA
HETATM   18  O2  UNL     1       8.708  18.145  -7.749  1.00  0.00    -0.200 OA
BRANCH  16  19
HETATM   19  C6  UNL     1       8.559  15.532  -7.931  1.00  0.00     0.092 A
HETATM   20  C7  UNL     1       7.504  15.187  -8.734  1.00  0.00    -0.031 A
HETATM   21  C11 UNL     1       6.731  14.035  -8.485  1.00  0.00     0.009 A
HETATM   22  C12 UNL     1       7.003  13.206  -7.425  1.00  0.00     0.008 A
HETATM   23  C13 UNL     1       8.077  13.587  -6.635  1.00  0.00    -0.050 A
HETATM   24  C14 UNL     1       8.850  14.689  -6.836  1.00  0.00    -0.028 A
HETATM   25  C17 UNL     1       8.570  12.819  -5.418  1.00  0.00     0.039 C
HETATM   26  C15 UNL     1       9.883  14.726  -5.782  1.00  0.00     0.041 C
HETATM   27  C16 UNL     1      10.032  13.289  -5.379  1.00  0.00     0.009 C
BRANCH  20  28
HETATM   28  C8  UNL     1       7.113  15.952  -9.930  1.00  0.00     0.012 C
HETATM   29  C9  UNL     1       5.614  16.244  -9.953  1.00  0.00     0.015 C
HETATM   30  C10 UNL     1       7.287  15.006 -11.143  1.00  0.00     0.015 C
ENDBRANCH  20  28
ENDBRANCH  16  19
ENDBRANCH   1  16
TORSDOF 8
ENDMDL