MODEL 5
REMARK VINA RESULT: -6.404484082      3.194      6.022
REMARK  8 active torsions:
REMARK  status: ('A' for Active; 'I' for Inactive)
REMARK    1  A    between atoms: C11_11  and  C12_12
REMARK    2  A    between atoms: C12_12  and  C13_13
REMARK    3  A    between atoms: C20_23  and  C21_24
REMARK    4  A    between atoms: C21_24  and  O1_25
REMARK    5  A    between atoms: O1_25  and  C22_26
REMARK    6  A    between atoms: C22_26  and  C23_27
REMARK    7  A    between atoms: C23_27  and  C24_28
REMARK    8  A    between atoms: C24_28  and  O2_29
ROOT
HETATM    1  C13 UNL     1       9.620  13.750  -5.199  1.00  0.00     0.126 C
HETATM    2  C14 UNL     1      10.651  12.694  -5.416  1.00  0.00     0.059 C
HETATM    3  N1  UNL     1      11.444  11.868  -5.571  1.00  0.00    -0.197 NA
ENDROOT
BRANCH   1   4
HETATM    4  C12 UNL     1       9.689  14.776  -6.290  1.00  0.00     0.043 C
BRANCH   4   5
HETATM    5  C11 UNL     1       8.312  15.322  -6.564  1.00  0.00     0.106 C
HETATM    6  C9  UNL     1       7.570  14.633  -7.635  1.00  0.00    -0.059 C
HETATM    7  C8  UNL     1       7.610  15.069  -8.892  1.00  0.00    -0.069 C
HETATM    8  C10 UNL     1       6.723  13.401  -7.400  1.00  0.00     0.046 C
HETATM    9  C7  UNL     1       7.032  14.667 -10.199  1.00  0.00     0.044 C
HETATM   10  C16 UNL     1       8.433  16.327  -9.075  1.00  0.00     0.042 C
HETATM   11  C6  UNL     1       7.833  15.470 -11.161  1.00  0.00     0.022 C
HETATM   12  C5  UNL     1       7.136  15.769 -12.439  1.00  0.00    -0.024 C
HETATM   13  C17 UNL     1       8.161  16.794 -10.463  1.00  0.00    -0.015 C
HETATM   14  C4  UNL     1       7.159  16.872 -13.155  1.00  0.00    -0.021 C
HETATM   15  C3  UNL     1       7.888  18.141 -12.894  1.00  0.00     0.036 C
HETATM   16  C2  UNL     1       9.269  17.722 -12.478  1.00  0.00    -0.075 C
HETATM   17  C19 UNL     1       7.197  18.767 -11.692  1.00  0.00     0.014 C
HETATM   18  C1  UNL     1      10.253  17.797 -13.360  1.00  0.00     0.015 C
HETATM   19  C20 UNL     1       9.462  17.239 -11.095  1.00  0.00     0.048 C
HETATM   20  C18 UNL     1       7.058  17.792 -10.563  1.00  0.00     0.012 C
HETATM   21  C15 UNL     1       7.936  17.242  -7.986  1.00  0.00     0.124 C
HETATM   22  N2  UNL     1       8.399  16.741  -6.725  1.00  0.00    -0.413 N
ATOM     23  H2  UNL     1       8.764  17.352  -5.995  1.00  0.00     0.153 HD
BRANCH  19  24
HETATM   24  C21 UNL     1      10.221  18.243 -10.303  1.00  0.00     0.177 C
BRANCH  24  25
HETATM   25  O1  UNL     1      11.426  17.672  -9.916  1.00  0.00    -0.390 OA
BRANCH  25  26
HETATM   26  C22 UNL     1      12.021  18.299  -8.855  1.00  0.00     0.169 C
BRANCH  26  27
HETATM   27  C23 UNL     1      11.732  17.667  -7.520  1.00  0.00     0.052 C
BRANCH  27  28
HETATM   28  C24 UNL     1      11.445  18.664  -6.444  1.00  0.00     0.166 C
BRANCH  28  29
HETATM   29  O2  UNL     1      10.608  18.156  -5.453  1.00  0.00    -0.401 OA
ATOM     30  H2  UNL     1       9.709  18.067  -5.747  1.00  0.00     0.209 HD
ENDBRANCH  28  29
ENDBRANCH  27  28
ENDBRANCH  26  27
ENDBRANCH  25  26
ENDBRANCH  24  25
ENDBRANCH  19  24
ENDBRANCH   4   5
ENDBRANCH   1   4
TORSDOF 8
ENDMDL