MODEL 2
REMARK VINA RESULT: -7.986925420      0.014      1.661
REMARK  11 active torsions:
REMARK  status: ('A' for Active; 'I' for Inactive)
REMARK    1  A    between atoms: C6_6  and  N1_7
REMARK    2  A    between atoms: N1_7  and  C7_9
REMARK    3  A    between atoms: C7_9  and  N2_11
REMARK    4  A    between atoms: N2_11  and  C8_13
REMARK    5  A    between atoms: C8_13  and  C9_14
REMARK    6  A    between atoms: C9_14  and  O1_15
REMARK    7  A    between atoms: C9_14  and  C10_17
REMARK    8  A    between atoms: C10_17  and  N3_18
REMARK       I    between atoms: N3_18  and  C12_20
REMARK    9  A    between atoms: C12_20  and  O3_22
REMARK   10  A    between atoms: O3_22  and  C13_23
REMARK   11  A    between atoms: C13_23  and  C14_24
ROOT
HETATM    1  N2  UNL     1       9.885  14.970  -6.276  1.00  0.00    -0.364 N
ATOM      2  H2  UNL     1      10.742  14.759  -6.788  1.00  0.00     0.162 HD
ENDROOT
BRANCH   1   3
HETATM    3  C7  UNL     1       9.189  16.087  -6.742  1.00  0.00     0.172 C
HETATM    4  S1  UNL     1       9.967  17.564  -6.605  1.00  0.00    -0.041 SA
BRANCH   3   5
HETATM    5  N1  UNL     1       7.908  16.125  -7.321  1.00  0.00    -0.332 N
ATOM      6  H1  UNL     1       7.165  16.628  -6.837  1.00  0.00     0.168 HD
BRANCH   5   7
HETATM    7  C6  UNL     1       7.608  15.482  -8.570  1.00  0.00     0.046 A
HETATM    8  C4  UNL     1       7.105  14.189  -8.620  1.00  0.00    -0.034 A
HETATM    9  C3  UNL     1       6.809  13.563  -9.826  1.00  0.00     0.015 A
HETATM   10  C5  UNL     1       6.873  13.428  -7.381  1.00  0.00     0.050 C
HETATM   11  C2  UNL     1       7.011  14.224 -11.012  1.00  0.00    -0.061 A
HETATM   12  C1  UNL     1       6.691  13.553 -12.301  1.00  0.00     0.048 C
HETATM   13  C19 UNL     1       7.504  15.496 -10.982  1.00  0.00     0.015 A
HETATM   14  C17 UNL     1       7.802  16.124  -9.777  1.00  0.00    -0.034 A
HETATM   15  C18 UNL     1       8.336  17.501  -9.832  1.00  0.00     0.050 C
ENDBRANCH   5   7
ENDBRANCH   3   5
ENDBRANCH   1   3
BRANCH   1  16
HETATM   16  C8  UNL     1       9.598  14.078  -5.207  1.00  0.00     0.155 C
BRANCH  16  17
HETATM   17  C9  UNL     1      10.330  12.773  -5.222  1.00  0.00     0.153 C
BRANCH  17  18
HETATM   18  O1  UNL     1      11.608  12.896  -5.666  1.00  0.00    -0.392 OA
ATOM     19  H1  UNL     1      12.224  12.389  -5.149  1.00  0.00     0.210 HD
ENDBRANCH  17  18
BRANCH  17  20
HETATM   20  C10 UNL     1      10.314  12.154  -3.807  1.00  0.00     0.161 C
BRANCH  20  21
HETATM   21  N3  UNL     1       9.096  11.433  -3.557  1.00  0.00    -0.330 N
HETATM   22  C11 UNL     1       7.996  11.577  -4.474  1.00  0.00     0.155 C
HETATM   23  C12 UNL     1       8.973  10.571  -2.399  1.00  0.00     0.362 C
HETATM   24  O2  UNL     1       7.894   9.965  -2.225  1.00  0.00    -0.238 OA
BRANCH  23  25
HETATM   25  O3  UNL     1       9.959  10.392  -1.506  1.00  0.00    -0.304 OA
BRANCH  25  26
HETATM   26  C13 UNL     1      10.797   9.390  -1.138  1.00  0.00     0.184 C
BRANCH  26  27
HETATM   27  C14 UNL     1      10.415   8.384  -0.128  1.00  0.00     0.002 C
HETATM   28  C15 UNL     1      10.358   6.956  -0.565  1.00  0.00     0.011 C
HETATM   29  C16 UNL     1      11.218   8.503   1.161  1.00  0.00     0.011 C
ENDBRANCH  26  27
ENDBRANCH  25  26
ENDBRANCH  23  25
ENDBRANCH  20  21
ENDBRANCH  17  20
ENDBRANCH  16  17
ENDBRANCH   1  16
TORSDOF 11
ENDMDL