MODEL 2
REMARK VINA RESULT: -9.418572495      1.250      1.557
REMARK  9 active torsions:
REMARK  status: ('A' for Active; 'I' for Inactive)
REMARK    1  A    between atoms: C7_7  and  N1_8
REMARK    2  A    between atoms: N1_8  and  C8_10
REMARK    3  A    between atoms: C8_10  and  C9_11
REMARK    4  A    between atoms: C9_11  and  C10_12
REMARK    5  A    between atoms: C10_12  and  C11_13
REMARK    6  A    between atoms: C11_13  and  C12_14
REMARK    7  A    between atoms: C12_14  and  C13_15
REMARK    8  A    between atoms: C13_15  and  C14_16
REMARK       I    between atoms: C14_16  and  N2_18
REMARK    9  A    between atoms: N2_18  and  C15_20
ROOT
HETATM    1  C9  UNL     1       6.902  13.213  -6.726  1.00  0.00     0.020 C
ENDROOT
BRANCH   1   2
HETATM    2  C8  UNL     1       8.026  12.341  -6.203  1.00  0.00     0.121 C
BRANCH   2   3
HETATM    3  N1  UNL     1       7.746  11.865  -4.867  1.00  0.00    -0.376 N
ATOM      4  H1  UNL     1       6.768  11.825  -4.579  1.00  0.00     0.161 HD
BRANCH   3   5
HETATM    5  C7  UNL     1       8.627  11.490  -4.015  1.00  0.00     0.102 A
HETATM    6  C6  UNL     1       9.842  12.123  -3.914  1.00  0.00     0.049 A
HETATM    7  C5  UNL     1      10.758  11.668  -2.971  1.00  0.00     0.019 A
HETATM    8  C4  UNL     1      10.408  10.599  -2.174  1.00  0.00     0.010 A
HETATM    9  C3  UNL     1      11.048   9.906  -1.165  1.00  0.00     0.039 A
HETATM   10  C20 UNL     1       9.165   9.969  -2.293  1.00  0.00     0.117 A
HETATM   11  C2  UNL     1      10.244   8.896  -0.680  1.00  0.00     0.007 A
HETATM   12  C1  UNL     1      10.570   7.920   0.413  1.00  0.00     0.068 C
HETATM   13  N5  UNL     1       9.102   8.965  -1.393  1.00  0.00    -0.346 N
ATOM     14  H5  UNL     1       8.302   8.344  -1.270  1.00  0.00     0.167 HD
HETATM   15  N4  UNL     1       8.302  10.439  -3.220  1.00  0.00    -0.328 N
ATOM     16  H4  UNL     1       7.389   9.995  -3.325  1.00  0.00     0.169 HD
ENDBRANCH   3   5
ENDBRANCH   2   3
ENDBRANCH   1   2
BRANCH   1  17
HETATM   17  C10 UNL     1       7.214  13.763  -8.097  1.00  0.00     0.002 C
BRANCH  17  18
HETATM   18  C11 UNL     1       6.623  15.141  -8.302  1.00  0.00     0.001 C
BRANCH  18  19
HETATM   19  C12 UNL     1       7.648  16.222  -8.245  1.00  0.00     0.009 C
BRANCH  19  20
HETATM   20  C13 UNL     1       7.941  16.773  -6.897  1.00  0.00     0.103 C
BRANCH  20  21
HETATM   21  C14 UNL     1       9.301  16.552  -6.386  1.00  0.00     0.223 C
HETATM   22  O1  UNL     1       9.854  15.442  -6.516  1.00  0.00    -0.273 OA
HETATM   23  N2  UNL     1      10.002  17.594  -5.737  1.00  0.00    -0.307 N
ATOM     24  H2  UNL     1       9.706  17.949  -4.828  1.00  0.00     0.171 HD
BRANCH  23  25
HETATM   25  C15 UNL     1      11.052  18.086  -6.355  1.00  0.00     0.151 A
HETATM   26  N3  UNL     1      11.997  17.432  -7.026  1.00  0.00    -0.339 N
HETATM   27  C16 UNL     1      12.971  18.126  -7.575  1.00  0.00     0.020 A
ATOM     28  H3  UNL     1      11.967  16.416  -7.113  1.00  0.00     0.168 HD
HETATM   29  C17 UNL     1      14.103  17.469  -8.367  1.00  0.00     0.069 C
HETATM   30  C18 UNL     1      12.941  19.487  -7.413  1.00  0.00     0.004 A
HETATM   31  C19 UNL     1      13.926  20.502  -7.935  1.00  0.00     0.058 C
HETATM   32  S1  UNL     1      11.531  19.713  -6.491  1.00  0.00    -0.057 SA
ENDBRANCH  23  25
ENDBRANCH  20  21
ENDBRANCH  19  20
ENDBRANCH  18  19
ENDBRANCH  17  18
ENDBRANCH   1  17
TORSDOF 9
ENDMDL