MODEL 4
REMARK VINA RESULT: -7.884408835      3.407      5.814
REMARK  9 active torsions:
REMARK  status: ('A' for Active; 'I' for Inactive)
REMARK    1  A    between atoms: N1_3  and  C3_4
REMARK    2  A    between atoms: N1_3  and  C5_6
REMARK    3  A    between atoms: C5_6  and  C6_7
REMARK    4  A    between atoms: C6_7  and  C7_8
REMARK    5  A    between atoms: C7_8  and  N2_9
REMARK    6  A    between atoms: N2_9  and  C8_11
REMARK    7  A    between atoms: C8_11  and  N3_13
REMARK    8  A    between atoms: N3_13  and  C9_15
REMARK    9  A    between atoms: C12_20  and  C13_21
ROOT
HETATM    1  C9  UNL     1       9.232  14.815  -6.425  1.00  0.00     0.685 A
HETATM    2  N4  UNL     1       8.853  15.325  -7.520  1.00  0.00    -0.193 N
ATOM      3  H4  UNL     1       8.290  14.724  -8.122  1.00  0.00     0.184 HD
HETATM    4  C10 UNL     1       9.096  16.537  -7.977  1.00  0.00     0.051 A
HETATM    5  C11 UNL     1       8.704  17.150  -9.287  1.00  0.00     0.071 C
HETATM    6  C12 UNL     1       9.829  17.074  -6.995  1.00  0.00     0.082 A
HETATM    7  N5  UNL     1       9.962  16.183  -6.087  1.00  0.00    -0.189 N
ATOM      8  H5  UNL     1      10.487  16.338  -5.227  1.00  0.00     0.184 HD
ENDROOT
BRANCH   1   9
HETATM    9  N3  UNL     1       9.613  14.314  -5.319  1.00  0.00    -0.166 N
ATOM     10  H3  UNL     1       9.932  14.962  -4.599  1.00  0.00     0.186 HD
BRANCH   9  11
HETATM   11  C8  UNL     1       9.628  12.976  -5.015  1.00  0.00     0.186 C
HETATM   12  S1  UNL     1       8.262  12.113  -5.429  1.00  0.00    -0.040 SA
BRANCH  11  13
HETATM   13  N2  UNL     1      10.725  12.336  -4.488  1.00  0.00    -0.367 N
ATOM     14  H2  UNL     1      11.612  12.839  -4.508  1.00  0.00     0.161 HD
BRANCH  13  15
HETATM   15  C7  UNL     1      10.730  11.008  -3.906  1.00  0.00     0.123 C
BRANCH  15  16
HETATM   16  C6  UNL     1      10.571  11.172  -2.363  1.00  0.00     0.039 C
BRANCH  16  17
HETATM   17  C5  UNL     1       9.932   9.953  -1.820  1.00  0.00     0.123 C
BRANCH  17  18
HETATM   18  N1  UNL     1      10.948   9.183  -1.089  1.00  0.00    -0.394 N
HETATM   19  C2  UNL     1      11.729   9.907  -0.251  1.00  0.00     0.053 C
HETATM   20  C1  UNL     1      11.676   9.654   1.191  1.00  0.00     0.054 C
BRANCH  18  21
HETATM   21  C3  UNL     1      11.068   7.837  -1.390  1.00  0.00     0.117 C
HETATM   22  C4  UNL     1      10.244   6.957  -0.402  1.00  0.00     0.026 C
ENDBRANCH  18  21
ENDBRANCH  17  18
ENDBRANCH  16  17
ENDBRANCH  15  16
ENDBRANCH  13  15
ENDBRANCH  11  13
ENDBRANCH   9  11
ENDBRANCH   1   9
BRANCH   6  23
HETATM   23  C13 UNL     1      10.426  18.422  -6.874  1.00  0.00    -0.001 A
HETATM   24  C14 UNL     1      11.776  18.609  -7.045  1.00  0.00     0.015 A
HETATM   25  C15 UNL     1      12.324  19.899  -6.771  1.00  0.00     0.007 A
HETATM   26  C16 UNL     1      11.460  20.902  -6.353  1.00  0.00    -0.061 A
HETATM   27  C17 UNL     1      11.954  22.255  -6.024  1.00  0.00     0.048 C
HETATM   28  C18 UNL     1      10.096  20.621  -6.209  1.00  0.00     0.014 A
HETATM   29  C19 UNL     1       9.581  19.433  -6.454  1.00  0.00    -0.049 A
HETATM   30  C20 UNL     1       8.130  19.101  -6.254  1.00  0.00     0.049 C
ENDBRANCH   6  23
TORSDOF 9
ENDMDL