MODEL 4
REMARK VINA RESULT: -8.864808227      1.455      2.186
REMARK  9 active torsions:
REMARK  status: ('A' for Active; 'I' for Inactive)
REMARK    1  A    between atoms: C5_5  and  N1_6
REMARK    2  A    between atoms: N1_6  and  C6_8
REMARK    3  A    between atoms: C10_14  and  N3_15
REMARK    4  A    between atoms: N3_15  and  C11_17
REMARK    5  A    between atoms: C11_17  and  C12_18
REMARK    6  A    between atoms: C12_18  and  C13_19
REMARK    7  A    between atoms: C13_19  and  O1_20
REMARK    8  A    between atoms: O1_20  and  C14_21
REMARK    9  A    between atoms: C14_21  and  C15_22
ROOT
HETATM    1  C6  UNL     1       8.595  16.097  -8.396  1.00  0.00     0.684 A
HETATM    2  N2  UNL     1       7.574  15.687  -9.204  1.00  0.00    -0.196 N
ATOM      3  H2  UNL     1       7.316  16.244 -10.020  1.00  0.00     0.184 HD
HETATM    4  C7  UNL     1       6.910  14.554  -8.928  1.00  0.00     0.026 A
HETATM    5  C8  UNL     1       5.806  14.152  -9.841  1.00  0.00     0.069 C
HETATM    6  C9  UNL     1       7.282  13.829  -7.822  1.00  0.00     0.073 A
HETATM    7  C10 UNL     1       8.322  14.235  -6.988  1.00  0.00     0.118 A
HETATM    8  N5  UNL     1       8.949  15.372  -7.311  1.00  0.00    -0.177 N
ATOM      9  H5  UNL     1       9.715  15.700  -6.723  1.00  0.00     0.186 HD
ENDROOT
BRANCH   7  10
HETATM   10  N3  UNL     1       8.618  13.523  -5.981  1.00  0.00    -0.376 N
ATOM     11  H3  UNL     1       9.313  13.892  -5.331  1.00  0.00     0.161 HD
BRANCH  10  12
HETATM   12  C11 UNL     1       8.051  12.237  -5.682  1.00  0.00     0.123 C
BRANCH  12  13
HETATM   13  C12 UNL     1       9.169  11.230  -5.389  1.00  0.00     0.046 C
BRANCH  13  14
HETATM   14  C13 UNL     1      10.481  11.975  -5.161  1.00  0.00     0.169 C
BRANCH  14  15
HETATM   15  O1  UNL     1      11.048  11.644  -3.957  1.00  0.00    -0.387 OA
BRANCH  15  16
HETATM   16  C14 UNL     1      10.247  11.689  -2.856  1.00  0.00     0.208 C
BRANCH  16  17
HETATM   17  C15 UNL     1      10.085  10.460  -2.074  1.00  0.00    -0.011 A
HETATM   18  C16 UNL     1      11.004   9.706  -1.382  1.00  0.00     0.035 A
HETATM   19  C17 UNL     1      10.358   8.641  -0.757  1.00  0.00     0.006 A
HETATM   20  C18 UNL     1      11.008   7.603   0.084  1.00  0.00     0.068 C
HETATM   21  N4  UNL     1       9.074   8.786  -1.090  1.00  0.00    -0.363 N
HETATM   22  C19 UNL     1       8.842   9.838  -1.866  1.00  0.00     0.014 A
ATOM     23  H4  UNL     1       8.341   8.149  -0.779  1.00  0.00     0.165 HD
HETATM   24  C20 UNL     1       7.540  10.313  -2.431  1.00  0.00     0.068 C
ENDBRANCH  16  17
ENDBRANCH  15  16
ENDBRANCH  14  15
ENDBRANCH  13  14
ENDBRANCH  12  13
ENDBRANCH  10  12
ENDBRANCH   7  10
BRANCH   1  25
HETATM   25  N1  UNL     1       9.235  17.183  -8.657  1.00  0.00    -0.192 N
ATOM     26  H1  UNL     1       9.292  17.531  -9.614  1.00  0.00     0.184 HD
BRANCH  25  27
HETATM   27  C5  UNL     1       9.860  17.891  -7.598  1.00  0.00     0.049 A
HETATM   28  C4  UNL     1      11.238  17.878  -7.444  1.00  0.00     0.030 A
HETATM   29  C3  UNL     1      11.887  18.548  -6.434  1.00  0.00     0.009 A
HETATM   30  C2  UNL     1      11.156  19.268  -5.527  1.00  0.00    -0.062 A
HETATM   31  C1  UNL     1      11.780  20.018  -4.412  1.00  0.00     0.048 C
HETATM   32  C22 UNL     1       9.780  19.311  -5.640  1.00  0.00     0.009 A
HETATM   33  C21 UNL     1       9.144  18.622  -6.674  1.00  0.00     0.030 A
ENDBRANCH  25  27
ENDBRANCH   1  25
TORSDOF 9
ENDMDL