MODEL 3
REMARK VINA RESULT: -6.643962403      3.818      7.241
REMARK  8 active torsions:
REMARK  status: ('A' for Active; 'I' for Inactive)
REMARK    1  A    between atoms: C2_2  and  C3_3
REMARK    2  A    between atoms: C3_3  and  N1_4
REMARK    3  A    between atoms: N1_4  and  C4_7
REMARK    4  A    between atoms: C4_7  and  C5_8
REMARK    5  A    between atoms: C5_8  and  N2_9
REMARK    6  A    between atoms: N2_9  and  C6_12
REMARK    7  A    between atoms: C6_12  and  C7_13
REMARK    8  A    between atoms: C7_13  and  O1_14
ROOT
HETATM    1  C7  UNL     1       1.963  14.485 -11.398  1.00  0.00     0.089 C
HETATM    2  C8  UNL     1       2.975  14.784 -12.514  1.00  0.00     0.041 C
HETATM    3  C9  UNL     1       3.760  13.465 -12.446  1.00  0.00     0.009 C
HETATM    4  C10 UNL     1       4.112  13.416 -11.004  1.00  0.00     0.001 C
HETATM    5  C11 UNL     1       5.282  14.307 -10.638  1.00  0.00    -0.005 C
HETATM    6  C12 UNL     1       6.519  13.853 -11.395  1.00  0.00     0.006 C
HETATM    7  C13 UNL     1       7.616  14.827 -11.043  1.00  0.00     0.006 C
HETATM    8  C14 UNL     1       7.906  14.921  -9.598  1.00  0.00    -0.006 C
HETATM    9  C15 UNL     1       8.435  16.342  -9.347  1.00  0.00     0.005 C
HETATM   10  C16 UNL     1       7.974  16.635  -7.953  1.00  0.00     0.001 C
HETATM   11  C17 UNL     1       6.588  16.015  -7.950  1.00  0.00     0.010 C
HETATM   12  C18 UNL     1       6.813  14.672  -8.658  1.00  0.00    -0.036 C
HETATM   13  C19 UNL     1       7.340  13.746  -7.546  1.00  0.00     0.016 C
HETATM   14  C20 UNL     1       5.565  14.073  -9.172  1.00  0.00    -0.002 C
HETATM   15  C21 UNL     1       4.332  14.472  -8.401  1.00  0.00     0.007 C
HETATM   16  C22 UNL     1       3.225  14.983  -9.298  1.00  0.00     0.013 C
HETATM   17  C23 UNL     1       2.849  13.964 -10.328  1.00  0.00    -0.007 C
HETATM   18  C24 UNL     1       2.133  12.818  -9.621  1.00  0.00     0.019 C
ENDROOT
BRANCH   1  19
HETATM   19  C6  UNL     1       1.159  15.700 -11.045  1.00  0.00     0.270 C
BRANCH  19  20
HETATM   20  N2  UNL     1       0.929  16.438 -12.273  1.00  0.00    -0.071 N
ATOM     21  H22 UNL     1       0.109  16.081 -12.764  1.00  0.00     0.277 HD
ATOM     22  H21 UNL     1       1.645  16.223 -12.967  1.00  0.00     0.277 HD
BRANCH  20  23
HETATM   23  C5  UNL     1       0.826  17.857 -12.063  1.00  0.00     0.260 C
BRANCH  23  24
HETATM   24  C4  UNL     1       1.609  18.278 -10.861  1.00  0.00     0.260 C
BRANCH  24  25
HETATM   25  N1  UNL     1       2.598  19.274 -11.125  1.00  0.00    -0.070 N
ATOM     26  H12 UNL     1       2.981  19.647 -10.256  1.00  0.00     0.277 HD
ATOM     27  H11 UNL     1       2.171  20.122 -11.496  1.00  0.00     0.277 HD
BRANCH  25  28
HETATM   28  C3  UNL     1       3.655  18.800 -11.997  1.00  0.00     0.259 C
BRANCH  28  29
HETATM   29  C2  UNL     1       4.495  17.772 -11.348  1.00  0.00    -0.010 C
HETATM   30  C1  UNL     1       5.779  18.002 -11.164  1.00  0.00     0.008 C
ENDBRANCH  28  29
ENDBRANCH  25  28
ENDBRANCH  24  25
ENDBRANCH  23  24
ENDBRANCH  20  23
ENDBRANCH  19  20
ENDBRANCH   1  19
BRANCH   1  31
HETATM   31  O1  UNL     1       1.142  13.489 -11.899  1.00  0.00    -0.387 OA
ATOM     32  H1  UNL     1       1.084  12.766 -11.285  1.00  0.00     0.210 HD
ENDBRANCH   1  31
TORSDOF 8
ENDMDL