MODEL 3
REMARK VINA RESULT: -8.442949260      2.243      3.349
REMARK  10 active torsions:
REMARK  status: ('A' for Active; 'I' for Inactive)
REMARK    1  A    between atoms: C2_2  and  C3_3
REMARK    2  A    between atoms: C3_3  and  N1_4
REMARK    3  A    between atoms: C5_9  and  C7_11
REMARK    4  A    between atoms: C7_11  and  C8_12
REMARK    5  A    between atoms: C8_12  and  C9_13
REMARK    6  A    between atoms: C12_16  and  C13_17
REMARK    7  A    between atoms: C18_22  and  O1_23
REMARK    8  A    between atoms: C19_25  and  C20_26
REMARK    9  A    between atoms: C20_26  and  O2_27
REMARK   10  A    between atoms: C20_26  and  C21_29
ROOT
HETATM    1  N1  UNL     1       8.646  16.869 -10.548  1.00  0.00    -0.345 N
HETATM    2  C4  UNL     1       9.708  17.262  -9.640  1.00  0.00     0.171 C
HETATM    3  S1  UNL     1      11.001  18.202 -10.007  1.00  0.00    -0.041 SA
HETATM    4  N2  UNL     1       9.388  16.663  -8.381  1.00  0.00    -0.356 N
ATOM      5  H2  UNL     1      10.027  16.370  -7.642  1.00  0.00     0.162 HD
HETATM    6  C5  UNL     1       7.925  16.570  -8.404  1.00  0.00     0.052 C
HETATM    7  C6  UNL     1       7.387  17.921  -8.104  1.00  0.00     0.041 C
HETATM    8  C19 UNL     1       7.717  16.077  -9.792  1.00  0.00     0.147 C
ENDROOT
BRANCH   6   9
HETATM    9  C7  UNL     1       7.434  15.609  -7.334  1.00  0.00     0.037 C
BRANCH   9  10
HETATM   10  C8  UNL     1       7.992  14.251  -7.644  1.00  0.00     0.044 C
BRANCH  10  11
HETATM   11  C9  UNL     1       8.376  13.481  -6.414  1.00  0.00    -0.025 A
HETATM   12  C10 UNL     1       7.629  12.418  -5.954  1.00  0.00     0.010 A
HETATM   13  C11 UNL     1       7.968  11.710  -4.820  1.00  0.00     0.008 A
HETATM   14  C12 UNL     1       9.094  12.031  -4.069  1.00  0.00    -0.048 A
HETATM   15  C17 UNL     1       9.840  13.091  -4.527  1.00  0.00     0.044 A
HETATM   16  C18 UNL     1       9.491  13.804  -5.676  1.00  0.00     0.072 A
BRANCH  14  17
HETATM   17  C13 UNL     1       9.433  11.251  -2.845  1.00  0.00    -0.024 C
HETATM   18  C14 UNL     1       8.212  10.539  -2.292  1.00  0.00     0.019 C
HETATM   19  C15 UNL     1      10.477  10.210  -3.159  1.00  0.00     0.019 C
HETATM   20  C16 UNL     1       9.955  12.105  -1.711  1.00  0.00     0.019 C
ENDBRANCH  14  17
BRANCH  16  21
HETATM   21  O1  UNL     1      10.269  14.875  -6.115  1.00  0.00    -0.360 OA
ATOM     22  H1  UNL     1      11.136  14.974  -5.738  1.00  0.00     0.217 HD
ENDBRANCH  16  21
ENDBRANCH  10  11
ENDBRANCH   9  10
ENDBRANCH   6   9
BRANCH   8  23
HETATM   23  C20 UNL     1       6.362  16.189 -10.373  1.00  0.00     0.165 C
BRANCH  23  24
HETATM   24  O2  UNL     1       5.712  17.336  -9.967  1.00  0.00    -0.390 OA
ATOM     25  H2  UNL     1       5.099  17.653 -10.619  1.00  0.00     0.210 HD
ENDBRANCH  23  24
BRANCH  23  26
HETATM   26  C21 UNL     1       5.521  14.974 -10.297  1.00  0.00    -0.004 C
HETATM   27  C22 UNL     1       6.019  13.819 -10.690  1.00  0.00     0.009 C
ENDBRANCH  23  26
ENDBRANCH   8  23
BRANCH   1  28
HETATM   28  C3  UNL     1       8.658  17.271 -11.945  1.00  0.00     0.152 C
BRANCH  28  29
HETATM   29  C2  UNL     1       8.995  16.124 -12.843  1.00  0.00    -0.017 C
HETATM   30  C1  UNL     1      10.186  16.037 -13.392  1.00  0.00     0.008 C
ENDBRANCH  28  29
ENDBRANCH   1  28
TORSDOF 10
ENDMDL