MODEL 3
REMARK VINA RESULT: -7.962690377      2.079      5.044
REMARK  7 active torsions:
REMARK  status: ('A' for Active; 'I' for Inactive)
REMARK    1  A    between atoms: C2_2  and  N1_3
REMARK    2  A    between atoms: N1_3  and  C4_5
REMARK    3  A    between atoms: C4_5  and  C5_6
REMARK    4  A    between atoms: C7_8  and  C8_9
REMARK    5  A    between atoms: C8_9  and  C9_10
REMARK    6  A    between atoms: C9_10  and  N2_11
REMARK    7  A    between atoms: C16_20  and  N4_21
REMARK       I    between atoms: N4_21  and  C17_23
ROOT
HETATM    1  C5  UNL     1       9.003  16.891  -6.892  1.00  0.00    -0.023 A
HETATM    2  C6  UNL     1       9.243  15.656  -6.363  1.00  0.00     0.019 A
HETATM    3  C7  UNL     1       8.496  14.542  -6.682  1.00  0.00    -0.028 A
HETATM    4  C12 UNL     1       7.462  14.689  -7.577  1.00  0.00     0.051 A
HETATM    5  N3  UNL     1       6.568  13.808  -8.079  1.00  0.00    -0.354 N
ATOM      6  H3  UNL     1       6.542  12.818  -7.837  1.00  0.00     0.166 HD
HETATM    7  C13 UNL     1       5.719  14.396  -8.937  1.00  0.00     0.044 A
HETATM    8  C14 UNL     1       4.651  13.925  -9.691  1.00  0.00     0.033 A
HETATM    9  C15 UNL     1       3.963  14.842 -10.503  1.00  0.00     0.032 A
HETATM   10  C16 UNL     1       4.297  16.166 -10.581  1.00  0.00     0.036 A
HETATM   11  C18 UNL     1       5.386  16.590  -9.795  1.00  0.00     0.044 A
HETATM   12  C19 UNL     1       6.085  15.724  -8.990  1.00  0.00     0.006 A
HETATM   13  C20 UNL     1       7.162  15.915  -8.152  1.00  0.00     0.010 A
HETATM   14  C21 UNL     1       7.937  16.991  -7.799  1.00  0.00    -0.041 A
HETATM   15  C22 UNL     1       7.679  18.318  -8.376  1.00  0.00     0.050 C
ENDROOT
BRANCH   1  16
HETATM   16  C4  UNL     1       9.784  18.094  -6.538  1.00  0.00     0.311 C
BRANCH  16  17
HETATM   17  N1  UNL     1      11.205  17.957  -6.772  1.00  0.00     0.087 N
HETATM   18  C3  UNL     1      11.376  17.980  -8.239  1.00  0.00     0.310 C
BRANCH  17  19
HETATM   19  C2  UNL     1      11.894  19.158  -6.299  1.00  0.00     0.268 C
HETATM   20  C1  UNL     1      11.520  19.518  -4.892  1.00  0.00     0.037 C
ENDBRANCH  17  19
ENDBRANCH  16  17
ENDBRANCH   1  16
BRANCH   3  21
HETATM   21  C8  UNL     1       8.805  13.235  -6.078  1.00  0.00     0.071 C
BRANCH  21  22
HETATM   22  C9  UNL     1       9.929  13.298  -5.084  1.00  0.00     0.276 C
BRANCH  22  23
HETATM   23  N2  UNL     1       9.603  12.362  -3.997  1.00  0.00     0.080 N
HETATM   24  C10 UNL     1      10.657  11.409  -3.800  1.00  0.00     0.309 C
HETATM   25  C11 UNL     1       8.332  11.740  -4.291  1.00  0.00     0.309 C
ENDBRANCH  22  23
ENDBRANCH  21  22
ENDBRANCH   3  21
BRANCH  10  26
HETATM   26  N4  UNL     1       3.611  17.116 -11.396  1.00  0.00    -0.311 N
HETATM   27  C17 UNL     1       2.544  17.935 -11.079  1.00  0.00     0.333 C
HETATM   28  N5  UNL     1       2.014  18.817 -12.065  1.00  0.00    -0.040 NA
HETATM   29  O1  UNL     1       1.989  17.970  -9.976  1.00  0.00    -0.251 OA
ATOM     30  H4  UNL     1       3.960  17.203 -12.350  1.00  0.00     0.170 HD
ENDBRANCH  10  26
TORSDOF 7
ENDMDL