MODEL 2
REMARK VINA RESULT: -10.368729135      1.257      1.298
REMARK  9 active torsions:
REMARK  status: ('A' for Active; 'I' for Inactive)
REMARK    1  A    between atoms: C2_2  and  C3_3
REMARK    2  A    between atoms: C5_5  and  N1_6
REMARK    3  A    between atoms: N1_6  and  C6_8
REMARK    4  A    between atoms: C6_8  and  C7_9
REMARK    5  A    between atoms: C7_9  and  C8_10
REMARK    6  A    between atoms: C11_13  and  C12_14
REMARK    7  A    between atoms: C14_16  and  C15_17
REMARK    8  A    between atoms: C19_21  and  O1_22
REMARK    9  A    between atoms: C24_29  and  N3_30
ROOT
HETATM    1  C8  UNL     1       9.134  13.658  -5.825  1.00  0.00    -0.057 A
HETATM    2  C9  UNL     1       8.101  12.879  -6.258  1.00  0.00     0.008 A
HETATM    3  C10 UNL     1       7.157  13.286  -7.195  1.00  0.00     0.013 A
HETATM    4  C11 UNL     1       7.294  14.563  -7.703  1.00  0.00    -0.026 A
HETATM    5  C22 UNL     1       8.321  15.396  -7.301  1.00  0.00     0.013 A
HETATM    6  C23 UNL     1       9.226  14.937  -6.368  1.00  0.00     0.008 A
ENDROOT
BRANCH   1   7
HETATM    7  C7  UNL     1      10.138  13.206  -4.821  1.00  0.00     0.058 C
BRANCH   7   8
HETATM    8  C6  UNL     1      10.551  11.786  -5.166  1.00  0.00     0.126 C
BRANCH   8   9
HETATM    9  N1  UNL     1      10.934  11.024  -4.028  1.00  0.00    -0.376 N
ATOM     10  H1  UNL     1      11.938  10.939  -3.867  1.00  0.00     0.161 HD
BRANCH   9  11
HETATM   11  C5  UNL     1      10.184  10.433  -3.183  1.00  0.00     0.119 A
HETATM   12  C4  UNL     1      10.688   9.708  -2.146  1.00  0.00     0.078 A
HETATM   13  C3  UNL     1       9.854   9.065  -1.228  1.00  0.00     0.052 A
HETATM   14  N4  UNL     1       8.530   9.194  -1.415  1.00  0.00    -0.192 N
HETATM   15  C24 UNL     1       8.044   9.925  -2.460  1.00  0.00     0.677 A
ATOM     16  H4  UNL     1       7.882   8.742  -0.770  1.00  0.00     0.184 HD
HETATM   17  N2  UNL     1       8.839  10.547  -3.347  1.00  0.00    -0.177 N
ATOM     18  H2  UNL     1       8.447  11.087  -4.118  1.00  0.00     0.185 HD
BRANCH  13  19
HETATM   19  C2  UNL     1      10.468   8.320  -0.157  1.00  0.00     0.020 C
HETATM   20  C1  UNL     1      11.395   8.860   0.593  1.00  0.00     0.013 C
ENDBRANCH  13  19
BRANCH  15  21
HETATM   21  N3  UNL     1       6.766  10.003  -2.574  1.00  0.00    -0.234 N
ATOM     22  H32 UNL     1       6.383  10.892  -2.893  1.00  0.00     0.174 HD
ATOM     23  H31 UNL     1       6.182   9.197  -2.350  1.00  0.00     0.174 HD
ENDBRANCH  15  21
ENDBRANCH   9  11
ENDBRANCH   8   9
ENDBRANCH   7   8
ENDBRANCH   1   7
BRANCH   4  24
HETATM   24  C12 UNL     1       6.299  15.000  -8.694  1.00  0.00    -0.023 A
HETATM   25  C13 UNL     1       5.304  14.161  -9.141  1.00  0.00     0.020 A
HETATM   26  C14 UNL     1       4.392  14.622 -10.073  1.00  0.00    -0.049 A
HETATM   27  C17 UNL     1       4.452  15.904 -10.571  1.00  0.00    -0.022 A
HETATM   28  C18 UNL     1       3.454  16.357 -11.569  1.00  0.00     0.052 C
HETATM   29  C19 UNL     1       5.443  16.754 -10.133  1.00  0.00     0.075 A
HETATM   30  C21 UNL     1       6.345  16.282  -9.203  1.00  0.00     0.049 A
BRANCH  26  31
HETATM   31  C15 UNL     1       3.318  13.696 -10.548  1.00  0.00     0.035 C
HETATM   32  C16 UNL     1       2.377  13.321  -9.423  1.00  0.00     0.010 C
ENDBRANCH  26  31
BRANCH  29  33
HETATM   33  O1  UNL     1       5.514  18.068 -10.635  1.00  0.00    -0.355 OA
HETATM   34  C20 UNL     1       6.793  18.651 -10.726  1.00  0.00     0.210 C
ENDBRANCH  29  33
ENDBRANCH   4  24
TORSDOF 9
ENDMDL