MODEL 4
REMARK VINA RESULT: -7.534202600      1.308      1.589
REMARK  10 active torsions:
REMARK  status: ('A' for Active; 'I' for Inactive)
REMARK    1  A    between atoms: C2_2  and  O2_4
REMARK    2  A    between atoms: O2_4  and  C3_5
REMARK    3  A    between atoms: C3_5  and  C4_6
REMARK    4  A    between atoms: C11_16  and  N1_17
REMARK    5  A    between atoms: C17_24  and  C18_25
REMARK    6  A    between atoms: C23_32  and  C24_33
REMARK    7  A    between atoms: C24_33  and  C25_34
REMARK    8  A    between atoms: C25_34  and  C26_35
REMARK    9  A    between atoms: C26_35  and  N2_36
REMARK   10  A    between atoms: C27_40  and  O9_41
ROOT
HETATM    1  C4  UNL     1      14.597 -13.433  21.037  1.00  0.00     0.142 A
HETATM    2  O3  UNL     1      14.308 -13.300  19.731  1.00  0.00    -0.339 OA
HETATM    3  C5  UNL     1      14.754 -12.169  20.351  1.00  0.00     0.298 A
HETATM    4  O4  UNL     1      15.892 -11.709  19.819  1.00  0.00    -0.355 OA
HETATM    5  C6  UNL     1      16.817 -12.566  19.305  1.00  0.00     0.203 C
HETATM    6  C7  UNL     1      17.442 -13.456  20.305  1.00  0.00     0.147 C
HETATM    7  C8  UNL     1      16.860 -13.070  21.643  1.00  0.00     0.045 C
HETATM    8  C9  UNL     1      15.740 -14.097  21.663  1.00  0.00     0.070 C
HETATM    9  C10 UNL     1      16.356 -15.296  21.087  1.00  0.00     0.131 C
HETATM   10  O5  UNL     1      17.293 -14.801  20.191  1.00  0.00    -0.367 OA
HETATM   11  C11 UNL     1      15.548 -16.301  20.374  1.00  0.00     0.264 C
HETATM   12  C15 UNL     1      14.701 -17.042  21.409  1.00  0.00     0.048 C
HETATM   13  C16 UNL     1      15.666 -17.045  22.566  1.00  0.00     0.041 C
HETATM   14  C17 UNL     1      16.181 -18.422  22.915  1.00  0.00     0.101 C
HETATM   15  C19 UNL     1      17.114 -18.235  24.091  1.00  0.00    -0.034 C
HETATM   16  C20 UNL     1      18.378 -19.033  23.955  1.00  0.00     0.016 C
HETATM   17  C21 UNL     1      16.376 -18.863  25.291  1.00  0.00     0.016 C
HETATM   18  C22 UNL     1      17.300 -16.802  24.475  1.00  0.00     0.017 C
HETATM   19  C23 UNL     1      17.569 -15.848  23.334  1.00  0.00     0.024 C
HETATM   20  C27 UNL     1      16.906 -16.262  22.115  1.00  0.00     0.100 C
ENDROOT
BRANCH  11  21
HETATM   21  N1  UNL     1      14.981 -16.171  19.127  1.00  0.00     0.121 N
HETATM   22  C12 UNL     1      15.599 -16.891  18.037  1.00  0.00     0.302 C
HETATM   23  C13 UNL     1      14.446 -17.738  17.479  1.00  0.00     0.200 C
HETATM   24  O6  UNL     1      13.377 -16.864  17.723  1.00  0.00    -0.361 OA
HETATM   25  C14 UNL     1      13.585 -16.574  19.049  1.00  0.00     0.441 C
ENDBRANCH  11  21
BRANCH  20  26
HETATM   26  O9  UNL     1      17.811 -17.097  21.422  1.00  0.00    -0.386 OA
ATOM     27  H9  UNL     1      17.387 -17.318  20.600  1.00  0.00     0.210 HD
ENDBRANCH  20  26
BRANCH   1  28
HETATM   28  C3  UNL     1      13.294 -13.516  21.864  1.00  0.00     0.222 C
BRANCH  28  29
HETATM   29  O2  UNL     1      13.141 -12.401  22.683  1.00  0.00    -0.319 OA
BRANCH  29  30
HETATM   30  C2  UNL     1      11.963 -11.675  22.682  1.00  0.00     0.254 C
HETATM   31  C1  UNL     1      11.260 -11.323  23.946  1.00  0.00     0.126 C
HETATM   32  O1  UNL     1      11.469 -11.300  21.591  1.00  0.00    -0.266 OA
ENDBRANCH  29  30
ENDBRANCH  28  29
ENDBRANCH   1  28
BRANCH  19  33
HETATM   33  C24 UNL     1      19.065 -15.739  23.181  1.00  0.00     0.009 C
BRANCH  33  34
HETATM   34  C25 UNL     1      19.626 -14.366  23.158  1.00  0.00     0.028 C
BRANCH  34  35
HETATM   35  C26 UNL     1      20.593 -14.160  21.998  1.00  0.00     0.229 C
BRANCH  35  36
HETATM   36  N2  UNL     1      20.503 -15.196  21.010  1.00  0.00    -0.079 N
ATOM     37  H23 UNL     1      20.721 -16.107  21.415  1.00  0.00     0.274 HD
ATOM     38  H22 UNL     1      19.533 -15.363  20.742  1.00  0.00     0.274 HD
ATOM     39  H21 UNL     1      21.083 -15.012  20.191  1.00  0.00     0.274 HD
ENDBRANCH  35  36
ENDBRANCH  34  35
ENDBRANCH  33  34
ENDBRANCH  19  33
BRANCH  14  40
HETATM   40  C18 UNL     1      15.114 -19.392  23.191  1.00  0.00     0.178 C
HETATM   41  O7  UNL     1      15.283 -20.600  22.926  1.00  0.00    -0.648 OA
HETATM   42  O8  UNL     1      13.906 -19.020  23.741  1.00  0.00    -0.648 OA
ENDBRANCH  14  40
TORSDOF 10
ENDMDL