MODEL 1
REMARK VINA RESULT: -7.414741079      0.000      0.000
REMARK  13 active torsions:
REMARK  status: ('A' for Active; 'I' for Inactive)
REMARK    1  A    between atoms: C3_3  and  C4_4
REMARK    2  A    between atoms: C4_4  and  C5_5
REMARK    3  A    between atoms: C9_9  and  O1_10
REMARK    4  A    between atoms: O1_10  and  C10_11
REMARK    5  A    between atoms: C12_14  and  C13_15
REMARK    6  A    between atoms: C14_19  and  C15_20
REMARK    7  A    between atoms: C18_23  and  O6_24
REMARK    8  A    between atoms: C18_23  and  C21_28
REMARK    9  A    between atoms: O6_24  and  C19_25
REMARK   10  A    between atoms: C21_28  and  O8_29
REMARK   11  A    between atoms: C21_28  and  O9_31
REMARK   12  A    between atoms: C24_34  and  O10_35
REMARK   13  A    between atoms: C25_37  and  O11_39
ROOT
HETATM    1  C5  UNL     1      12.849 -12.890  21.299  1.00  0.00     0.006 C
HETATM    2  C6  UNL     1      14.312 -12.529  21.578  1.00  0.00     0.032 C
HETATM    3  C7  UNL     1      15.047 -13.744  21.677  1.00  0.00     0.013 C
HETATM    4  C8  UNL     1      16.413 -14.022  21.179  1.00  0.00     0.058 C
HETATM    5  C9  UNL     1      17.466 -14.090  22.305  1.00  0.00     0.178 C
HETATM    6  C12 UNL     1      17.055 -15.351  22.965  1.00  0.00     0.253 C
HETATM    7  O5  UNL     1      16.147 -16.011  22.244  1.00  0.00    -0.360 OA
HETATM    8  C14 UNL     1      15.947 -15.412  20.964  1.00  0.00     0.075 C
HETATM    9  C17 UNL     1      14.579 -14.950  20.836  1.00  0.00     0.067 C
HETATM   10  C18 UNL     1      13.792 -14.614  19.646  1.00  0.00     0.133 C
HETATM   11  C23 UNL     1      13.010 -13.378  19.904  1.00  0.00     0.063 C
HETATM   12  C24 UNL     1      13.613 -12.074  19.391  1.00  0.00     0.160 C
HETATM   13  C25 UNL     1      14.496 -11.527  20.495  1.00  0.00     0.085 C
HETATM   14  C26 UNL     1      14.011 -10.167  21.012  1.00  0.00     0.049 C
ENDROOT
BRANCH  10  15
HETATM   15  O6  UNL     1      13.097 -15.753  19.279  1.00  0.00    -0.304 OA
BRANCH  15  16
HETATM   16  C19 UNL     1      12.572 -16.859  19.635  1.00  0.00     0.255 C
HETATM   17  C20 UNL     1      11.613 -17.105  20.742  1.00  0.00     0.126 C
HETATM   18  O7  UNL     1      12.941 -17.809  18.941  1.00  0.00    -0.266 OA
ENDBRANCH  15  16
ENDBRANCH  10  15
BRANCH  10  19
HETATM   19  C21 UNL     1      14.505 -14.398  18.367  1.00  0.00     0.292 C
BRANCH  19  20
HETATM   20  O8  UNL     1      14.415 -15.377  17.510  1.00  0.00    -0.368 OA
ATOM     21  H8  UNL     1      15.107 -15.409  16.859  1.00  0.00     0.212 HD
ENDBRANCH  19  20
BRANCH  19  22
HETATM   22  O9  UNL     1      15.247 -13.444  17.830  1.00  0.00    -0.363 OA
HETATM   23  C22 UNL     1      16.610 -13.412  17.547  1.00  0.00     0.204 C
ENDBRANCH  19  22
ENDBRANCH  10  19
BRANCH   8  24
HETATM   24  C15 UNL     1      16.638 -16.287  20.003  1.00  0.00     0.034 C
HETATM   25  C16 UNL     1      16.277 -17.754  20.151  1.00  0.00     0.008 C
ENDBRANCH   8  24
BRANCH   1  26
HETATM   26  C4  UNL     1      12.090 -13.474  22.349  1.00  0.00     0.032 C
BRANCH  26  27
HETATM   27  C3  UNL     1      11.759 -12.456  23.402  1.00  0.00    -0.031 C
HETATM   28  C2  UNL     1      11.295 -11.266  23.127  1.00  0.00    -0.035 C
HETATM   29  C1  UNL     1      10.996 -10.321  24.231  1.00  0.00     0.036 C
ENDBRANCH  26  27
ENDBRANCH   1  26
BRANCH  12  30
HETATM   30  O10 UNL     1      12.518 -11.128  19.329  1.00  0.00    -0.392 OA
ATOM     31  H10 UNL     1      11.912 -11.472  18.685  1.00  0.00     0.210 HD
ENDBRANCH  12  30
BRANCH  13  32
HETATM   32  O11 UNL     1      15.788 -11.260  20.142  1.00  0.00    -0.387 OA
ATOM     33  H11 UNL     1      15.904 -10.751  19.349  1.00  0.00     0.210 HD
ENDBRANCH  13  32
BRANCH   5  34
HETATM   34  O1  UNL     1      18.765 -14.095  21.777  1.00  0.00    -0.313 OA
BRANCH  34  35
HETATM   35  C10 UNL     1      19.101 -13.134  20.818  1.00  0.00     0.255 C
HETATM   36  C11 UNL     1      20.178 -13.326  19.837  1.00  0.00     0.126 C
HETATM   37  O2  UNL     1      18.448 -12.057  20.798  1.00  0.00    -0.266 OA
ENDBRANCH  34  35
ENDBRANCH   5  34
BRANCH   6  38
HETATM   38  C13 UNL     1      18.228 -16.196  23.389  1.00  0.00     0.205 C
HETATM   39  O3  UNL     1      18.559 -17.226  22.749  1.00  0.00    -0.646 OA
HETATM   40  O4  UNL     1      19.002 -15.890  24.499  1.00  0.00    -0.646 OA
ENDBRANCH   6  38
TORSDOF 13
ENDMDL