MODEL 4
REMARK VINA RESULT: -7.342203292      2.443      7.319
REMARK  12 active torsions:
REMARK  status: ('A' for Active; 'I' for Inactive)
REMARK    1  A    between atoms: N1_2  and  C3_4
REMARK    2  A    between atoms: C3_4  and  C4_5
REMARK    3  A    between atoms: C4_5  and  O1_6
REMARK    4  A    between atoms: O1_6  and  C5_7
REMARK    5  A    between atoms: C5_7  and  C6_8
REMARK    6  A    between atoms: C6_8  and  C7_10
REMARK    7  A    between atoms: C7_10  and  O3_11
REMARK    8  A    between atoms: C7_10  and  C8_13
REMARK    9  A    between atoms: C16_23  and  O6_24
REMARK   10  A    between atoms: C22_32  and  C23_33
REMARK   11  A    between atoms: C23_33  and  O8_34
REMARK   12  A    between atoms: C25_37  and  O9_38
ROOT
HETATM    1  C5  UNL     1      13.935 -17.595  20.199  1.00  0.00     0.134 C
HETATM    2  C18 UNL     1      13.543 -16.830  18.943  1.00  0.00     0.047 C
HETATM    3  C19 UNL     1      12.069 -17.039  18.724  1.00  0.00     0.009 C
HETATM    4  C20 UNL     1      11.666 -18.100  19.713  1.00  0.00     0.000 C
HETATM    5  C21 UNL     1      10.787 -19.164  19.062  1.00  0.00     0.012 C
HETATM    6  C22 UNL     1      10.674 -20.311  20.009  1.00  0.00     0.012 C
HETATM    7  C24 UNL     1      11.922 -20.868  20.569  1.00  0.00     0.039 C
HETATM    8  C25 UNL     1      12.974 -19.832  20.977  1.00  0.00     0.130 C
HETATM    9  C26 UNL     1      12.958 -18.744  19.994  1.00  0.00     0.024 C
HETATM   10  C27 UNL     1      13.438 -19.379  18.698  1.00  0.00     0.022 C
ENDROOT
BRANCH   1  11
HETATM   11  O1  UNL     1      15.105 -18.235  20.166  1.00  0.00    -0.370 OA
BRANCH  11  12
HETATM   12  C4  UNL     1      16.341 -17.868  20.191  1.00  0.00     0.199 C
BRANCH  12  13
HETATM   13  C3  UNL     1      17.357 -18.509  21.113  1.00  0.00     0.297 C
BRANCH  13  14
HETATM   14  N1  UNL     1      17.058 -18.321  22.516  1.00  0.00     0.082 N
HETATM   15  C1  UNL     1      16.509 -19.520  23.115  1.00  0.00     0.309 C
HETATM   16  C2  UNL     1      18.294 -17.944  23.188  1.00  0.00     0.309 C
ENDBRANCH  13  14
ENDBRANCH  12  13
ENDBRANCH  11  12
ENDBRANCH   1  11
BRANCH   1  17
HETATM   17  C6  UNL     1      13.610 -16.691  21.298  1.00  0.00     0.193 C
HETATM   18  O2  UNL     1      13.908 -17.176  22.417  1.00  0.00    -0.292 OA
BRANCH  17  19
HETATM   19  C7  UNL     1      13.041 -15.368  21.450  1.00  0.00     0.222 C
BRANCH  19  20
HETATM   20  O3  UNL     1      12.296 -15.296  22.656  1.00  0.00    -0.385 OA
ATOM     21  H3  UNL     1      12.506 -14.493  23.120  1.00  0.00     0.210 HD
ENDBRANCH  19  20
BRANCH  19  22
HETATM   22  C8  UNL     1      13.989 -14.203  21.580  1.00  0.00     0.188 C
HETATM   23  O4  UNL     1      14.923 -14.315  20.586  1.00  0.00    -0.367 OA
HETATM   24  C9  UNL     1      16.198 -13.906  20.847  1.00  0.00     0.083 C
HETATM   25  C10 UNL     1      17.065 -14.373  19.663  1.00  0.00     0.048 C
HETATM   26  C11 UNL     1      16.821 -14.568  22.055  1.00  0.00     0.048 C
HETATM   27  C12 UNL     1      16.218 -12.443  21.006  1.00  0.00     0.185 A
HETATM   28  O5  UNL     1      16.254 -11.484  20.072  1.00  0.00    -0.372 OA
HETATM   29  C13 UNL     1      15.000 -11.942  20.198  1.00  0.00     0.161 A
HETATM   30  C14 UNL     1      13.993 -11.690  21.226  1.00  0.00     0.053 C
HETATM   31  C15 UNL     1      12.768 -11.032  20.580  1.00  0.00     0.070 C
HETATM   32  C17 UNL     1      13.431 -12.897  21.937  1.00  0.00     0.163 C
HETATM   33  C16 UNL     1      11.740 -11.427  21.633  1.00  0.00     0.258 C
HETATM   34  O7  UNL     1      12.069 -12.739  21.941  1.00  0.00    -0.353 OA
BRANCH  33  35
HETATM   35  O6  UNL     1      11.743 -10.574  22.709  1.00  0.00    -0.371 OA
ATOM     36  H6  UNL     1      10.966 -10.670  23.246  1.00  0.00     0.212 HD
ENDBRANCH  33  35
ENDBRANCH  19  22
ENDBRANCH  17  19
ENDBRANCH   1  17
BRANCH   8  37
HETATM   37  O9  UNL     1      12.744 -19.554  22.278  1.00  0.00    -0.395 OA
ATOM     38  H9  UNL     1      13.459 -18.996  22.560  1.00  0.00     0.210 HD
ENDBRANCH   8  37
BRANCH   6  39
HETATM   39  C23 UNL     1       9.971 -21.444  19.252  1.00  0.00     0.168 C
BRANCH  39  40
HETATM   40  O8  UNL     1       9.592 -20.927  18.026  1.00  0.00    -0.400 OA
ATOM     41  H8  UNL     1      10.391 -20.793  17.530  1.00  0.00     0.209 HD
ENDBRANCH  39  40
ENDBRANCH   6  39
TORSDOF 12
ENDMDL