MODEL 3
REMARK VINA RESULT: -7.751639581      2.604      6.398
REMARK  9 active torsions:
REMARK  status: ('A' for Active; 'I' for Inactive)
REMARK    1  A    between atoms: C2_2  and  O1_3
REMARK    2  A    between atoms: O1_3  and  C3_4
REMARK    3  A    between atoms: C3_4  and  C4_5
REMARK    4  A    between atoms: C4_5  and  O2_6
REMARK    5  A    between atoms: C5_8  and  O3_9
REMARK    6  A    between atoms: C14_21  and  C15_22
REMARK    7  A    between atoms: C15_22  and  O6_23
REMARK    8  A    between atoms: C24_35  and  C25_36
REMARK    9  A    between atoms: C25_36  and  O9_37
ROOT
HETATM    1  C4  UNL     1      17.730 -13.648  21.450  1.00  0.00     0.132 C
HETATM    2  C5  UNL     1      17.511 -14.803  20.498  1.00  0.00     0.166 C
HETATM    3  C6  UNL     1      16.128 -15.437  20.735  1.00  0.00     0.077 C
HETATM    4  C7  UNL     1      16.072 -15.395  22.282  1.00  0.00     0.178 C
HETATM    5  O4  UNL     1      15.846 -14.098  22.676  1.00  0.00    -0.382 OA
HETATM    6  C8  UNL     1      16.316 -13.127  21.750  1.00  0.00     0.168 C
HETATM    7  C9  UNL     1      15.627 -13.141  20.474  1.00  0.00     0.060 C
HETATM    8  C10 UNL     1      14.503 -12.300  20.121  1.00  0.00     0.027 C
HETATM    9  C11 UNL     1      14.100 -13.007  18.805  1.00  0.00     0.018 C
HETATM   10  C12 UNL     1      14.467 -14.488  19.017  1.00  0.00     0.054 C
HETATM   11  C13 UNL     1      13.158 -15.298  19.161  1.00  0.00     0.166 C
HETATM   12  O5  UNL     1      13.543 -16.577  18.870  1.00  0.00    -0.366 OA
HETATM   13  C14 UNL     1      12.722 -17.575  19.274  1.00  0.00     0.108 C
HETATM   14  C16 UNL     1      13.444 -18.902  18.994  1.00  0.00     0.045 C
HETATM   15  C17 UNL     1      13.344 -19.817  20.182  1.00  0.00     0.034 C
HETATM   16  C18 UNL     1      12.034 -19.749  20.895  1.00  0.00     0.118 C
HETATM   17  C19 UNL     1      12.243 -20.368  22.281  1.00  0.00     0.039 C
HETATM   18  O7  UNL     1      11.571 -18.461  21.112  1.00  0.00    -0.378 OA
HETATM   19  C20 UNL     1      12.518 -17.513  20.740  1.00  0.00     0.161 C
HETATM   20  C21 UNL     1      12.141 -16.196  21.286  1.00  0.00     0.078 C
HETATM   21  C22 UNL     1      12.804 -15.018  20.571  1.00  0.00     0.112 C
HETATM   22  C23 UNL     1      11.841 -13.888  20.772  1.00  0.00     0.209 C
HETATM   23  O8  UNL     1      12.241 -12.662  20.417  1.00  0.00    -0.380 OA
HETATM   24  C24 UNL     1      13.356 -12.139  21.030  1.00  0.00     0.149 C
HETATM   25  O10 UNL     1      13.956 -14.732  21.235  1.00  0.00    -0.363 OA
HETATM   26  C27 UNL     1      14.993 -14.544  20.366  1.00  0.00     0.083 C
ENDROOT
BRANCH   1  27
HETATM   27  C3  UNL     1      18.479 -12.564  20.732  1.00  0.00     0.210 C
BRANCH  27  28
HETATM   28  O1  UNL     1      19.000 -13.049  19.523  1.00  0.00    -0.388 OA
BRANCH  28  29
HETATM   29  C2  UNL     1      20.367 -12.901  19.461  1.00  0.00     0.163 C
HETATM   30  C1  UNL     1      20.742 -12.618  18.024  1.00  0.00     0.033 C
ENDBRANCH  28  29
ENDBRANCH  27  28
ENDBRANCH   1  27
BRANCH   1  31
HETATM   31  O2  UNL     1      18.376 -14.029  22.618  1.00  0.00    -0.382 OA
ATOM     32  H2  UNL     1      19.214 -14.440  22.436  1.00  0.00     0.210 HD
ENDBRANCH   1  31
BRANCH   2  33
HETATM   33  O3  UNL     1      18.423 -15.818  20.876  1.00  0.00    -0.392 OA
ATOM     34  H3  UNL     1      19.268 -15.570  20.519  1.00  0.00     0.210 HD
ENDBRANCH   2  33
BRANCH  24  35
HETATM   35  C25 UNL     1      13.062 -10.634  21.190  1.00  0.00     0.199 C
BRANCH  35  36
HETATM   36  O9  UNL     1      13.363 -10.209  22.479  1.00  0.00    -0.393 OA
HETATM   37  C26 UNL     1      12.236 -10.473  23.257  1.00  0.00     0.201 C
ENDBRANCH  35  36
ENDBRANCH  24  35
BRANCH  13  38
HETATM   38  C15 UNL     1      11.441 -17.581  18.478  1.00  0.00     0.204 C
BRANCH  38  39
HETATM   39  O6  UNL     1      11.579 -18.275  17.279  1.00  0.00    -0.398 OA
ATOM     40  H6  UNL     1      10.739 -18.551  16.933  1.00  0.00     0.209 HD
ENDBRANCH  38  39
ENDBRANCH  13  38
TORSDOF 9
ENDMDL