MODEL 5
REMARK VINA RESULT: -6.541130642      2.589      6.706
REMARK  13 active torsions:
REMARK  status: ('A' for Active; 'I' for Inactive)
REMARK    1  A    between atoms: C2_2  and  C3_3
REMARK    2  A    between atoms: C3_3  and  C5_5
REMARK    3  A    between atoms: C5_5  and  C6_6
REMARK    4  A    between atoms: C6_6  and  O2_8
REMARK    5  A    between atoms: O2_8  and  C7_9
REMARK    6  A    between atoms: C8_10  and  O3_11
REMARK    7  A    between atoms: C10_14  and  O4_15
REMARK    8  A    between atoms: O4_15  and  C11_16
REMARK    9  A    between atoms: C13_19  and  C14_20
REMARK   10  A    between atoms: C14_20  and  O6_21
REMARK   11  A    between atoms: C19_28  and  C20_29
REMARK   12  A    between atoms: C21_31  and  C22_32
REMARK   13  A    between atoms: C24_35  and  O10_36
ROOT
HETATM    1  C7  UNL     1      14.030 -14.389  21.463  1.00  0.00     0.175 C
HETATM    2  C8  UNL     1      14.188 -15.786  21.908  1.00  0.00     0.156 C
HETATM    3  C9  UNL     1      14.757 -16.888  21.214  1.00  0.00     0.063 C
HETATM    4  C10 UNL     1      13.623 -17.611  20.547  1.00  0.00     0.170 C
HETATM    5  C13 UNL     1      13.207 -16.593  19.472  1.00  0.00    -0.028 C
HETATM    6  C15 UNL     1      13.740 -15.448  19.007  1.00  0.00     0.022 C
HETATM    7  C16 UNL     1      14.910 -14.577  19.217  1.00  0.00     0.125 A
HETATM    8  O7  UNL     1      16.044 -14.635  18.463  1.00  0.00    -0.356 OA
HETATM    9  C17 UNL     1      16.052 -14.648  19.946  1.00  0.00     0.112 A
HETATM   10  C18 UNL     1      16.987 -15.549  20.507  1.00  0.00     0.061 C
HETATM   11  C19 UNL     1      17.010 -16.360  21.727  1.00  0.00     0.036 C
HETATM   12  C21 UNL     1      18.290 -17.236  21.620  1.00  0.00     0.066 C
HETATM   13  C23 UNL     1      17.908 -18.620  21.999  1.00  0.00     0.045 C
HETATM   14  C24 UNL     1      16.519 -18.690  21.340  1.00  0.00     0.128 C
HETATM   15  C25 UNL     1      15.919 -17.430  21.915  1.00  0.00     0.005 C
HETATM   16  C26 UNL     1      15.574 -17.739  23.315  1.00  0.00     0.020 C
HETATM   17  C27 UNL     1      15.023 -13.870  20.489  1.00  0.00     0.058 A
HETATM   18  C28 UNL     1      15.409 -12.388  20.534  1.00  0.00     0.025 C
ENDROOT
BRANCH   1  19
HETATM   19  O2  UNL     1      12.692 -14.100  21.194  1.00  0.00    -0.312 OA
BRANCH  19  20
HETATM   20  C6  UNL     1      12.063 -12.907  21.136  1.00  0.00     0.259 C
HETATM   21  O1  UNL     1      12.230 -12.380  20.031  1.00  0.00    -0.265 OA
BRANCH  20  22
HETATM   22  C5  UNL     1      11.265 -12.220  22.161  1.00  0.00     0.115 C
BRANCH  22  23
HETATM   23  C3  UNL     1      12.157 -11.477  23.131  1.00  0.00    -0.010 C
HETATM   24  C4  UNL     1      13.029 -10.457  22.483  1.00  0.00     0.010 C
BRANCH  23  25
HETATM   25  C2  UNL     1      11.239 -10.759  24.118  1.00  0.00     0.000 C
HETATM   26  C1  UNL     1      11.747  -9.398  24.476  1.00  0.00     0.005 C
ENDBRANCH  23  25
ENDBRANCH  22  23
ENDBRANCH  20  22
ENDBRANCH  19  20
ENDBRANCH   1  19
BRANCH   2  27
HETATM   27  O3  UNL     1      12.890 -16.177  22.407  1.00  0.00    -0.392 OA
ATOM     28  H3  UNL     1      12.956 -17.109  22.574  1.00  0.00     0.210 HD
ENDBRANCH   2  27
BRANCH   4  29
HETATM   29  O4  UNL     1      13.914 -18.837  19.989  1.00  0.00    -0.311 OA
BRANCH  29  30
HETATM   30  C11 UNL     1      13.265 -19.996  20.354  1.00  0.00     0.255 C
HETATM   31  C12 UNL     1      13.604 -20.825  21.523  1.00  0.00     0.126 C
HETATM   32  O5  UNL     1      12.316 -20.343  19.611  1.00  0.00    -0.266 OA
ENDBRANCH  29  30
ENDBRANCH   4  29
BRANCH   5  33
HETATM   33  C14 UNL     1      11.959 -16.921  18.796  1.00  0.00     0.200 C
BRANCH  33  34
HETATM   34  O6  UNL     1      11.035 -17.582  19.592  1.00  0.00    -0.397 OA
ATOM     35  H6  UNL     1      11.263 -18.482  19.791  1.00  0.00     0.209 HD
ENDBRANCH  33  34
ENDBRANCH   5  33
BRANCH  11  36
HETATM   36  C20 UNL     1      17.292 -15.573  22.952  1.00  0.00     0.242 C
HETATM   37  O8  UNL     1      17.278 -14.367  22.888  1.00  0.00    -0.306 OA
ENDBRANCH  11  36
BRANCH  14  38
HETATM   38  O10 UNL     1      16.776 -18.648  19.986  1.00  0.00    -0.395 OA
ATOM     39  H10 UNL     1      16.374 -19.437  19.642  1.00  0.00     0.210 HD
ENDBRANCH  14  38
BRANCH  12  40
HETATM   40  C22 UNL     1      19.420 -16.708  22.371  1.00  0.00     0.236 C
HETATM   41  O9  UNL     1      20.494 -16.548  21.830  1.00  0.00    -0.306 OA
ENDBRANCH  12  40
TORSDOF 13
ENDMDL