MODEL 3
REMARK VINA RESULT: -8.127980028      2.098      4.768
REMARK  11 active torsions:
REMARK  status: ('A' for Active; 'I' for Inactive)
REMARK       I    between atoms: C2_2  and  N1_4
REMARK    1  A    between atoms: N1_4  and  C3_6
REMARK    2  A    between atoms: C3_6  and  C4_7
REMARK    3  A    between atoms: C3_6  and  C24_39
REMARK    4  A    between atoms: C4_7  and  O3_9
REMARK    5  A    between atoms: O3_9  and  C5_10
REMARK    6  A    between atoms: C5_10  and  C6_11
REMARK    7  A    between atoms: C7_13  and  C8_14
REMARK    8  A    between atoms: C8_14  and  N2_15
REMARK       I    between atoms: N2_15  and  C9_17
REMARK    9  A    between atoms: C9_17  and  O6_19
REMARK   10  A    between atoms: O6_19  and  C10_20
REMARK   11  A    between atoms: C23_36  and  O10_37
ROOT
HETATM    1  C6  UNL     1      16.105 -14.339  21.921  1.00  0.00     0.177 C
HETATM    2  O4  UNL     1      15.034 -13.595  22.229  1.00  0.00    -0.369 OA
HETATM    3  C7  UNL     1      13.802 -13.869  21.677  1.00  0.00     0.203 C
HETATM    4  C14 UNL     1      13.887 -13.793  20.220  1.00  0.00     0.201 C
HETATM    5  O7  UNL     1      14.343 -14.951  19.739  1.00  0.00    -0.322 OA
HETATM    6  C15 UNL     1      15.152 -14.884  18.630  1.00  0.00     0.270 C
HETATM    7  O8  UNL     1      16.427 -14.889  19.055  1.00  0.00    -0.352 OA
HETATM    8  C16 UNL     1      16.977 -13.782  19.608  1.00  0.00     0.160 C
HETATM    9  C17 UNL     1      16.472 -12.521  19.006  1.00  0.00     0.018 C
HETATM   10  C18 UNL     1      15.844 -12.828  17.626  1.00  0.00     0.019 C
HETATM   11  C19 UNL     1      14.628 -13.702  17.879  1.00  0.00     0.071 C
HETATM   12  C20 UNL     1      13.525 -12.964  18.555  1.00  0.00     0.143 C
HETATM   13  O9  UNL     1      12.711 -13.667  19.446  1.00  0.00    -0.346 OA
HETATM   14  C21 UNL     1      14.121 -12.439  19.832  1.00  0.00     0.081 C
HETATM   15  C22 UNL     1      15.395 -11.774  19.720  1.00  0.00     0.020 C
HETATM   16  C23 UNL     1      17.177 -13.783  21.107  1.00  0.00     0.178 C
ENDROOT
BRANCH   1  17
HETATM   17  C5  UNL     1      16.575 -15.055  23.147  1.00  0.00     0.213 C
BRANCH  17  18
HETATM   18  O3  UNL     1      17.739 -15.652  23.324  1.00  0.00    -0.317 OA
BRANCH  18  19
HETATM   19  C4  UNL     1      18.850 -15.457  24.051  1.00  0.00     0.282 C
HETATM   20  O2  UNL     1      19.188 -16.367  24.861  1.00  0.00    -0.263 OA
BRANCH  19  21
HETATM   21  C3  UNL     1      19.743 -14.264  24.011  1.00  0.00     0.187 C
BRANCH  21  22
HETATM   22  N1  UNL     1      20.071 -13.925  22.685  1.00  0.00    -0.347 N
HETATM   23  C2  UNL     1      20.475 -14.527  21.503  1.00  0.00     0.214 C
HETATM   24  C1  UNL     1      20.722 -13.564  20.306  1.00  0.00     0.117 C
HETATM   25  O1  UNL     1      20.673 -15.723  21.255  1.00  0.00    -0.274 OA
ATOM     26  H1  UNL     1      19.985 -12.917  22.551  1.00  0.00     0.163 HD
ENDBRANCH  21  22
BRANCH  21  27
HETATM   27  C24 UNL     1      20.904 -14.458  24.961  1.00  0.00     0.010 C
HETATM   28  C25 UNL     1      22.252 -14.480  24.315  1.00  0.00     0.012 C
HETATM   29  C26 UNL     1      20.961 -13.437  26.073  1.00  0.00     0.012 C
ENDBRANCH  21  27
ENDBRANCH  19  21
ENDBRANCH  18  19
ENDBRANCH  17  18
ENDBRANCH   1  17
BRANCH  16  30
HETATM   30  O10 UNL     1      17.544 -12.451  21.385  1.00  0.00    -0.390 OA
ATOM     31  H10 UNL     1      17.293 -12.116  22.238  1.00  0.00     0.210 HD
ENDBRANCH  16  30
BRANCH   3  32
HETATM   32  C8  UNL     1      13.149 -15.102  22.215  1.00  0.00     0.162 C
BRANCH  32  33
HETATM   33  N2  UNL     1      12.070 -15.615  21.430  1.00  0.00    -0.334 N
HETATM   34  C9  UNL     1      11.829 -16.982  21.143  1.00  0.00     0.361 C
HETATM   35  O5  UNL     1      12.636 -17.828  21.634  1.00  0.00    -0.238 OA
ATOM     36  H2  UNL     1      11.415 -14.936  21.042  1.00  0.00     0.164 HD
BRANCH  34  37
HETATM   37  O6  UNL     1      10.806 -17.478  20.385  1.00  0.00    -0.294 OA
BRANCH  37  38
HETATM   38  C10 UNL     1      10.936 -17.778  19.004  1.00  0.00     0.061 C
HETATM   39  C11 UNL     1      10.797 -19.310  18.934  1.00  0.00     0.046 C
HETATM   40  C12 UNL     1      12.267 -17.438  18.421  1.00  0.00     0.046 C
HETATM   41  C13 UNL     1       9.877 -17.179  18.142  1.00  0.00     0.046 C
ENDBRANCH  37  38
ENDBRANCH  34  37
ENDBRANCH  32  33
ENDBRANCH   3  32
TORSDOF 11
ENDMDL