MODEL 2
REMARK VINA RESULT: -7.439678338      2.209      3.177
REMARK  12 active torsions:
REMARK  status: ('A' for Active; 'I' for Inactive)
REMARK    1  A    between atoms: O1_2  and  C2_3
REMARK    2  A    between atoms: C2_3  and  C3_5
REMARK    3  A    between atoms: C4_6  and  O3_7
REMARK    4  A    between atoms: C5_9  and  O4_10
REMARK    5  A    between atoms: C6_12  and  S1_13
REMARK    6  A    between atoms: S1_13  and  C7_14
REMARK    7  A    between atoms: C8_15  and  C9_16
REMARK    8  A    between atoms: C17_27  and  S2_28
REMARK    9  A    between atoms: C19_30  and  C20_31
REMARK   10  A    between atoms: C20_31  and  N4_37
REMARK   11  A    between atoms: N2_32  and  N3_34
REMARK   12  A    between atoms: N4_37  and  N5_38
ROOT
HETATM    1  C3  UNL     1      12.687 -14.333  20.674  1.00  0.00     0.130 C
HETATM    2  C4  UNL     1      12.614 -15.565  21.536  1.00  0.00     0.162 C
HETATM    3  C5  UNL     1      13.841 -16.413  21.502  1.00  0.00     0.163 C
HETATM    4  C6  UNL     1      15.046 -15.491  21.570  1.00  0.00     0.098 C
HETATM    5  C17 UNL     1      15.155 -14.652  20.313  1.00  0.00     0.077 C
HETATM    6  C19 UNL     1      13.822 -14.302  19.734  1.00  0.00     0.103 C
ENDROOT
BRANCH   4   7
HETATM    7  S1  UNL     1      16.531 -16.426  21.869  1.00  0.00    -0.123 SA
BRANCH   7   8
HETATM    8  C7  UNL     1      17.432 -16.130  23.317  1.00  0.00     0.016 C
HETATM    9  C8  UNL     1      18.297 -15.059  23.258  1.00  0.00     0.122 C
HETATM   10  N1  UNL     1      19.049 -14.874  24.423  1.00  0.00    -0.361 N
HETATM   11  C10 UNL     1      19.904 -14.846  25.663  1.00  0.00     0.104 A
HETATM   12  C12 UNL     1      19.825 -16.088  24.907  1.00  0.00     0.112 A
HETATM   13  C11 UNL     1      21.101 -13.966  25.526  1.00  0.00     0.034 C
HETATM   14  C13 UNL     1      18.847 -17.202  25.076  1.00  0.00     0.015 C
HETATM   15  C14 UNL     1      18.790 -17.728  26.482  1.00  0.00     0.012 C
HETATM   16  C15 UNL     1      17.445 -16.776  24.627  1.00  0.00     0.029 C
HETATM   17  C16 UNL     1      16.435 -17.814  24.914  1.00  0.00     0.016 C
BRANCH   9  18
HETATM   18  C9  UNL     1      18.424 -14.245  22.077  1.00  0.00     0.227 C
HETATM   19  O5  UNL     1      17.755 -13.183  21.907  1.00  0.00    -0.643 OA
HETATM   20  O6  UNL     1      19.287 -14.588  21.072  1.00  0.00    -0.643 OA
ENDBRANCH   9  18
ENDBRANCH   7   8
ENDBRANCH   4   7
BRANCH   3  21
HETATM   21  O4  UNL     1      13.941 -17.169  20.334  1.00  0.00    -0.392 OA
ATOM     22  H4  UNL     1      13.943 -18.104  20.501  1.00  0.00     0.210 HD
ENDBRANCH   3  21
BRANCH   5  23
HETATM   23  S2  UNL     1      16.123 -15.605  19.115  1.00  0.00    -0.167 SA
HETATM   24  C18 UNL     1      15.285 -15.827  17.547  1.00  0.00     0.090 C
ENDBRANCH   5  23
BRANCH   2  25
HETATM   25  O3  UNL     1      11.543 -16.394  21.144  1.00  0.00    -0.392 OA
ATOM     26  H3  UNL     1      11.649 -17.273  21.488  1.00  0.00     0.210 HD
ENDBRANCH   2  25
BRANCH   6  27
HETATM   27  C20 UNL     1      13.910 -12.967  19.104  1.00  0.00     0.204 C
HETATM   28  N2  UNL     1      13.597 -12.764  17.855  1.00  0.00    -0.215 N
ATOM     29  H2  UNL     1      13.280 -13.558  17.297  1.00  0.00     0.195 HD
BRANCH  28  30
HETATM   30  N3  UNL     1      13.675 -11.525  17.254  1.00  0.00    -0.037 N
HETATM   31  O7  UNL     1      14.379 -11.346  16.266  1.00  0.00    -0.516 OA
HETATM   32  O8  UNL     1      12.952 -10.465  17.769  1.00  0.00    -0.516 OA
ENDBRANCH  28  30
BRANCH  27  33
HETATM   33  N4  UNL     1      14.322 -11.850  19.828  1.00  0.00    -0.317 NA
BRANCH  33  34
HETATM   34  N5  UNL     1      14.654 -10.948  20.415  1.00  0.00    -0.279 N
ATOM     35  H52 UNL     1      14.433 -11.774  19.859  1.00  0.00     0.191 HD
ATOM     36  H51 UNL     1      14.953 -10.130  20.947  1.00  0.00     0.191 HD
ENDBRANCH  33  34
ENDBRANCH  27  33
ENDBRANCH   6  27
BRANCH   1  37
HETATM   37  C2  UNL     1      12.552 -13.167  21.574  1.00  0.00     0.266 C
HETATM   38  O2  UNL     1      13.290 -13.081  22.579  1.00  0.00    -0.265 OA
BRANCH  37  39
HETATM   39  O1  UNL     1      11.645 -12.150  21.370  1.00  0.00    -0.326 OA
HETATM   40  C1  UNL     1      11.477 -11.050  22.232  1.00  0.00     0.213 C
ENDBRANCH  37  39
ENDBRANCH   1  37
TORSDOF 12
ENDMDL