MODEL 2
REMARK VINA RESULT: -4.548452439      1.076      1.275
REMARK  2 active torsions:
REMARK  status: ('A' for Active; 'I' for Inactive)
REMARK    1  A    between atoms: C3_3  and  O1_4
REMARK    2  A    between atoms: O1_4  and  C4_5
ROOT
HETATM    1  O1  UNL     1      58.837  -4.723  -1.763  1.00  0.00    -0.372 OA
ENDROOT
BRANCH   1   2
HETATM    2  C3  UNL     1      60.216  -4.864  -1.714  1.00  0.00     0.148 A
HETATM    3  C2  UNL     1      60.739  -6.217  -1.650  1.00  0.00     0.001 A
HETATM    4  C1  UNL     1      61.192  -6.106  -0.438  1.00  0.00    -0.025 A
HETATM    5  C7  UNL     1      60.732  -4.734  -0.331  1.00  0.00     0.062 A
ENDBRANCH   1   2
BRANCH   1   6
HETATM    6  C4  UNL     1      58.357  -3.524  -1.355  1.00  0.00     0.169 C
HETATM    7  C5  UNL     1      57.566  -3.449  -0.092  1.00  0.00     0.201 C
HETATM    8  O2  UNL     1      56.406  -3.837  -0.746  1.00  0.00    -0.386 OA
HETATM    9  C6  UNL     1      56.959  -3.283  -1.915  1.00  0.00     0.201 C
ENDBRANCH   1   6
TORSDOF 2
ENDMDL