MODEL 1
REMARK VINA RESULT: -4.388293365      0.000      0.000
REMARK  2 active torsions:
REMARK  status: ('A' for Active; 'I' for Inactive)
REMARK    1  A    between atoms: C3_3  and  O1_4
REMARK    2  A    between atoms: O1_4  and  C4_5
ROOT
HETATM    1  C1  UNL     1      57.057  -3.616  -2.897  1.00  0.00     0.170 C
HETATM    2  C2  UNL     1      58.471  -3.999  -3.246  1.00  0.00     0.060 C
HETATM    3  C3  UNL     1      59.264  -3.220  -2.212  1.00  0.00     0.147 C
HETATM    4  C7  UNL     1      58.274  -3.250  -1.055  1.00  0.00     0.199 C
HETATM    5  O2  UNL     1      57.017  -3.221  -1.594  1.00  0.00    -0.389 OA
ENDROOT
BRANCH   3   6
HETATM    6  O1  UNL     1      60.421  -3.844  -1.827  1.00  0.00    -0.378 OA
BRANCH   6   7
HETATM    7  C4  UNL     1      60.114  -5.023  -1.186  1.00  0.00     0.122 A
HETATM    8  C5  UNL     1      61.230  -5.549  -0.263  1.00  0.00     0.034 A
HETATM    9  C6  UNL     1      60.836  -6.283  -1.470  1.00  0.00     0.034 A
ENDBRANCH   6   7
ENDBRANCH   3   6
TORSDOF 2
ENDMDL