MODEL 1
REMARK VINA RESULT: -5.110233628      0.000      0.000
REMARK  1 active torsions:
REMARK  status: ('A' for Active; 'I' for Inactive)
REMARK    1  A    between atoms: C2_2  and  C3_3
ROOT
HETATM    1  C3  UNL     1      60.561  -4.095  -1.811  1.00  0.00     0.075 A
HETATM    2  C4  UNL     1      59.577  -3.559  -2.864  1.00  0.00     0.083 A
HETATM    3  C5  UNL     1      59.352  -3.372  -1.406  1.00  0.00     0.171 A
HETATM    4  O1  UNL     1      59.532  -2.110  -0.849  1.00  0.00    -0.352 OA
HETATM    5  C6  UNL     1      59.159  -2.260   0.476  1.00  0.00     0.197 C
HETATM    6  C7  UNL     1      58.018  -3.247   0.384  1.00  0.00     0.197 C
HETATM    7  O2  UNL     1      58.308  -3.969  -0.742  1.00  0.00    -0.352 OA
ENDROOT
BRANCH   1   8
HETATM    8  C2  UNL     1      60.673  -5.573  -1.692  1.00  0.00    -0.027 C
HETATM    9  C1  UNL     1      61.056  -6.084  -0.528  1.00  0.00     0.007 C
ENDBRANCH   1   8
TORSDOF 1
ENDMDL