MODEL 5
REMARK VINA RESULT: -4.245903696      1.046      1.302
REMARK  2 active torsions:
REMARK  status: ('A' for Active; 'I' for Inactive)
REMARK    1  A    between atoms: C2_2  and  C3_3
REMARK    2  A    between atoms: C4_4  and  C5_5
ROOT
HETATM    1  C5  UNL     1      59.916  -3.239   1.380  1.00  0.00     0.284 C
HETATM    2  O1  UNL     1      58.733  -2.649   0.879  1.00  0.00    -0.356 OA
HETATM    3  C6  UNL     1      58.415  -1.871   2.013  1.00  0.00     0.197 C
HETATM    4  C7  UNL     1      58.712  -2.865   3.125  1.00  0.00     0.197 C
HETATM    5  O2  UNL     1      59.440  -3.898   2.487  1.00  0.00    -0.356 OA
ENDROOT
BRANCH   1   6
HETATM    6  C4  UNL     1      60.617  -4.046   0.409  1.00  0.00     0.033 C
HETATM    7  C3  UNL     1      60.414  -5.351   0.361  1.00  0.00    -0.000 C
BRANCH   7   8
HETATM    8  C2  UNL     1      61.094  -6.199  -0.595  1.00  0.00    -0.010 C
HETATM    9  C1  UNL     1      60.675  -6.229  -1.840  1.00  0.00     0.011 C
ENDBRANCH   7   8
ENDBRANCH   1   6
TORSDOF 2
ENDMDL