MODEL 2
REMARK VINA RESULT: -4.278561664      1.745      2.661
REMARK  1 active torsions:
REMARK  status: ('A' for Active; 'I' for Inactive)
REMARK    1  A    between atoms: N1_5  and  C5_6
ROOT
HETATM    1  C1  UNL     1      55.996  -3.426  -3.043  1.00  0.00     0.019 C
HETATM    2  C2  UNL     1      57.061  -3.379  -2.471  1.00  0.00    -0.058 C
HETATM    3  C3  UNL     1      58.334  -3.342  -1.797  1.00  0.00     0.102 A
HETATM    4  C4  UNL     1      59.091  -4.432  -1.363  1.00  0.00     0.136 A
HETATM    5  N1  UNL     1      60.223  -4.029  -0.775  1.00  0.00    -0.327 N
HETATM    6  C7  UNL     1      60.192  -2.666  -0.834  1.00  0.00     0.188 A
HETATM    7  N2  UNL     1      59.062  -2.266  -1.445  1.00  0.00    -0.344 N
ATOM      8  H2  UNL     1      58.798  -1.296  -1.615  1.00  0.00     0.167 HD
ENDROOT
BRANCH   5   9
HETATM    9  C5  UNL     1      61.246  -4.837  -0.208  1.00  0.00     0.087 C
HETATM   10  C6  UNL     1      61.176  -6.141  -0.372  1.00  0.00     0.030 C
ENDBRANCH   5   9
TORSDOF 1
ENDMDL