MODEL 2
REMARK VINA RESULT: -3.699639968      0.947      1.041
REMARK  1 active torsions:
REMARK  status: ('A' for Active; 'I' for Inactive)
REMARK    1  A    between atoms: C2_2  and  N1_3
ROOT
HETATM    1  N1  UNL     1      60.735  -4.209  -0.436  1.00  0.00    -0.387 N
HETATM    2  C3  UNL     1      60.674  -3.488  -1.671  1.00  0.00     0.148 C
HETATM    3  C4  UNL     1      59.330  -2.777  -1.697  1.00  0.00     0.187 C
HETATM    4  O1  UNL     1      59.360  -1.870  -0.620  1.00  0.00    -0.388 OA
HETATM    5  C5  UNL     1      59.213  -2.647   0.533  1.00  0.00     0.187 C
HETATM    6  C6  UNL     1      60.434  -3.522   0.778  1.00  0.00     0.148 C
ENDROOT
BRANCH   1   7
HETATM    7  C2  UNL     1      61.089  -5.576  -0.441  1.00  0.00     0.075 C
HETATM    8  C1  UNL     1      60.789  -6.344  -1.467  1.00  0.00     0.029 C
ENDBRANCH   1   7
TORSDOF 1
ENDMDL