MODEL 3
REMARK VINA RESULT: -4.726908377      2.782      3.193
REMARK  2 active torsions:
REMARK  status: ('A' for Active; 'I' for Inactive)
REMARK    1  A    between atoms: C2_2  and  C3_3
REMARK    2  A    between atoms: C4_4  and  C5_5
ROOT
HETATM    1  C5  UNL     1      59.326  -4.069   1.126  1.00  0.00     0.149 C
HETATM    2  C6  UNL     1      59.166  -3.574   2.569  1.00  0.00     0.062 C
HETATM    3  C7  UNL     1      57.810  -4.074   3.029  1.00  0.00     0.173 C
HETATM    4  O1  UNL     1      56.809  -3.622   2.174  1.00  0.00    -0.367 OA
HETATM    5  C8  UNL     1      57.083  -3.940   0.861  1.00  0.00     0.338 C
HETATM    6  O2  UNL     1      58.297  -3.468   0.402  1.00  0.00    -0.358 OA
ENDROOT
BRANCH   1   7
HETATM    7  C4  UNL     1      60.625  -3.680   0.569  1.00  0.00     0.005 C
HETATM    8  C3  UNL     1      61.371  -4.494  -0.144  1.00  0.00    -0.002 C
BRANCH   8   9
HETATM    9  C2  UNL     1      60.954  -5.855  -0.433  1.00  0.00    -0.010 C
HETATM   10  C1  UNL     1      60.630  -6.270  -1.640  1.00  0.00     0.011 C
ENDBRANCH   8   9
ENDBRANCH   1   7
TORSDOF 2
ENDMDL