MODEL 1
REMARK VINA RESULT: -4.458017109      0.000      0.000
REMARK  3 active torsions:
REMARK  status: ('A' for Active; 'I' for Inactive)
REMARK    1  A    between atoms: N1_1  and  N2_4
REMARK    2  A    between atoms: N2_4  and  N3_5
REMARK    3  A    between atoms: N3_5  and  N4_7
ROOT
HETATM    1  N4  UNL     1      60.434  -3.581  -0.759  1.00  0.00    -0.237 N
HETATM    2  C1  UNL     1      61.194  -4.441  -0.072  1.00  0.00     0.121 A
HETATM    3  C2  UNL     1      61.191  -5.767  -0.396  1.00  0.00     0.036 A
HETATM    4  C3  UNL     1      60.404  -6.222  -1.431  1.00  0.00     0.090 A
HETATM    5  N5  UNL     1      59.664  -5.311  -2.083  1.00  0.00    -0.360 N
ATOM      6  H5  UNL     1      59.076  -5.627  -2.853  1.00  0.00     0.166 HD
HETATM    7  C4  UNL     1      59.661  -4.005  -1.771  1.00  0.00     0.208 A
ENDROOT
BRANCH   1   8
HETATM    8  N3  UNL     1      60.429  -2.225  -0.437  1.00  0.00    -0.149 N
ATOM      9  H3  UNL     1      61.312  -1.750  -0.248  1.00  0.00     0.226 HD
BRANCH   8  10
HETATM   10  N2  UNL     1      59.389  -1.603  -0.379  1.00  0.00    -0.227 NA
BRANCH  10  11
HETATM   11  N1  UNL     1      58.478  -0.771  -0.418  1.00  0.00    -0.259 N
ATOM     12  H12 UNL     1      59.140  -0.013  -0.254  1.00  0.00     0.193 HD
ATOM     13  H11 UNL     1      57.598  -0.259  -0.486  1.00  0.00     0.193 HD
ENDBRANCH  10  11
ENDBRANCH   8  10
ENDBRANCH   1   8
TORSDOF 3
ENDMDL