MODEL 5
REMARK VINA RESULT: -4.315594914      1.173      1.977
REMARK  2 active torsions:
REMARK  status: ('A' for Active; 'I' for Inactive)
REMARK    1  A    between atoms: C3_3  and  O1_4
REMARK    2  A    between atoms: O1_4  and  C4_5
ROOT
HETATM    1  O1  UNL     1      59.465  -2.884  -2.295  1.00  0.00    -0.376 OA
ENDROOT
BRANCH   1   2
HETATM    2  C3  UNL     1      60.631  -3.360  -1.699  1.00  0.00     0.122 C
HETATM    3  C2  UNL     1      60.857  -2.738  -0.315  1.00  0.00     0.032 C
HETATM    4  C1  UNL     1      61.401  -4.108   0.097  1.00  0.00     0.005 C
HETATM    5  C7  UNL     1      60.445  -4.686  -0.955  1.00  0.00     0.032 C
ENDBRANCH   1   2
BRANCH   1   6
HETATM    6  C4  UNL     1      58.434  -3.711  -1.926  1.00  0.00     0.169 C
HETATM    7  C5  UNL     1      57.405  -3.807  -3.059  1.00  0.00     0.201 C
HETATM    8  O2  UNL     1      56.432  -3.940  -2.039  1.00  0.00    -0.386 OA
HETATM    9  C6  UNL     1      57.233  -3.047  -1.292  1.00  0.00     0.201 C
ENDBRANCH   1   6
TORSDOF 2
ENDMDL