MODEL 2
REMARK VINA RESULT: -4.511040407      1.964      2.983
REMARK  3 active torsions:
REMARK  status: ('A' for Active; 'I' for Inactive)
REMARK    1  A    between atoms: C2_2  and  O1_3
REMARK    2  A    between atoms: O1_3  and  C3_4
REMARK    3  A    between atoms: N1_8  and  O2_9
ROOT
HETATM    1  C3  UNL     1      59.593  -4.278   0.505  1.00  0.00     0.278 A
HETATM    2  C4  UNL     1      60.923  -3.652   0.422  1.00  0.00     0.030 A
HETATM    3  C5  UNL     1      60.845  -2.713  -0.494  1.00  0.00     0.020 A
HETATM    4  C6  UNL     1      59.479  -2.678  -1.046  1.00  0.00     0.120 A
HETATM    5  N1  UNL     1      58.762  -3.575  -0.474  1.00  0.00    -0.238 N
ENDROOT
BRANCH   1   6
HETATM    6  O1  UNL     1      59.587  -5.636   0.128  1.00  0.00    -0.333 OA
BRANCH   6   7
HETATM    7  C2  UNL     1      60.718  -6.147  -0.481  1.00  0.00     0.127 C
HETATM    8  C1  UNL     1      60.709  -6.334  -1.784  1.00  0.00     0.037 C
ENDBRANCH   6   7
ENDBRANCH   1   6
BRANCH   5   9
HETATM    9  O2  UNL     1      57.443  -3.842  -0.725  1.00  0.00    -0.285 OA
ATOM     10  H2  UNL     1      56.886  -3.344  -1.311  1.00  0.00     0.245 HD
ENDBRANCH   5   9
TORSDOF 3
ENDMDL