MODEL 1
REMARK VINA RESULT: -3.291178714      0.000      0.000
REMARK  2 active torsions:
REMARK  status: ('A' for Active; 'I' for Inactive)
REMARK    1  A    between atoms: N1_2  and  C2_4
REMARK    2  A    between atoms: C4_6  and  N2_7
ROOT
HETATM    1  C2  UNL     1      60.539  -5.710  -1.685  1.00  0.00     0.112 A
HETATM    2  C3  UNL     1      61.065  -4.811  -0.628  1.00  0.00     0.061 A
HETATM    3  C4  UNL     1      60.447  -6.152  -0.223  1.00  0.00     0.208 A
ENDROOT
BRANCH   3   4
HETATM    4  N2  UNL     1      59.153  -6.138   0.415  1.00  0.00    -0.073 N
ATOM      5  H23 UNL     1      59.214  -5.597   1.278  1.00  0.00     0.274 HD
ATOM      6  H22 UNL     1      58.518  -5.559  -0.134  1.00  0.00     0.274 HD
ATOM      7  H21 UNL     1      58.703  -7.032   0.613  1.00  0.00     0.274 HD
ENDBRANCH   3   4
BRANCH   1   8
HETATM    8  N1  UNL     1      59.288  -5.388  -2.258  1.00  0.00    -0.401 N
HETATM    9  C1  UNL     1      58.958  -4.293  -2.778  1.00  0.00     0.112 C
ATOM     10  H1  UNL     1      58.578  -6.121  -2.248  1.00  0.00     0.158 HD
ENDBRANCH   1   8
TORSDOF 2
ENDMDL