MODEL 4
REMARK VINA RESULT: -4.183160870      1.011      1.140
REMARK  1 active torsions:
REMARK  status: ('A' for Active; 'I' for Inactive)
REMARK    1  A    between atoms: C2_2  and  C3_3
ROOT
HETATM    1  C3  UNL     1      59.865  -4.502  -1.883  1.00  0.00     0.061 A
HETATM    2  C4  UNL     1      59.618  -3.220  -2.356  1.00  0.00     0.135 A
HETATM    3  N1  UNL     1      58.576  -3.313  -3.197  1.00  0.00    -0.293 N
ATOM      4  H1  UNL     1      58.161  -2.530  -3.703  1.00  0.00     0.183 HD
HETATM    5  N2  UNL     1      58.164  -4.568  -3.275  1.00  0.00    -0.023 NA
HETATM    6  N3  UNL     1      58.952  -5.289  -2.473  1.00  0.00    -0.283 N
ATOM      7  H3  UNL     1      58.871  -6.295  -2.328  1.00  0.00     0.184 HD
ENDROOT
BRANCH   1   8
HETATM    8  C2  UNL     1      60.914  -4.890  -0.934  1.00  0.00     0.022 C
HETATM    9  C1  UNL     1      61.287  -4.030  -0.023  1.00  0.00     0.013 C
ENDBRANCH   1   8
TORSDOF 1
ENDMDL