MODEL 5
REMARK VINA RESULT: -4.087879593      1.831      2.263
REMARK  1 active torsions:
REMARK  status: ('A' for Active; 'I' for Inactive)
REMARK    1  A    between atoms: C2_2  and  C3_3
ROOT
HETATM    1  C3  UNL     1      59.161  -3.668  -2.475  1.00  0.00     0.119 A
HETATM    2  N1  UNL     1      58.180  -2.749  -2.378  1.00  0.00    -0.337 N
ATOM      3  H1  UNL     1      58.275  -1.791  -2.045  1.00  0.00     0.168 HD
HETATM    4  C4  UNL     1      57.057  -3.338  -2.805  1.00  0.00     0.199 A
HETATM    5  N2  UNL     1      57.310  -4.595  -3.165  1.00  0.00    -0.295 N
ATOM      6  H2  UNL     1      56.638  -5.273  -3.527  1.00  0.00     0.187 HD
HETATM    7  N3  UNL     1      58.591  -4.793  -2.964  1.00  0.00    -0.285 N
ATOM      8  H3  UNL     1      59.084  -5.667  -3.148  1.00  0.00     0.188 HD
ENDROOT
BRANCH   1   9
HETATM    9  C2  UNL     1      60.564  -3.544  -2.141  1.00  0.00     0.040 C
HETATM   10  C1  UNL     1      60.941  -2.972  -1.028  1.00  0.00     0.015 C
ENDBRANCH   1   9
TORSDOF 1
ENDMDL