MODEL 1
REMARK VINA RESULT: -3.627402083      0.000      0.000
REMARK  2 active torsions:
REMARK  status: ('A' for Active; 'I' for Inactive)
REMARK    1  A    between atoms: C2_2  and  O1_3
REMARK    2  A    between atoms: O1_3  and  C3_4
ROOT
HETATM    1  C3  UNL     1      60.544  -5.694  -1.754  1.00  0.00     0.352 A
HETATM    2  C4  UNL     1      61.038  -6.169  -0.482  1.00  0.00     0.296 A
HETATM    3  N1  UNL     1      59.584  -5.979  -0.681  1.00  0.00    -0.043 N
ATOM      4  H11 UNL     1      58.752  -6.559  -0.581  1.00  0.00     0.280 HD
ATOM      5  H12 UNL     1      58.843  -5.462  -0.208  1.00  0.00     0.280 HD
ENDROOT
BRANCH   1   6
HETATM    6  O1  UNL     1      60.686  -4.329  -2.141  1.00  0.00    -0.330 OA
BRANCH   6   7
HETATM    7  C2  UNL     1      60.218  -3.336  -1.295  1.00  0.00     0.127 C
HETATM    8  C1  UNL     1      60.991  -2.542  -0.598  1.00  0.00     0.037 C
ENDBRANCH   6   7
ENDBRANCH   1   6
TORSDOF 2
ENDMDL