MODEL 2
REMARK VINA RESULT: -3.731469135      3.256      3.521
REMARK  2 active torsions:
REMARK  status: ('A' for Active; 'I' for Inactive)
REMARK    1  A    between atoms: N1_1  and  N2_4
REMARK    2  A    between atoms: N3_6  and  C1_8
ROOT
HETATM    1  N2  UNL     1      58.485  -1.007  -0.567  1.00  0.00    -0.253 N
ATOM      2  H2  UNL     1      58.930  -1.019   0.351  1.00  0.00     0.207 HD
HETATM    3  N3  UNL     1      58.696  -1.959  -1.371  1.00  0.00    -0.318 N
ATOM      4  H3  UNL     1      58.235  -1.912  -2.280  1.00  0.00     0.182 HD
ENDROOT
BRANCH   1   5
HETATM    5  N1  UNL     1      57.654   0.062  -0.911  1.00  0.00    -0.331 N
ATOM      6  H12 UNL     1      56.837   0.247  -0.330  1.00  0.00     0.178 HD
ATOM      7  H11 UNL     1      57.853   0.647  -1.722  1.00  0.00     0.178 HD
ENDBRANCH   1   5
BRANCH   3   8
HETATM    8  C1  UNL     1      59.522  -3.091  -1.118  1.00  0.00     0.101 A
HETATM    9  C2  UNL     1      60.981  -3.008  -0.921  1.00  0.00     0.029 A
HETATM   10  C3  UNL     1      60.492  -3.417  -2.256  1.00  0.00     0.029 A
ENDBRANCH   3   8
TORSDOF 2
ENDMDL