MODEL 4
REMARK VINA RESULT: -3.741057361      1.848      2.294
REMARK  1 active torsions:
REMARK  status: ('A' for Active; 'I' for Inactive)
REMARK    1  A    between atoms: C2_2  and  C3_3
ROOT
HETATM    1  C3  UNL     1      59.546  -4.744  -1.824  1.00  0.00     0.154 C
HETATM    2  C4  UNL     1      59.841  -3.524  -2.629  1.00  0.00     0.223 C
HETATM    3  O1  UNL     1      58.514  -3.652  -3.084  1.00  0.00    -0.284 OA
HETATM    4  N1  UNL     1      58.613  -4.995  -2.920  1.00  0.00    -0.090 NA
ENDROOT
BRANCH   1   5
HETATM    5  C2  UNL     1      60.607  -5.737  -1.671  1.00  0.00    -0.011 C
HETATM    6  C1  UNL     1      61.073  -6.037  -0.476  1.00  0.00     0.008 C
ENDBRANCH   1   5
TORSDOF 1
ENDMDL