MODEL 3
REMARK VINA RESULT: -3.757660793      2.191      2.631
REMARK  2 active torsions:
REMARK  status: ('A' for Active; 'I' for Inactive)
REMARK    1  A    between atoms: C3_3  and  O1_4
REMARK    2  A    between atoms: O1_4  and  C4_5
ROOT
HETATM    1  C4  UNL     1      60.085  -2.518  -0.487  1.00  0.00     0.347 A
HETATM    2  C5  UNL     1      59.350  -1.536   0.234  1.00  0.00     0.296 A
HETATM    3  N1  UNL     1      58.937  -1.832  -1.172  1.00  0.00    -0.043 N
ATOM      4  H11 UNL     1      58.083  -2.110  -1.655  1.00  0.00     0.280 HD
ATOM      5  H12 UNL     1      58.790  -1.303  -2.032  1.00  0.00     0.280 HD
ENDROOT
BRANCH   1   6
HETATM    6  O1  UNL     1      59.928  -3.869  -0.392  1.00  0.00    -0.352 OA
BRANCH   6   7
HETATM    7  C3  UNL     1      60.903  -4.623  -0.994  1.00  0.00     0.124 A
HETATM    8  C1  UNL     1      61.089  -6.006  -0.332  1.00  0.00     0.034 A
HETATM    9  C2  UNL     1      60.637  -5.857  -1.748  1.00  0.00     0.034 A
ENDBRANCH   6   7
ENDBRANCH   1   6
TORSDOF 2
ENDMDL