MODEL 4
REMARK VINA RESULT: -3.724221873      1.919      2.329
REMARK  3 active torsions:
REMARK  status: ('A' for Active; 'I' for Inactive)
REMARK    1  A    between atoms: C2_2  and  O1_3
REMARK    2  A    between atoms: O1_3  and  C3_4
REMARK    3  A    between atoms: C5_6  and  N1_7
ROOT
HETATM    1  C3  UNL     1      60.061  -3.242   0.317  1.00  0.00     0.160 A
HETATM    2  C4  UNL     1      60.986  -2.475  -0.539  1.00  0.00     0.070 A
HETATM    3  C5  UNL     1      59.544  -2.690  -0.958  1.00  0.00     0.215 A
ENDROOT
BRANCH   3   4
HETATM    4  N1  UNL     1      58.711  -1.540  -1.016  1.00  0.00    -0.072 N
ATOM      5  H13 UNL     1      58.908  -0.977  -0.190  1.00  0.00     0.274 HD
ATOM      6  H12 UNL     1      59.058  -0.948  -1.770  1.00  0.00     0.274 HD
ATOM      7  H11 UNL     1      57.697  -1.598  -1.114  1.00  0.00     0.274 HD
ENDBRANCH   3   4
BRANCH   1   8
HETATM    8  O1  UNL     1      60.196  -4.650   0.395  1.00  0.00    -0.356 OA
BRANCH   8   9
HETATM    9  C2  UNL     1      61.158  -5.349  -0.314  1.00  0.00     0.125 C
HETATM   10  C1  UNL     1      60.766  -6.105  -1.340  1.00  0.00     0.037 C
ENDBRANCH   8   9
ENDBRANCH   1   8
TORSDOF 3
ENDMDL