MODEL 1
REMARK VINA RESULT: -4.567621846      0.000      0.000
REMARK  1 active torsions:
REMARK  status: ('A' for Active; 'I' for Inactive)
REMARK    1  A    between atoms: C2_2  and  C3_3
ROOT
HETATM    1  C3  UNL     1      59.796  -4.616  -2.086  1.00  0.00     0.065 A
HETATM    2  C4  UNL     1      60.134  -3.313  -1.814  1.00  0.00     0.139 A
HETATM    3  N1  UNL     1      59.159  -2.541  -2.303  1.00  0.00    -0.295 N
ATOM      4  H1  UNL     1      59.118  -1.523  -2.261  1.00  0.00     0.187 HD
HETATM    5  N2  UNL     1      58.270  -3.329  -2.846  1.00  0.00    -0.243 N
ATOM      6  H2  UNL     1      57.414  -3.008  -3.299  1.00  0.00     0.208 HD
HETATM    7  N3  UNL     1      58.624  -4.590  -2.732  1.00  0.00    -0.285 N
ATOM      8  H3  UNL     1      58.102  -5.397  -3.073  1.00  0.00     0.188 HD
ENDROOT
BRANCH   1   9
HETATM    9  C2  UNL     1      60.559  -5.825  -1.741  1.00  0.00     0.022 C
HETATM   10  C1  UNL     1      61.020  -5.978  -0.528  1.00  0.00     0.013 C
ENDBRANCH   1   9
TORSDOF 1
ENDMDL