MODEL 2
REMARK VINA RESULT: -3.751466340      2.544      3.063
REMARK  1 active torsions:
REMARK  status: ('A' for Active; 'I' for Inactive)
REMARK    1  A    between atoms: C2_2  and  C3_3
ROOT
HETATM    1  C3  UNL     1      61.238  -3.925  -0.132  1.00  0.00     0.186 C
HETATM    2  C4  UNL     1      60.008  -3.202   0.361  1.00  0.00     0.180 C
HETATM    3  N1  UNL     1      60.650  -2.146  -0.441  1.00  0.00    -0.097 NA
HETATM    4  O1  UNL     1      61.002  -3.161  -1.299  1.00  0.00    -0.276 OA
ENDROOT
BRANCH   1   5
HETATM    5  C2  UNL     1      61.118  -5.375  -0.303  1.00  0.00    -0.002 C
HETATM    6  C1  UNL     1      60.738  -5.885  -1.447  1.00  0.00     0.009 C
ENDBRANCH   1   5
TORSDOF 1
ENDMDL