MODEL 4
REMARK VINA RESULT: -6.872631963      2.632      5.150
REMARK  9 active torsions:
REMARK  status: ('A' for Active; 'I' for Inactive)
REMARK    1  A    between atoms: C3_3  and  C4_4
REMARK    2  A    between atoms: C7_10  and  C8_11
REMARK    3  A    between atoms: C9_14  and  C10_15
REMARK    4  A    between atoms: C11_16  and  N2_17
REMARK    5  A    between atoms: C12_20  and  N3_21
REMARK       I    between atoms: N3_21  and  C13_23
REMARK    6  A    between atoms: C13_23  and  C14_25
REMARK    7  A    between atoms: C14_25  and  N4_27
REMARK    8  A    between atoms: N4_27  and  C16_28
REMARK    9  A    between atoms: N4_27  and  C17_30
ROOT
HETATM    1  C1  UNL     1      15.653 -12.622  16.464  1.00  0.00     0.112 C
HETATM    2  C2  UNL     1      15.669 -12.843  17.911  1.00  0.00    -0.111 C
HETATM    3  C3  UNL     1      15.702 -13.031  19.101  1.00  0.00    -0.098 C
ENDROOT
BRANCH   3   4
HETATM    4  C4  UNL     1      15.769 -13.269  20.576  1.00  0.00     0.114 C
HETATM    5  C5  UNL     1      14.355 -12.929  21.082  1.00  0.00     0.168 C
HETATM    6  S1  UNL     1      13.531 -11.805  19.952  1.00  0.00    -0.081 SA
HETATM    7  C6  UNL     1      13.693 -14.288  21.071  1.00  0.00     0.241 C
HETATM    8  O1  UNL     1      12.483 -14.487  20.896  1.00  0.00    -0.272 OA
HETATM    9  N1  UNL     1      14.689 -15.241  21.294  1.00  0.00    -0.302 N
HETATM   10  C7  UNL     1      15.039 -16.521  21.794  1.00  0.00     0.123 C
HETATM   11  C21 UNL     1      16.007 -14.706  20.829  1.00  0.00     0.138 C
HETATM   12  C9  UNL     1      16.293 -16.438  22.319  1.00  0.00     0.002 C
HETATM   13  C12 UNL     1      16.707 -15.031  22.157  1.00  0.00     0.145 C
BRANCH  10  14
HETATM   14  C8  UNL     1      14.158 -17.668  21.741  1.00  0.00     0.227 C
HETATM   15  O2  UNL     1      13.156 -17.711  22.545  1.00  0.00    -0.643 OA
HETATM   16  O3  UNL     1      14.261 -18.749  20.915  1.00  0.00    -0.643 OA
ENDBRANCH  10  14
BRANCH  12  17
HETATM   17  C10 UNL     1      16.978 -17.574  22.922  1.00  0.00     0.035 C
HETATM   18  C11 UNL     1      17.277 -17.722  24.183  1.00  0.00     0.168 C
BRANCH  18  19
HETATM   19  N2  UNL     1      17.958 -18.897  24.651  1.00  0.00    -0.127 N
HETATM   20  O4  UNL     1      17.698 -19.472  25.718  1.00  0.00    -0.532 OA
HETATM   21  O5  UNL     1      18.954 -19.405  23.862  1.00  0.00    -0.532 OA
ENDBRANCH  18  19
ENDBRANCH  12  17
BRANCH  13  22
HETATM   22  N3  UNL     1      18.061 -14.689  22.228  1.00  0.00    -0.348 N
HETATM   23  C13 UNL     1      18.863 -14.392  23.337  1.00  0.00     0.240 C
HETATM   24  O6  UNL     1      18.415 -14.389  24.501  1.00  0.00    -0.271 OA
ATOM     25  H3  UNL     1      18.541 -14.648  21.330  1.00  0.00     0.163 HD
BRANCH  23  26
HETATM   26  C14 UNL     1      20.344 -14.050  23.166  1.00  0.00     0.175 C
HETATM   27  C15 UNL     1      20.595 -13.947  21.723  1.00  0.00     0.042 C
BRANCH  26  28
HETATM   28  N4  UNL     1      21.092 -14.948  23.954  1.00  0.00    -0.338 N
BRANCH  28  29
HETATM   29  C16 UNL     1      20.874 -16.361  23.702  1.00  0.00     0.352 C
HETATM   30  O7  UNL     1      21.406 -16.940  22.715  1.00  0.00    -0.283 OA
ENDBRANCH  28  29
BRANCH  28  31
HETATM   31  C17 UNL     1      22.050 -14.640  24.999  1.00  0.00     0.025 C
HETATM   32  C18 UNL     1      21.407 -13.595  25.938  1.00  0.00     0.037 C
HETATM   33  C19 UNL     1      22.369 -15.836  25.872  1.00  0.00     0.037 C
HETATM   34  C20 UNL     1      23.306 -13.970  24.519  1.00  0.00     0.037 C
ENDBRANCH  28  31
ENDBRANCH  26  28
ENDBRANCH  23  26
ENDBRANCH  13  22
ENDBRANCH   3   4
TORSDOF 9
ENDMDL