MODEL 3
REMARK VINA RESULT: -7.245065416      4.355      6.922
REMARK  9 active torsions:
REMARK  status: ('A' for Active; 'I' for Inactive)
REMARK       I    between atoms: N2_5  and  C3_6
REMARK       I    between atoms: C3_6  and  N3_8
REMARK    1  A    between atoms: N3_8  and  C4_9
REMARK    2  A    between atoms: N3_8  and  C6_11
REMARK    3  A    between atoms: C9_15  and  C10_16
REMARK    4  A    between atoms: C10_16  and  C11_17
REMARK    5  A    between atoms: C13_19  and  O3_20
REMARK    6  A    between atoms: C15_22  and  O4_23
REMARK    7  A    between atoms: C16_25  and  O5_26
REMARK    8  A    between atoms: C18_28  and  S1_29
REMARK    9  A    between atoms: S1_29  and  N4_32
ROOT
HETATM    1  C11 UNL     1      12.564 -13.718  20.692  1.00  0.00    -0.007 A
HETATM    2  C12 UNL     1      11.671 -13.742  21.734  1.00  0.00     0.052 A
HETATM    3  C13 UNL     1      11.375 -12.541  22.339  1.00  0.00     0.105 A
HETATM    4  C15 UNL     1      11.949 -11.365  21.919  1.00  0.00     0.134 A
HETATM    5  C16 UNL     1      12.866 -11.357  20.847  1.00  0.00     0.128 A
HETATM    6  C18 UNL     1      13.175 -12.540  20.229  1.00  0.00     0.121 A
ENDROOT
BRANCH   1   7
HETATM    7  C10 UNL     1      12.910 -14.967  20.026  1.00  0.00     0.032 C
BRANCH   7   8
HETATM    8  C9  UNL     1      12.901 -16.145  20.653  1.00  0.00     0.062 A
HETATM    9  C2  UNL     1      11.985 -17.151  20.508  1.00  0.00     0.055 A
HETATM   10  C1  UNL     1      10.922 -17.164  19.723  1.00  0.00     0.045 C
HETATM   11  N1  UNL     1      12.367 -18.164  21.333  1.00  0.00    -0.287 N
HETATM   12  N2  UNL     1      13.467 -17.864  21.992  1.00  0.00    -0.167 N
ATOM     13  H1  UNL     1      11.864 -19.045  21.430  1.00  0.00     0.188 HD
HETATM   14  C3  UNL     1      14.229 -18.601  22.944  1.00  0.00     0.346 C
HETATM   15  C8  UNL     1      13.808 -16.604  21.574  1.00  0.00     0.283 A
HETATM   16  O1  UNL     1      15.283 -18.020  23.433  1.00  0.00    -0.245 OA
HETATM   17  N3  UNL     1      14.003 -19.883  23.438  1.00  0.00    -0.333 N
HETATM   18  O2  UNL     1      14.825 -15.970  21.993  1.00  0.00    -0.265 OA
BRANCH  17  19
HETATM   19  C4  UNL     1      14.982 -20.368  24.447  1.00  0.00     0.123 C
HETATM   20  C5  UNL     1      14.383 -20.384  25.827  1.00  0.00     0.026 C
ENDBRANCH  17  19
BRANCH  17  21
HETATM   21  C6  UNL     1      12.971 -20.826  23.120  1.00  0.00     0.123 C
HETATM   22  C7  UNL     1      13.420 -21.654  21.937  1.00  0.00     0.026 C
ENDBRANCH  17  21
ENDBRANCH   7   8
ENDBRANCH   1   7
BRANCH   6  23
HETATM   23  S1  UNL     1      14.241 -12.642  18.882  1.00  0.00     0.246 S
HETATM   24  O6  UNL     1      13.799 -11.764  17.734  1.00  0.00    -0.206 OA
HETATM   25  O7  UNL     1      14.277 -14.027  18.340  1.00  0.00    -0.206 OA
BRANCH  23  26
HETATM   26  N4  UNL     1      15.868 -12.206  19.291  1.00  0.00    -0.215 NA
HETATM   27  C19 UNL     1      16.239 -12.740  20.591  1.00  0.00     0.129 C
HETATM   28  C20 UNL     1      16.759 -12.803  18.315  1.00  0.00     0.129 C
ENDBRANCH  23  26
ENDBRANCH   6  23
BRANCH   3  29
HETATM   29  O3  UNL     1      10.475 -12.477  23.408  1.00  0.00    -0.353 OA
HETATM   30  C14 UNL     1      11.008 -12.460  24.716  1.00  0.00     0.210 C
ENDBRANCH   3  29
BRANCH   5  31
HETATM   31  O5  UNL     1      13.419 -10.150  20.455  1.00  0.00    -0.352 OA
HETATM   32  C17 UNL     1      14.441  -9.462  21.152  1.00  0.00     0.210 C
ENDBRANCH   5  31
BRANCH   4  33
HETATM   33  O4  UNL     1      11.650 -10.156  22.530  1.00  0.00    -0.356 OA
ATOM     34  H4  UNL     1      12.247  -9.419  22.487  1.00  0.00     0.218 HD
ENDBRANCH   4  33
TORSDOF 9
ENDMDL