MODEL 4
REMARK VINA RESULT: -7.944848114      3.054      7.941
REMARK  9 active torsions:
REMARK  status: ('A' for Active; 'I' for Inactive)
REMARK    1  A    between atoms: C3_3  and  C4_4
REMARK    2  A    between atoms: C7_7  and  O1_8
REMARK    3  A    between atoms: O1_8  and  C8_9
REMARK    4  A    between atoms: C10_11  and  O2_12
REMARK    5  A    between atoms: O2_12  and  C11_13
REMARK    6  A    between atoms: C11_13  and  C12_14
REMARK       I    between atoms: C12_14  and  N1_16
REMARK    7  A    between atoms: N1_16  and  C13_18
REMARK    8  A    between atoms: C18_28  and  N4_29
REMARK    9  A    between atoms: N4_29  and  N5_31
ROOT
HETATM    1  C1  UNL     1      20.972 -12.879  19.459  1.00  0.00     0.012 C
HETATM    2  C2  UNL     1      20.408 -12.690  20.516  1.00  0.00    -0.112 C
HETATM    3  C3  UNL     1      19.704 -12.458  21.768  1.00  0.00     0.146 C
ENDROOT
BRANCH   3   4
HETATM    4  C4  UNL     1      18.963 -13.642  22.281  1.00  0.00     0.081 A
HETATM    5  C5  UNL     1      17.767 -13.937  21.803  1.00  0.00     0.014 A
HETATM    6  C6  UNL     1      17.428 -13.000  20.830  1.00  0.00     0.054 A
HETATM    7  C17 UNL     1      16.823 -14.909  22.060  1.00  0.00     0.063 A
HETATM    8  C7  UNL     1      16.248 -12.985  20.133  1.00  0.00     0.103 A
HETATM    9  C10 UNL     1      15.310 -13.998  20.428  1.00  0.00     0.104 A
HETATM   10  C16 UNL     1      15.601 -14.940  21.377  1.00  0.00     0.070 A
HETATM   11  N3  UNL     1      16.857 -15.865  22.883  1.00  0.00    -0.189 N
HETATM   12  C18 UNL     1      17.779 -16.348  23.837  1.00  0.00     0.711 A
ATOM     13  H3  UNL     1      16.007 -16.429  22.851  1.00  0.00     0.184 HD
HETATM   14  N6  UNL     1      18.930 -15.857  24.065  1.00  0.00    -0.111 N
HETATM   15  S2  UNL     1      19.848 -14.592  23.479  1.00  0.00     0.274 S
ATOM     16  H6  UNL     1      19.419 -16.371  24.798  1.00  0.00     0.197 HD
HETATM   17  O6  UNL     1      21.035 -15.166  22.714  1.00  0.00    -0.200 OA
HETATM   18  O7  UNL     1      20.361 -13.683  24.576  1.00  0.00    -0.200 OA
BRANCH   8  19
HETATM   19  O1  UNL     1      15.966 -12.046  19.189  1.00  0.00    -0.349 OA
BRANCH  19  20
HETATM   20  C8  UNL     1      15.982 -12.280  17.819  1.00  0.00     0.171 C
HETATM   21  C9  UNL     1      17.275 -12.754  17.244  1.00  0.00     0.034 C
ENDBRANCH  19  20
ENDBRANCH   8  19
BRANCH   9  22
HETATM   22  O2  UNL     1      14.134 -13.995  19.740  1.00  0.00    -0.339 OA
BRANCH  22  23
HETATM   23  C11 UNL     1      12.915 -13.431  20.043  1.00  0.00     0.278 C
BRANCH  23  24
HETATM   24  C12 UNL     1      12.964 -12.317  21.019  1.00  0.00     0.247 C
HETATM   25  O3  UNL     1      12.941 -11.123  20.581  1.00  0.00    -0.271 OA
HETATM   26  N1  UNL     1      13.030 -12.489  22.406  1.00  0.00    -0.305 N
ATOM     27  H1  UNL     1      13.579 -13.261  22.785  1.00  0.00     0.171 HD
BRANCH  26  28
HETATM   28  C13 UNL     1      12.402 -11.679  23.236  1.00  0.00     0.150 A
HETATM   29  N2  UNL     1      12.797 -10.477  23.652  1.00  0.00    -0.346 N
HETATM   30  C14 UNL     1      12.039  -9.822  24.477  1.00  0.00     0.097 A
ATOM     31  H2  UNL     1      13.679 -10.080  23.328  1.00  0.00     0.167 HD
HETATM   32  C15 UNL     1      10.866 -10.404  24.880  1.00  0.00     0.070 A
HETATM   33  S1  UNL     1      10.909 -11.890  24.040  1.00  0.00    -0.064 SA
ENDBRANCH  26  28
ENDBRANCH  23  24
ENDBRANCH  22  23
ENDBRANCH   9  22
BRANCH  12  34
HETATM   34  N4  UNL     1      17.437 -17.473  24.630  1.00  0.00    -0.071 N
ATOM     35  H4  UNL     1      17.131 -18.328  24.165  1.00  0.00     0.212 HD
BRANCH  34  36
HETATM   36  N5  UNL     1      17.501 -17.452  26.015  1.00  0.00    -0.024 N
HETATM   37  O4  UNL     1      17.453 -18.523  26.641  1.00  0.00    -0.516 OA
HETATM   38  O5  UNL     1      17.616 -16.290  26.747  1.00  0.00    -0.516 OA
ENDBRANCH  34  36
ENDBRANCH  12  34
ENDBRANCH   3   4
TORSDOF 9
ENDMDL