MODEL 5
REMARK VINA RESULT: -7.824561689      2.095      2.272
REMARK  8 active torsions:
REMARK  status: ('A' for Active; 'I' for Inactive)
REMARK    1  A    between atoms: N1_2  and  C3_4
REMARK    2  A    between atoms: C3_4  and  C4_5
REMARK    3  A    between atoms: C4_5  and  C5_6
REMARK    4  A    between atoms: C5_6  and  N2_7
REMARK       I    between atoms: N2_7  and  C6_9
REMARK    5  A    between atoms: C6_9  and  C7_11
REMARK    6  A    between atoms: C11_15  and  C12_16
REMARK    7  A    between atoms: C13_20  and  C15_22
REMARK    8  A    between atoms: C15_22  and  C16_23
REMARK       I    between atoms: C16_23  and  N4_25
ROOT
HETATM    1  C7  UNL     1      14.956 -13.968  20.431  1.00  0.00     0.162 A
HETATM    2  C8  UNL     1      15.071 -15.249  19.665  1.00  0.00     0.044 A
HETATM    3  C9  UNL     1      15.386 -15.193  21.143  1.00  0.00     0.024 A
HETATM    4  C10 UNL     1      16.844 -15.249  21.453  1.00  0.00     0.030 C
HETATM    5  C11 UNL     1      17.254 -14.125  22.420  1.00  0.00     0.115 C
HETATM    6  N6  UNL     1      17.339 -12.913  21.731  1.00  0.00    -0.206 NA
HETATM    7  C17 UNL     1      18.602 -12.474  21.274  1.00  0.00     0.130 C
HETATM    8  S3  UNL     1      16.217 -12.762  20.425  1.00  0.00     0.229 S
HETATM    9  O3  UNL     1      17.018 -12.930  19.142  1.00  0.00    -0.210 OA
HETATM   10  O4  UNL     1      15.681 -11.338  20.398  1.00  0.00    -0.210 OA
ENDROOT
BRANCH   5  11
HETATM   11  C12 UNL     1      18.387 -14.595  23.205  1.00  0.00     0.278 C
HETATM   12  N3  UNL     1      19.097 -15.731  22.713  1.00  0.00    -0.041 N
HETATM   13  C13 UNL     1      20.310 -15.899  23.471  1.00  0.00     0.189 C
ATOM     14  H32 UNL     1      18.524 -16.574  22.710  1.00  0.00     0.280 HD
ATOM     15  H31 UNL     1      19.274 -15.672  21.710  1.00  0.00     0.280 HD
HETATM   16  C14 UNL     1      21.194 -14.679  23.415  1.00  0.00     0.060 C
HETATM   17  S1  UNL     1      19.750 -16.210  25.203  1.00  0.00    -0.056 SA
HETATM   18  S2  UNL     1      17.967 -14.991  24.951  1.00  0.00    -0.060 SA
BRANCH  13  19
HETATM   19  C15 UNL     1      21.075 -17.081  22.955  1.00  0.00     0.155 C
BRANCH  19  20
HETATM   20  C16 UNL     1      20.333 -18.338  23.018  1.00  0.00     0.238 C
HETATM   21  O2  UNL     1      19.292 -18.488  22.346  1.00  0.00    -0.272 OA
HETATM   22  N4  UNL     1      20.783 -19.395  23.838  1.00  0.00    -0.277 N
HETATM   23  N5  UNL     1      21.971 -19.384  24.286  1.00  0.00    -0.343 N
ATOM     24  H4  UNL     1      20.156 -20.165  24.071  1.00  0.00     0.189 HD
ATOM     25  H52 UNL     1      22.586 -18.607  24.044  1.00  0.00     0.176 HD
ATOM     26  H51 UNL     1      22.296 -20.149  24.879  1.00  0.00     0.176 HD
ENDBRANCH  19  20
ENDBRANCH  13  19
ENDBRANCH   5  11
BRANCH   1  27
HETATM   27  C6  UNL     1      13.557 -13.479  20.571  1.00  0.00     0.243 C
HETATM   28  N2  UNL     1      13.122 -12.840  21.762  1.00  0.00    -0.359 N
ATOM     29  H2  UNL     1      13.810 -12.737  22.509  1.00  0.00     0.162 HD
HETATM   30  O1  UNL     1      12.723 -13.619  19.635  1.00  0.00    -0.272 OA
BRANCH  28  31
HETATM   31  C5  UNL     1      11.817 -12.330  22.014  1.00  0.00     0.124 C
BRANCH  31  32
HETATM   32  C4  UNL     1      11.759 -10.840  22.244  1.00  0.00     0.050 C
BRANCH  32  33
HETATM   33  C3  UNL     1      12.408 -10.491  23.563  1.00  0.00     0.273 C
BRANCH  33  34
HETATM   34  N1  UNL     1      11.467 -10.184  24.592  1.00  0.00     0.080 N
HETATM   35  C1  UNL     1      11.708  -8.930  25.245  1.00  0.00     0.309 C
HETATM   36  C2  UNL     1      11.207 -11.262  25.501  1.00  0.00     0.309 C
ENDBRANCH  33  34
ENDBRANCH  32  33
ENDBRANCH  31  32
ENDBRANCH  28  31
ENDBRANCH   1  27
TORSDOF 8
ENDMDL