MODEL 5
REMARK VINA RESULT: -8.016530426      2.553      3.407
REMARK  11 active torsions:
REMARK  status: ('A' for Active; 'I' for Inactive)
REMARK    1  A    between atoms: C2_2  and  C4_4
REMARK    2  A    between atoms: N1_7  and  O1_9
REMARK    3  A    between atoms: O1_9  and  C7_10
REMARK    4  A    between atoms: C7_10  and  C8_11
REMARK    5  A    between atoms: C8_11  and  C9_12
REMARK    6  A    between atoms: C9_12  and  S1_13
REMARK    7  A    between atoms: S1_13  and  C10_14
REMARK    8  A    between atoms: C10_14  and  N4_21
REMARK    9  A    between atoms: N2_15  and  N3_17
REMARK   10  A    between atoms: N3_17  and  O2_19
REMARK   11  A    between atoms: C17_30  and  O3_31
ROOT
HETATM    1  C7  UNL     1      20.361 -12.791  20.420  1.00  0.00     0.202 C
ENDROOT
BRANCH   1   2
HETATM    2  O1  UNL     1      21.269 -13.367  21.340  1.00  0.00    -0.279 OA
BRANCH   2   3
HETATM    3  N1  UNL     1      20.985 -14.342  22.207  1.00  0.00    -0.253 N
HETATM    4  C6  UNL     1      21.353 -14.570  23.388  1.00  0.00     0.123 C
HETATM    5  C5  UNL     1      20.889 -15.797  24.248  1.00  0.00     0.201 C
HETATM    6  N6  UNL     1      22.030 -14.346  24.586  1.00  0.00    -0.334 N
HETATM    7  C4  UNL     1      20.697 -14.517  25.171  1.00  0.00     0.117 C
HETATM    8  S2  UNL     1      22.339 -16.696  24.622  1.00  0.00     0.161 S
HETATM    9  C18 UNL     1      23.764 -15.777  25.039  1.00  0.00     0.194 C
HETATM   10  O4  UNL     1      21.984 -17.674  25.750  1.00  0.00    -0.227 OA
HETATM   11  O5  UNL     1      22.741 -17.590  23.445  1.00  0.00    -0.227 OA
HETATM   12  C17 UNL     1      23.410 -14.240  24.904  1.00  0.00     0.235 C
ATOM     13  H1  UNL     1      20.339 -15.040  21.839  1.00  0.00     0.195 HD
BRANCH   7  14
HETATM   14  C2  UNL     1      20.591 -14.844  26.600  1.00  0.00     0.002 C
HETATM   15  C1  UNL     1      19.153 -15.286  26.892  1.00  0.00     0.011 C
HETATM   16  C3  UNL     1      20.834 -13.589  27.399  1.00  0.00     0.011 C
ENDBRANCH   7  14
BRANCH  12  17
HETATM   17  O3  UNL     1      24.246 -13.733  23.968  1.00  0.00    -0.376 OA
ATOM     18  H3  UNL     1      25.153 -14.017  23.975  1.00  0.00     0.212 HD
ENDBRANCH  12  17
ENDBRANCH   2   3
ENDBRANCH   1   2
BRANCH   1  19
HETATM   19  C8  UNL     1      19.051 -12.516  21.166  1.00  0.00     0.039 C
BRANCH  19  20
HETATM   20  C9  UNL     1      17.957 -13.184  20.389  1.00  0.00     0.084 C
BRANCH  20  21
HETATM   21  S1  UNL     1      16.357 -13.169  21.169  1.00  0.00    -0.093 SA
BRANCH  21  22
HETATM   22  C10 UNL     1      15.786 -14.725  21.764  1.00  0.00     0.158 C
HETATM   23  N2  UNL     1      14.517 -14.857  22.071  1.00  0.00    -0.260 N
ATOM     24  H2  UNL     1      13.899 -14.053  21.956  1.00  0.00     0.191 HD
BRANCH  23  25
HETATM   25  N3  UNL     1      13.981 -16.049  22.547  1.00  0.00    -0.208 N
ATOM     26  H3  UNL     1      14.535 -16.903  22.484  1.00  0.00     0.215 HD
BRANCH  25  27
HETATM   27  O2  UNL     1      12.833 -16.103  23.053  1.00  0.00    -0.274 OA
ATOM     28  H2  UNL     1      12.059 -16.253  22.524  1.00  0.00     0.246 HD
ENDBRANCH  25  27
ENDBRANCH  23  25
BRANCH  22  29
HETATM   29  N4  UNL     1      16.577 -15.891  21.954  1.00  0.00    -0.357 N
HETATM   30  C11 UNL     1      16.545 -17.003  21.064  1.00  0.00     0.153 C
HETATM   31  C12 UNL     1      16.741 -18.346  21.654  1.00  0.00     0.256 C
HETATM   32  N5  UNL     1      17.591 -18.380  22.816  1.00  0.00    -0.072 N
HETATM   33  C13 UNL     1      17.294 -19.608  23.531  1.00  0.00     0.272 C
HETATM   34  C14 UNL     1      19.003 -18.422  22.480  1.00  0.00     0.272 C
HETATM   35  C15 UNL     1      17.357 -17.284  23.721  1.00  0.00     0.256 C
HETATM   36  C16 UNL     1      17.461 -15.930  23.093  1.00  0.00     0.153 C
ENDBRANCH  22  29
ENDBRANCH  21  22
ENDBRANCH  20  21
ENDBRANCH  19  20
ENDBRANCH   1  19
TORSDOF 11
ENDMDL