MODEL 5
REMARK VINA RESULT: -7.377238347      1.584      2.258
REMARK  9 active torsions:
REMARK  status: ('A' for Active; 'I' for Inactive)
REMARK    1  A    between atoms: O1_2  and  C2_3
REMARK    2  A    between atoms: C2_3  and  C3_4
REMARK    3  A    between atoms: C3_4  and  N1_5
REMARK    4  A    between atoms: N1_5  and  C4_7
REMARK    5  A    between atoms: C5_10  and  C6_11
REMARK    6  A    between atoms: C15_24  and  N5_25
REMARK    7  A    between atoms: N5_25  and  C16_26
REMARK    8  A    between atoms: C16_26  and  C17_27
REMARK    9  A    between atoms: C17_27  and  N6_28
ROOT
HETATM    1  C4  UNL     1      17.656 -16.582  24.950  1.00  0.00     0.680 A
HETATM    2  N2  UNL     1      18.953 -16.481  25.232  1.00  0.00    -0.190 N
ATOM      3  H2  UNL     1      19.325 -16.950  26.058  1.00  0.00     0.184 HD
HETATM    4  C5  UNL     1      19.800 -15.755  24.427  1.00  0.00     0.079 A
HETATM    5  C12 UNL     1      19.294 -15.137  23.327  1.00  0.00     0.105 A
HETATM    6  C13 UNL     1      20.083 -14.431  22.473  1.00  0.00     0.267 A
HETATM    7  O2  UNL     1      21.317 -14.330  22.719  1.00  0.00    -0.267 OA
HETATM    8  N4  UNL     1      19.544 -13.862  21.390  1.00  0.00    -0.278 N
HETATM    9  C14 UNL     1      20.371 -13.116  20.462  1.00  0.00     0.164 C
HETATM   10  C15 UNL     1      18.216 -13.934  21.059  1.00  0.00     0.264 A
HETATM   11  N8  UNL     1      17.452 -14.654  21.938  1.00  0.00    -0.301 N
ATOM     12  H8  UNL     1      16.454 -14.748  21.750  1.00  0.00     0.171 HD
HETATM   13  C24 UNL     1      17.954 -15.240  23.032  1.00  0.00     0.142 A
HETATM   14  N9  UNL     1      17.171 -15.967  23.864  1.00  0.00    -0.175 N
ATOM     15  H9  UNL     1      16.175 -16.050  23.656  1.00  0.00     0.186 HD
ENDROOT
BRANCH  10  16
HETATM   16  N5  UNL     1      17.721 -13.404  20.100  1.00  0.00    -0.386 NA
BRANCH  16  17
HETATM   17  C16 UNL     1      17.146 -12.845  19.050  1.00  0.00     0.178 C
BRANCH  17  18
HETATM   18  C17 UNL     1      16.007 -13.688  18.474  1.00  0.00     0.181 C
BRANCH  18  19
HETATM   19  N6  UNL     1      14.750 -13.423  19.082  1.00  0.00    -0.384 N
HETATM   20  C18 UNL     1      14.564 -12.215  19.765  1.00  0.00     0.086 C
HETATM   21  C19 UNL     1      13.156 -12.131  20.314  1.00  0.00     0.280 C
HETATM   22  N7  UNL     1      12.934 -13.254  21.173  1.00  0.00    -0.069 N
HETATM   23  C20 UNL     1      13.978 -13.332  22.169  1.00  0.00     0.272 C
HETATM   24  C21 UNL     1      11.656 -13.220  21.872  1.00  0.00     0.272 C
HETATM   25  C22 UNL     1      12.895 -14.452  20.343  1.00  0.00     0.256 C
HETATM   26  C23 UNL     1      14.185 -14.620  19.576  1.00  0.00     0.150 C
ENDBRANCH  18  19
ENDBRANCH  17  18
ENDBRANCH  16  17
ENDBRANCH  10  16
BRANCH   4  27
HETATM   27  C6  UNL     1      21.202 -15.745  24.863  1.00  0.00     0.001 A
HETATM   28  C7  UNL     1      22.123 -16.696  24.467  1.00  0.00     0.031 A
HETATM   29  C8  UNL     1      23.446 -16.547  24.816  1.00  0.00     0.088 A
HETATM   30  N3  UNL     1      23.847 -15.471  25.545  1.00  0.00    -0.375 N
HETATM   31  C9  UNL     1      22.931 -14.540  25.930  1.00  0.00     0.095 A
ATOM     32  H3  UNL     1      24.828 -15.362  25.801  1.00  0.00     0.164 HD
HETATM   33  C10 UNL     1      21.600 -14.648  25.606  1.00  0.00    -0.034 A
HETATM   34  C11 UNL     1      20.656 -13.595  26.075  1.00  0.00     0.050 C
ENDBRANCH   4  27
BRANCH   1  35
HETATM   35  N1  UNL     1      16.938 -17.281  25.767  1.00  0.00    -0.224 N
ATOM     36  H1  UNL     1      16.470 -16.788  26.528  1.00  0.00     0.177 HD
BRANCH  35  37
HETATM   37  C3  UNL     1      16.755 -18.692  25.680  1.00  0.00     0.164 C
BRANCH  37  38
HETATM   38  C2  UNL     1      17.480 -19.408  26.773  1.00  0.00     0.187 C
BRANCH  38  39
HETATM   39  O1  UNL     1      18.296 -18.693  27.571  1.00  0.00    -0.394 OA
HETATM   40  C1  UNL     1      18.781 -19.220  28.732  1.00  0.00     0.201 C
ENDBRANCH  38  39
ENDBRANCH  37  38
ENDBRANCH  35  37
ENDBRANCH   1  35
TORSDOF 9
ENDMDL