MODEL 1
REMARK VINA RESULT: -8.020354089      0.000      0.000
REMARK  12 active torsions:
REMARK  status: ('A' for Active; 'I' for Inactive)
REMARK    1  A    between atoms: C2_2  and  C3_3
REMARK       I    between atoms: C3_3  and  N1_5
REMARK    2  A    between atoms: N1_5  and  C4_6
REMARK    3  A    between atoms: N1_5  and  C18_30
REMARK    4  A    between atoms: C4_6  and  O2_7
REMARK    5  A    between atoms: C4_6  and  C5_9
REMARK    6  A    between atoms: C5_9  and  S1_11
REMARK    7  A    between atoms: S1_11  and  C6_12
REMARK    8  A    between atoms: C7_13  and  C8_14
REMARK    9  A    between atoms: C10_20  and  C11_21
REMARK   10  A    between atoms: C11_21  and  O8_23
REMARK   11  A    between atoms: O8_23  and  C12_24
REMARK   12  A    between atoms: C18_30  and  C20_32
ROOT
HETATM    1  C6  UNL     1      16.403 -14.758  20.547  1.00  0.00     0.022 C
HETATM    2  C7  UNL     1      17.101 -13.833  19.887  1.00  0.00     0.128 C
HETATM    3  N2  UNL     1      18.319 -13.571  20.545  1.00  0.00    -0.304 N
HETATM    4  C9  UNL     1      19.621 -13.212  20.907  1.00  0.00     0.240 C
HETATM    5  O6  UNL     1      20.493 -12.365  20.641  1.00  0.00    -0.272 OA
HETATM    6  C10 UNL     1      19.580 -14.364  21.850  1.00  0.00     0.201 C
HETATM    7  C16 UNL     1      18.131 -13.967  21.953  1.00  0.00     0.121 C
HETATM    8  C17 UNL     1      17.104 -15.061  21.861  1.00  0.00     0.076 C
ENDROOT
BRANCH   1   9
HETATM    9  S1  UNL     1      14.829 -15.496  20.216  1.00  0.00    -0.046 SA
BRANCH   9  10
HETATM   10  C5  UNL     1      13.535 -15.023  21.373  1.00  0.00     0.264 C
HETATM   11  O3  UNL     1      13.593 -15.608  22.455  1.00  0.00    -0.276 OA
BRANCH  10  12
HETATM   12  C4  UNL     1      12.561 -14.046  21.006  1.00  0.00     0.205 C
BRANCH  12  13
HETATM   13  N1  UNL     1      12.387 -12.690  21.305  1.00  0.00    -0.278 N
HETATM   14  C3  UNL     1      11.635 -12.179  22.360  1.00  0.00     0.249 C
HETATM   15  O1  UNL     1      11.034 -12.963  23.151  1.00  0.00    -0.268 OA
BRANCH  14  16
HETATM   16  C2  UNL     1      11.442 -10.753  22.687  1.00  0.00     0.064 C
HETATM   17  C1  UNL     1      11.746 -10.292  23.884  1.00  0.00     0.017 C
ENDBRANCH  14  16
BRANCH  13  18
HETATM   18  C18 UNL     1      13.067 -11.709  20.427  1.00  0.00     0.180 C
HETATM   19  C19 UNL     1      13.322 -12.218  19.052  1.00  0.00     0.042 C
BRANCH  18  20
HETATM   20  C20 UNL     1      14.230 -11.180  21.152  1.00  0.00     0.254 C
HETATM   21  N3  UNL     1      14.574  -9.807  21.073  1.00  0.00    -0.060 NA
HETATM   22  O9  UNL     1      14.942 -11.943  21.854  1.00  0.00    -0.275 OA
ENDBRANCH  18  20
ENDBRANCH  13  18
ENDBRANCH  12  13
BRANCH  12  23
HETATM   23  O2  UNL     1      11.586 -14.492  20.199  1.00  0.00    -0.343 OA
ATOM     24  H2  UNL     1      11.868 -14.496  19.291  1.00  0.00     0.219 HD
ENDBRANCH  12  23
ENDBRANCH  10  12
ENDBRANCH   9  10
ENDBRANCH   1   9
BRANCH   2  25
HETATM   25  C8  UNL     1      16.685 -13.171  18.661  1.00  0.00     0.228 C
HETATM   26  O4  UNL     1      16.511 -11.942  18.578  1.00  0.00    -0.643 OA
HETATM   27  O5  UNL     1      16.471 -13.944  17.529  1.00  0.00    -0.643 OA
ENDBRANCH   2  25
BRANCH   6  28
HETATM   28  C11 UNL     1      20.380 -14.227  23.059  1.00  0.00     0.275 C
HETATM   29  O7  UNL     1      21.630 -14.311  22.986  1.00  0.00    -0.264 OA
BRANCH  28  30
HETATM   30  O8  UNL     1      19.798 -14.008  24.281  1.00  0.00    -0.311 OA
BRANCH  30  31
HETATM   31  C12 UNL     1      19.638 -14.965  25.284  1.00  0.00     0.060 C
HETATM   32  C13 UNL     1      20.148 -16.329  24.916  1.00  0.00     0.045 C
HETATM   33  C14 UNL     1      20.224 -14.478  26.595  1.00  0.00     0.045 C
HETATM   34  C15 UNL     1      18.131 -15.114  25.524  1.00  0.00     0.045 C
ENDBRANCH  30  31
ENDBRANCH  28  30
ENDBRANCH   6  28
TORSDOF 12
ENDMDL