MODEL 3
REMARK VINA RESULT: -7.490059316      2.968      5.531
REMARK  12 active torsions:
REMARK  status: ('A' for Active; 'I' for Inactive)
REMARK    1  A    between atoms: O1_2  and  C2_3
REMARK    2  A    between atoms: C2_3  and  C3_5
REMARK    3  A    between atoms: C3_5  and  O4_7
REMARK    4  A    between atoms: O4_7  and  C4_8
REMARK    5  A    between atoms: C4_8  and  C5_9
REMARK    6  A    between atoms: C4_8  and  C10_16
REMARK    7  A    between atoms: C5_9  and  O6_11
REMARK    8  A    between atoms: O6_11  and  C6_12
REMARK    9  A    between atoms: C19_27  and  S1_28
REMARK   10  A    between atoms: S1_28  and  C20_30
REMARK   11  A    between atoms: C20_30  and  C21_31
REMARK   12  A    between atoms: C21_31  and  C22_32
ROOT
HETATM    1  C10 UNL     1      15.038 -13.258  19.933  1.00  0.00     0.021 A
HETATM    2  C11 UNL     1      16.139 -13.454  20.637  1.00  0.00     0.003 A
HETATM    3  C12 UNL     1      16.334 -13.887  21.954  1.00  0.00     0.021 A
HETATM    4  C13 UNL     1      17.579 -14.027  22.507  1.00  0.00    -0.061 A
HETATM    5  C14 UNL     1      17.706 -14.492  23.913  1.00  0.00     0.048 C
HETATM    6  C15 UNL     1      18.680 -13.726  21.717  1.00  0.00     0.009 A
HETATM    7  C16 UNL     1      18.518 -13.299  20.416  1.00  0.00     0.031 A
HETATM    8  C17 UNL     1      17.254 -13.164  19.879  1.00  0.00     0.043 A
HETATM    9  N1  UNL     1      16.917 -12.782  18.695  1.00  0.00    -0.355 N
ATOM     10  H1  UNL     1      17.553 -12.510  17.946  1.00  0.00     0.166 HD
HETATM   11  C18 UNL     1      15.502 -12.807  18.625  1.00  0.00     0.051 A
HETATM   12  C19 UNL     1      14.754 -12.495  17.612  1.00  0.00     0.108 C
ENDROOT
BRANCH   1  13
HETATM   13  C4  UNL     1      13.674 -13.471  20.425  1.00  0.00     0.268 C
BRANCH  13  14
HETATM   14  O4  UNL     1      12.815 -12.379  20.151  1.00  0.00    -0.293 OA
BRANCH  14  15
HETATM   15  C3  UNL     1      12.887 -11.146  20.745  1.00  0.00     0.360 C
HETATM   16  O3  UNL     1      13.252 -10.176  20.060  1.00  0.00    -0.253 OA
BRANCH  15  17
HETATM   17  C2  UNL     1      12.543 -10.994  22.135  1.00  0.00     0.358 C
HETATM   18  O2  UNL     1      13.452 -10.977  23.034  1.00  0.00    -0.253 OA
BRANCH  17  19
HETATM   19  O1  UNL     1      11.212 -10.863  22.505  1.00  0.00    -0.318 OA
HETATM   20  C1  UNL     1      10.889 -11.060  23.882  1.00  0.00     0.213 C
ENDBRANCH  17  19
ENDBRANCH  15  17
ENDBRANCH  14  15
ENDBRANCH  13  14
BRANCH  13  21
HETATM   21  C5  UNL     1      13.053 -14.715  19.918  1.00  0.00     0.294 C
HETATM   22  O5  UNL     1      11.804 -14.811  19.936  1.00  0.00    -0.262 OA
BRANCH  21  23
HETATM   23  O6  UNL     1      13.767 -15.792  19.418  1.00  0.00    -0.309 OA
BRANCH  23  24
HETATM   24  C6  UNL     1      14.265 -16.854  20.200  1.00  0.00     0.060 C
HETATM   25  C7  UNL     1      13.574 -18.118  19.669  1.00  0.00     0.045 C
HETATM   26  C8  UNL     1      15.735 -17.069  20.039  1.00  0.00     0.045 C
HETATM   27  C9  UNL     1      13.928 -16.741  21.648  1.00  0.00     0.045 C
ENDBRANCH  23  24
ENDBRANCH  21  23
ENDBRANCH  13  21
ENDBRANCH   1  13
BRANCH  12  28
HETATM   28  S1  UNL     1      15.440 -11.972  16.112  1.00  0.00     0.041 S
HETATM   29  O7  UNL     1      14.597 -10.727  15.473  1.00  0.00    -0.253 OA
BRANCH  28  30
HETATM   30  C20 UNL     1      15.833 -13.217  14.980  1.00  0.00     0.122 C
BRANCH  30  31
HETATM   31  C21 UNL     1      17.035 -14.065  15.290  1.00  0.00     0.112 C
BRANCH  31  32
HETATM   32  C22 UNL     1      16.740 -15.457  15.548  1.00  0.00     0.232 C
HETATM   33  N2  UNL     1      15.664 -15.785  16.430  1.00  0.00    -0.062 NA
HETATM   34  O8  UNL     1      17.374 -16.402  15.051  1.00  0.00    -0.277 OA
ENDBRANCH  31  32
ENDBRANCH  30  31
ENDBRANCH  28  30
ENDBRANCH  12  28
TORSDOF 12
ENDMDL