MODEL 1
REMARK VINA RESULT: -7.781561776      0.000      0.000
REMARK  7 active torsions:
REMARK  status: ('A' for Active; 'I' for Inactive)
REMARK    1  A    between atoms: N1_2  and  C2_5
REMARK    2  A    between atoms: C2_5  and  C4_7
REMARK       I    between atoms: C4_7  and  N2_9
REMARK    3  A    between atoms: N3_12  and  C7_13
REMARK    4  A    between atoms: C7_13  and  C8_14
REMARK    5  A    between atoms: C7_13  and  C17_29
REMARK       I    between atoms: C8_14  and  N4_16
REMARK    6  A    between atoms: N4_16  and  C9_18
REMARK    7  A    between atoms: N6_26  and  O3_27
ROOT
HETATM    1  C7  UNL     1      17.863 -15.854  22.934  1.00  0.00     0.176 C
ENDROOT
BRANCH   1   2
HETATM    2  N3  UNL     1      19.007 -15.039  23.052  1.00  0.00    -0.396 N
HETATM    3  C6  UNL     1      20.276 -15.410  22.619  1.00  0.00     0.137 C
HETATM    4  C5  UNL     1      21.384 -14.552  23.308  1.00  0.00     0.145 C
HETATM    5  N2  UNL     1      21.397 -15.053  24.659  1.00  0.00    -0.343 N
HETATM    6  C4  UNL     1      22.603 -15.358  25.286  1.00  0.00     0.250 C
HETATM    7  C23 UNL     1      20.090 -15.204  25.275  1.00  0.00     0.100 C
HETATM    8  O1  UNL     1      22.605 -15.804  26.457  1.00  0.00    -0.271 OA
HETATM    9  C22 UNL     1      19.113 -14.462  24.379  1.00  0.00     0.142 C
HETATM   10  C24 UNL     1      20.125 -14.538  26.608  1.00  0.00     0.034 C
BRANCH   6  11
HETATM   11  C2  UNL     1      23.912 -15.173  24.611  1.00  0.00     0.272 C
HETATM   12  C3  UNL     1      24.294 -13.691  24.714  1.00  0.00     0.050 C
BRANCH  11  13
HETATM   13  N1  UNL     1      24.970 -15.894  25.336  1.00  0.00    -0.067 N
HETATM   14  C1  UNL     1      25.581 -16.829  24.411  1.00  0.00     0.267 C
ATOM     15  H12 UNL     1      24.632 -16.343  26.187  1.00  0.00     0.277 HD
ATOM     16  H11 UNL     1      25.647 -15.269  25.773  1.00  0.00     0.277 HD
ENDBRANCH  11  13
ENDBRANCH   6  11
ENDBRANCH   1   2
BRANCH   1  17
HETATM   17  C8  UNL     1      16.855 -14.969  22.227  1.00  0.00     0.241 C
HETATM   18  O2  UNL     1      17.369 -14.253  21.294  1.00  0.00    -0.271 OA
HETATM   19  N4  UNL     1      15.495 -14.885  22.512  1.00  0.00    -0.353 N
ATOM     20  H4  UNL     1      15.095 -15.452  23.259  1.00  0.00     0.163 HD
BRANCH  19  21
HETATM   21  C9  UNL     1      14.650 -13.994  21.750  1.00  0.00     0.107 C
HETATM   22  C10 UNL     1      13.760 -14.780  20.787  1.00  0.00     0.050 C
HETATM   23  C11 UNL     1      12.656 -13.723  20.605  1.00  0.00     0.117 C
HETATM   24  C12 UNL     1      13.220 -12.512  19.964  1.00  0.00     0.294 C
HETATM   25  N6  UNL     1      12.317 -13.549  22.025  1.00  0.00    -0.183 NA
HETATM   26  N5  UNL     1      13.768 -11.513  20.785  1.00  0.00     0.087 N
HETATM   27  C13 UNL     1      13.262 -10.205  20.460  1.00  0.00     0.310 C
HETATM   28  C14 UNL     1      13.838 -11.745  22.171  1.00  0.00     0.295 C
HETATM   29  C15 UNL     1      13.658 -13.223  22.542  1.00  0.00     0.137 C
BRANCH  25  30
HETATM   30  O3  UNL     1      11.532 -12.453  22.095  1.00  0.00    -0.308 OA
HETATM   31  C16 UNL     1      10.800 -12.429  23.252  1.00  0.00     0.229 C
ENDBRANCH  25  30
ENDBRANCH  19  21
ENDBRANCH   1  17
BRANCH   1  32
HETATM   32  C17 UNL     1      17.968 -17.067  22.098  1.00  0.00     0.021 C
HETATM   33  C18 UNL     1      18.600 -18.281  22.698  1.00  0.00     0.033 C
HETATM   34  C19 UNL     1      18.088 -19.518  21.981  1.00  0.00     0.168 C
HETATM   35  O4  UNL     1      16.785 -19.747  22.433  1.00  0.00    -0.391 OA
HETATM   36  C20 UNL     1      16.129 -18.552  22.591  1.00  0.00     0.168 C
HETATM   37  C21 UNL     1      16.644 -17.522  21.562  1.00  0.00     0.033 C
ENDBRANCH   1  32
TORSDOF 7
ENDMDL