MODEL 1
REMARK VINA RESULT: -8.276806972      0.000      0.000
REMARK  9 active torsions:
REMARK  status: ('A' for Active; 'I' for Inactive)
REMARK    1  A    between atoms: C2_2  and  N1_3
REMARK       I    between atoms: N1_3  and  C3_4
REMARK       I    between atoms: N1_3  and  C16_29
REMARK    2  A    between atoms: C3_4  and  C4_6
REMARK    3  A    between atoms: C4_6  and  N2_7
REMARK    4  A    between atoms: N4_18  and  C11_19
REMARK    5  A    between atoms: C11_19  and  C12_20
REMARK    6  A    between atoms: C11_19  and  C13_23
REMARK    7  A    between atoms: C12_20  and  O4_21
REMARK    8  A    between atoms: C16_29  and  O8_31
REMARK    9  A    between atoms: O8_31  and  C17_32
ROOT
HETATM    1  N2  UNL     1      15.513 -14.139  20.239  1.00  0.00    -0.197 N
HETATM    2  N3  UNL     1      14.881 -14.717  19.240  1.00  0.00    -0.321 N
ATOM      3  H3  UNL     1      14.148 -14.222  18.732  1.00  0.00     0.181 HD
HETATM    4  C5  UNL     1      15.243 -16.055  18.880  1.00  0.00     0.166 C
HETATM    5  C6  UNL     1      14.027 -16.916  18.749  1.00  0.00     0.189 C
HETATM    6  O2  UNL     1      13.961 -17.968  19.610  1.00  0.00    -0.387 OA
HETATM    7  C7  UNL     1      14.117 -17.711  20.930  1.00  0.00     0.193 C
HETATM    8  C8  UNL     1      12.859 -17.278  21.641  1.00  0.00     0.193 C
HETATM    9  O3  UNL     1      12.228 -16.214  21.062  1.00  0.00    -0.387 OA
HETATM   10  C9  UNL     1      12.571 -14.983  21.611  1.00  0.00     0.188 C
HETATM   11  C10 UNL     1      12.347 -13.839  20.663  1.00  0.00     0.169 C
HETATM   12  N4  UNL     1      13.174 -12.680  20.996  1.00  0.00    -0.261 N
HETATM   13  S1  UNL     1      14.768 -12.902  21.138  1.00  0.00     0.341 S
HETATM   14  O5  UNL     1      15.609 -11.716  20.788  1.00  0.00    -0.180 OA
HETATM   15  O6  UNL     1      15.130 -13.231  22.592  1.00  0.00    -0.180 OA
ENDROOT
BRANCH   1  16
HETATM   16  C4  UNL     1      16.925 -14.040  20.233  1.00  0.00     0.266 C
BRANCH  16  17
HETATM   17  C3  UNL     1      17.580 -14.602  21.450  1.00  0.00     0.248 C
HETATM   18  N1  UNL     1      18.623 -13.849  22.051  1.00  0.00    -0.263 N
HETATM   19  C16 UNL     1      19.282 -14.343  23.218  1.00  0.00     0.369 C
HETATM   20  O7  UNL     1      18.933 -15.459  23.718  1.00  0.00    -0.238 OA
HETATM   21  O1  UNL     1      17.221 -15.691  21.916  1.00  0.00    -0.271 OA
BRANCH  18  22
HETATM   22  C2  UNL     1      19.063 -12.571  21.528  1.00  0.00     0.133 C
HETATM   23  C1  UNL     1      20.262 -12.860  20.635  1.00  0.00     0.027 C
ENDBRANCH  18  22
BRANCH  19  24
HETATM   24  O8  UNL     1      20.296 -13.665  23.846  1.00  0.00    -0.299 OA
BRANCH  24  25
HETATM   25  C17 UNL     1      21.097 -14.185  24.866  1.00  0.00     0.125 C
HETATM   26  C18 UNL     1      22.563 -14.271  24.482  1.00  0.00     0.040 C
HETATM   27  C19 UNL     1      20.961 -13.391  26.157  1.00  0.00     0.040 C
ENDBRANCH  24  25
ENDBRANCH  19  24
ENDBRANCH  16  17
ENDBRANCH   1  16
BRANCH  12  28
HETATM   28  C11 UNL     1      12.441 -11.505  21.196  1.00  0.00     0.029 C
BRANCH  28  29
HETATM   29  C12 UNL     1      12.813 -10.295  20.371  1.00  0.00     0.217 C
BRANCH  29  30
HETATM   30  O4  UNL     1      12.918 -10.461  19.027  1.00  0.00    -0.395 OA
ATOM     31  H4  UNL     1      12.188 -10.871  18.578  1.00  0.00     0.209 HD
ENDBRANCH  29  30
ENDBRANCH  28  29
BRANCH  28  32
HETATM   32  C13 UNL     1      11.963 -11.182  22.576  1.00  0.00     0.026 C
HETATM   33  C14 UNL     1      13.046 -10.346  23.289  1.00  0.00     0.016 C
HETATM   34  C15 UNL     1      11.605 -12.230  23.520  1.00  0.00     0.016 C
ENDBRANCH  28  32
ENDBRANCH  12  28
TORSDOF 9
ENDMDL