MODEL 1
REMARK VINA RESULT: -5.791832923      0.000      0.000
REMARK  11 active torsions:
REMARK  status: ('A' for Active; 'I' for Inactive)
REMARK       I    between atoms: C2_2  and  N1_4
REMARK    1  A    between atoms: N1_4  and  C3_6
REMARK    2  A    between atoms: C5_13  and  N5_14
REMARK    3  A    between atoms: N5_14  and  C6_16
REMARK    4  A    between atoms: C6_16  and  O2_18
REMARK    5  A    between atoms: C8_20  and  C9_21
REMARK    6  A    between atoms: C9_21  and  O3_22
REMARK    7  A    between atoms: C9_21  and  C10_24
REMARK    8  A    between atoms: C10_24  and  O4_25
REMARK    9  A    between atoms: C10_24  and  C11_27
REMARK   10  A    between atoms: C11_27  and  O5_28
REMARK   11  A    between atoms: C13_32  and  C14_33
ROOT
HETATM    1  C3  UNL     1      34.009  26.810 -19.262  1.00  0.00     0.720 C
HETATM    2  N2  UNL     1      34.561  27.998 -19.537  1.00  0.00    -0.113 N
ATOM      3  H2  UNL     1      33.968  28.827 -19.569  1.00  0.00     0.206 HD
HETATM    4  N3  UNL     1      35.950  28.133 -19.784  1.00  0.00    -0.096 N
HETATM    5  C4  UNL     1      36.269  29.428 -20.333  1.00  0.00     0.704 A
HETATM    6  N4  UNL     1      35.737  30.628 -20.006  1.00  0.00    -0.173 N
ATOM      7  H4  UNL     1      35.023  30.812 -19.302  1.00  0.00     0.186 HD
HETATM    8  C5  UNL     1      36.337  31.522 -20.792  1.00  0.00     0.145 A
HETATM    9  C8  UNL     1      37.260  30.851 -21.619  1.00  0.00     0.104 A
HETATM   10  N6  UNL     1      37.192  29.558 -21.308  1.00  0.00    -0.176 N
HETATM   11  C12 UNL     1      37.750  28.318 -21.771  1.00  0.00     0.194 C
HETATM   12  C13 UNL     1      38.012  27.282 -20.742  1.00  0.00     0.140 C
HETATM   13  O6  UNL     1      37.533  25.991 -21.071  1.00  0.00    -0.336 OA
HETATM   14  C15 UNL     1      36.871  25.806 -19.836  1.00  0.00     0.319 C
HETATM   15  O7  UNL     1      35.664  25.219 -20.020  1.00  0.00    -0.231 OA
HETATM   16  N8  UNL     1      34.713  25.591 -19.139  1.00  0.00    -0.092 N
ATOM     17  H8  UNL     1      34.497  24.973 -18.358  1.00  0.00     0.213 HD
HETATM   18  C16 UNL     1      37.025  27.228 -19.595  1.00  0.00     0.226 C
ENDROOT
BRANCH   9  19
HETATM   19  C9  UNL     1      37.975  31.519 -22.712  1.00  0.00     0.203 C
BRANCH  19  20
HETATM   20  O3  UNL     1      37.854  30.610 -23.865  1.00  0.00    -0.387 OA
ATOM     21  H3  UNL     1      37.411  31.116 -24.535  1.00  0.00     0.210 HD
ENDBRANCH  19  20
BRANCH  19  22
HETATM   22  C10 UNL     1      39.456  31.623 -22.571  1.00  0.00     0.176 C
BRANCH  22  23
HETATM   23  O4  UNL     1      39.936  31.316 -21.360  1.00  0.00    -0.390 OA
ATOM     24  H4  UNL     1      39.817  30.412 -21.094  1.00  0.00     0.210 HD
ENDBRANCH  22  23
BRANCH  22  25
HETATM   25  C11 UNL     1      40.107  30.739 -23.634  1.00  0.00     0.198 C
BRANCH  25  26
HETATM   26  O5  UNL     1      40.659  29.630 -22.950  1.00  0.00    -0.398 OA
ATOM     27  H5  UNL     1      41.593  29.792 -22.885  1.00  0.00     0.209 HD
ENDBRANCH  25  26
ENDBRANCH  22  25
ENDBRANCH  19  22
ENDBRANCH   9  19
BRANCH   8  28
HETATM   28  N5  UNL     1      36.085  32.910 -20.773  1.00  0.00    -0.348 N
ATOM     29  H5  UNL     1      35.752  33.361 -21.625  1.00  0.00     0.163 HD
BRANCH  28  30
HETATM   30  C6  UNL     1      36.281  33.713 -19.598  1.00  0.00     0.215 C
HETATM   31  C7  UNL     1      36.107  35.184 -20.006  1.00  0.00     0.063 C
BRANCH  30  32
HETATM   32  O2  UNL     1      35.263  33.494 -18.655  1.00  0.00    -0.377 OA
ATOM     33  H2  UNL     1      35.414  33.994 -17.862  1.00  0.00     0.212 HD
ENDBRANCH  30  32
ENDBRANCH  28  30
ENDBRANCH   8  28
BRANCH  12  34
HETATM   34  C14 UNL     1      39.386  27.301 -20.188  1.00  0.00     0.095 C
HETATM   35  N7  UNL     1      39.984  28.411 -20.154  1.00  0.00    -0.408 N
ATOM     36  H72 UNL     1      39.525  29.254 -20.499  1.00  0.00     0.155 HD
ATOM     37  H71 UNL     1      40.930  28.425 -19.772  1.00  0.00     0.155 HD
ENDBRANCH  12  34
BRANCH   1  38
HETATM   38  N1  UNL     1      32.621  26.871 -19.047  1.00  0.00    -0.157 N
HETATM   39  C2  UNL     1      31.958  26.113 -18.068  1.00  0.00     0.232 C
HETATM   40  C1  UNL     1      30.477  26.275 -17.956  1.00  0.00     0.118 C
HETATM   41  O1  UNL     1      32.551  25.334 -17.315  1.00  0.00    -0.273 OA
ATOM     42  H1  UNL     1      32.068  27.498 -19.631  1.00  0.00     0.187 HD
ENDBRANCH   1  38
TORSDOF 11
ENDMDL