MODEL 5
REMARK VINA RESULT: -5.729203277      1.328      2.752
REMARK  9 active torsions:
REMARK  status: ('A' for Active; 'I' for Inactive)
REMARK    1  A    between atoms: N1_1  and  C1_4
REMARK    2  A    between atoms: C2_7  and  C3_8
REMARK    3  A    between atoms: C3_8  and  C4_9
REMARK    4  A    between atoms: C6_11  and  O1_12
REMARK    5  A    between atoms: C8_15  and  O2_16
REMARK    6  A    between atoms: C10_19  and  S1_20
REMARK    7  A    between atoms: S1_20  and  C11_23
REMARK    8  A    between atoms: C11_23  and  N3_24
REMARK    9  A    between atoms: C11_23  and  N4_28
ROOT
HETATM    1  C4  UNL     1      34.305  25.035 -17.686  1.00  0.00     0.034 C
HETATM    2  C5  UNL     1      32.939  25.423 -17.572  1.00  0.00     0.018 A
HETATM    3  C6  UNL     1      32.259  26.327 -18.341  1.00  0.00     0.079 A
HETATM    4  C7  UNL     1      30.902  26.627 -18.133  1.00  0.00     0.074 A
HETATM    5  C8  UNL     1      30.222  25.999 -17.126  1.00  0.00     0.069 A
HETATM    6  C9  UNL     1      30.887  25.088 -16.345  1.00  0.00     0.061 A
HETATM    7  C10 UNL     1      32.209  24.783 -16.533  1.00  0.00     0.078 A
ENDROOT
BRANCH   1   8
HETATM    8  C3  UNL     1      35.316  25.554 -18.615  1.00  0.00     0.151 C
HETATM    9  N5  UNL     1      35.095  26.961 -18.831  1.00  0.00    -0.340 N
HETATM   10  C12 UNL     1      35.795  27.885 -19.390  1.00  0.00     0.192 C
ATOM     11  H5  UNL     1      34.202  27.292 -18.466  1.00  0.00     0.164 HD
HETATM   12  N6  UNL     1      35.222  29.181 -19.410  1.00  0.00    -0.063 NA
HETATM   13  N7  UNL     1      37.084  27.734 -19.963  1.00  0.00    -0.305 N
HETATM   14  C13 UNL     1      37.955  26.810 -19.721  1.00  0.00     0.195 C
ATOM     15  H7  UNL     1      37.356  28.440 -20.647  1.00  0.00     0.171 HD
HETATM   16  N8  UNL     1      39.200  26.894 -20.448  1.00  0.00    -0.063 NA
HETATM   17  N9  UNL     1      37.816  25.722 -18.830  1.00  0.00    -0.320 N
HETATM   18  C14 UNL     1      36.724  25.187 -18.362  1.00  0.00     0.134 C
ATOM     19  H9  UNL     1      38.687  25.299 -18.510  1.00  0.00     0.169 HD
HETATM   20  N10 UNL     1      36.971  24.083 -17.528  1.00  0.00    -0.084 NA
BRANCH   8  21
HETATM   21  C2  UNL     1      34.971  24.892 -20.002  1.00  0.00     0.057 A
HETATM   22  N2  UNL     1      34.642  25.650 -21.029  1.00  0.00    -0.337 N
HETATM   23  C1  UNL     1      34.367  25.038 -22.182  1.00  0.00     0.142 A
ATOM     24  H2  UNL     1      34.599  26.666 -20.946  1.00  0.00     0.168 HD
HETATM   25  S2  UNL     1      34.569  23.386 -21.834  1.00  0.00    -0.064 SA
HETATM   26  C15 UNL     1      35.008  23.556 -20.179  1.00  0.00     0.081 A
BRANCH  23  27
HETATM   27  N1  UNL     1      34.020  25.604 -23.321  1.00  0.00    -0.380 N
ATOM     28  H12 UNL     1      34.349  25.394 -24.263  1.00  0.00     0.158 HD
ATOM     29  H11 UNL     1      33.351  26.362 -23.454  1.00  0.00     0.158 HD
ENDBRANCH  23  27
ENDBRANCH   8  21
ENDBRANCH   1   8
BRANCH   3  30
HETATM   30  O1  UNL     1      32.833  27.028 -19.392  1.00  0.00    -0.360 OA
ATOM     31  H1  UNL     1      32.670  27.948 -19.563  1.00  0.00     0.217 HD
ENDBRANCH   3  30
BRANCH   7  32
HETATM   32  S1  UNL     1      32.914  23.589 -15.474  1.00  0.00     0.231 S
HETATM   33  O3  UNL     1      33.667  22.510 -16.236  1.00  0.00    -0.219 OA
HETATM   34  O4  UNL     1      33.820  24.147 -14.437  1.00  0.00    -0.219 OA
BRANCH  32  35
HETATM   35  C11 UNL     1      31.609  22.676 -14.619  1.00  0.00     0.502 C
BRANCH  35  36
HETATM   36  N3  UNL     1      32.228  21.418 -14.185  1.00  0.00    -0.036 N
ATOM     37  H33 UNL     1      32.628  20.874 -14.949  1.00  0.00     0.278 HD
ATOM     38  H32 UNL     1      33.094  21.547 -13.661  1.00  0.00     0.278 HD
ATOM     39  H31 UNL     1      31.504  20.922 -13.664  1.00  0.00     0.278 HD
ENDBRANCH  35  36
BRANCH  35  40
HETATM   40  N4  UNL     1      31.119  23.364 -13.475  1.00  0.00    -0.036 N
ATOM     41  H43 UNL     1      31.710  24.164 -13.247  1.00  0.00     0.278 HD
ATOM     42  H42 UNL     1      30.251  23.856 -13.688  1.00  0.00     0.278 HD
ATOM     43  H41 UNL     1      31.004  22.752 -12.668  1.00  0.00     0.278 HD
ENDBRANCH  35  40
ENDBRANCH  32  35
ENDBRANCH   7  32
BRANCH   5  44
HETATM   44  O2  UNL     1      28.885  26.275 -16.898  1.00  0.00    -0.361 OA
ATOM     45  H2  UNL     1      28.478  26.049 -16.070  1.00  0.00     0.217 HD
ENDBRANCH   5  44
TORSDOF 9
ENDMDL