MODEL 5
REMARK VINA RESULT: -6.183671081      3.052      5.084
REMARK  12 active torsions:
REMARK  status: ('A' for Active; 'I' for Inactive)
REMARK    1  A    between atoms: C2_2  and  N1_3
REMARK    2  A    between atoms: C2_2  and  O1_7
REMARK    3  A    between atoms: N1_3  and  N2_4
REMARK    4  A    between atoms: O1_7  and  C3_8
REMARK    5  A    between atoms: C5_15  and  C6_16
REMARK    6  A    between atoms: C8_23  and  C9_24
REMARK    7  A    between atoms: C9_24  and  O3_25
REMARK    8  A    between atoms: C9_24  and  O4_27
REMARK    9  A    between atoms: C11_33  and  C12_34
REMARK   10  A    between atoms: C12_34  and  N9_35
REMARK   11  A    between atoms: C12_34  and  C13_40
REMARK   12  A    between atoms: N9_35  and  N10_37
ROOT
HETATM    1  C3  UNL     1      36.160  24.867 -17.612  1.00  0.00     0.177 A
HETATM    2  N3  UNL     1      37.115  25.695 -18.144  1.00  0.00    -0.319 N
ATOM      3  H3  UNL     1      38.079  25.615 -17.821  1.00  0.00     0.169 HD
HETATM    4  C4  UNL     1      36.813  26.607 -19.081  1.00  0.00     0.132 A
HETATM    5  N4  UNL     1      37.746  27.368 -19.555  1.00  0.00    -0.383 N
ATOM      6  H41 UNL     1      37.517  28.062 -20.267  1.00  0.00     0.157 HD
ATOM      7  H42 UNL     1      38.699  27.263 -19.210  1.00  0.00     0.157 HD
HETATM    8  C5  UNL     1      35.517  26.751 -19.550  1.00  0.00     0.123 A
HETATM    9  N8  UNL     1      34.594  25.929 -19.016  1.00  0.00    -0.348 N
ATOM     10  H8  UNL     1      33.628  26.002 -19.335  1.00  0.00     0.166 HD
HETATM   11  C11 UNL     1      34.902  25.009 -18.071  1.00  0.00     0.094 A
ENDROOT
BRANCH   8  12
HETATM   12  C6  UNL     1      35.185  27.738 -20.568  1.00  0.00     0.160 A
HETATM   13  N5  UNL     1      34.657  27.493 -21.774  1.00  0.00    -0.280 N
HETATM   14  N6  UNL     1      34.480  28.602 -22.444  1.00  0.00    -0.263 N
ATOM     15  H5  UNL     1      34.424  26.563 -22.124  1.00  0.00     0.188 HD
HETATM   16  C7  UNL     1      34.904  29.602 -21.653  1.00  0.00     0.252 A
ATOM     17  H6  UNL     1      34.094  28.690 -23.384  1.00  0.00     0.190 HD
HETATM   18  O2  UNL     1      35.033  30.897 -21.636  1.00  0.00    -0.276 OA
HETATM   19  N7  UNL     1      35.345  29.059 -20.479  1.00  0.00    -0.267 N
HETATM   20  C8  UNL     1      35.551  31.274 -20.484  1.00  0.00     0.127 A
HETATM   21  C10 UNL     1      35.751  30.128 -19.749  1.00  0.00     0.140 A
BRANCH  20  22
HETATM   22  C9  UNL     1      35.840  32.672 -20.105  1.00  0.00     0.314 C
BRANCH  22  23
HETATM   23  O3  UNL     1      35.312  32.912 -18.844  1.00  0.00    -0.365 OA
ATOM     24  H3  UNL     1      36.028  33.029 -18.230  1.00  0.00     0.213 HD
ENDBRANCH  22  23
BRANCH  22  25
HETATM   25  O4  UNL     1      37.230  32.931 -20.122  1.00  0.00    -0.365 OA
ATOM     26  H4  UNL     1      37.432  33.696 -20.649  1.00  0.00     0.213 HD
ENDBRANCH  22  25
ENDBRANCH  20  22
ENDBRANCH   8  12
BRANCH  11  27
HETATM   27  C12 UNL     1      33.805  24.152 -17.538  1.00  0.00     0.222 C
BRANCH  27  28
HETATM   28  N9  UNL     1      33.775  22.904 -18.211  1.00  0.00    -0.325 N
ATOM     29  H9  UNL     1      33.378  22.818 -19.147  1.00  0.00     0.181 HD
BRANCH  28  30
HETATM   30  N10 UNL     1      34.299  21.818 -17.561  1.00  0.00    -0.348 N
ATOM     31 2H10 UNL     1      35.184  21.413 -17.866  1.00  0.00     0.176 HD
ATOM     32 1H10 UNL     1      33.774  21.440 -16.772  1.00  0.00     0.176 HD
ENDBRANCH  28  30
ENDBRANCH  27  28
BRANCH  27  33
HETATM   33  C13 UNL     1      32.553  24.902 -17.479  1.00  0.00     0.137 A
HETATM   34  N11 UNL     1      31.739  24.916 -16.388  1.00  0.00    -0.241 N
HETATM   35  O5  UNL     1      30.729  25.654 -16.653  1.00  0.00    -0.179 OA
ATOM     36  H11 UNL     1      31.905  24.423 -15.512  1.00  0.00     0.196 HD
HETATM   37  C14 UNL     1      30.845  26.132 -17.885  1.00  0.00     0.388 A
HETATM   38  O6  UNL     1      29.972  26.885 -18.372  1.00  0.00    -0.236 OA
HETATM   39  N12 UNL     1      31.990  25.670 -18.423  1.00  0.00    -0.287 N
ATOM     40  H12 UNL     1      32.354  25.863 -19.356  1.00  0.00     0.172 HD
ENDBRANCH  27  33
ENDBRANCH  11  27
BRANCH   1  41
HETATM   41  O1  UNL     1      36.494  23.938 -16.647  1.00  0.00    -0.265 OA
BRANCH  41  42
HETATM   42  C2  UNL     1      36.552  24.433 -15.314  1.00  0.00     0.218 C
HETATM   43  C1  UNL     1      35.689  23.705 -14.278  1.00  0.00     0.117 C
BRANCH  42  44
HETATM   44  N1  UNL     1      37.232  25.350 -15.051  1.00  0.00    -0.312 NA
BRANCH  44  45
HETATM   45  N2  UNL     1      38.044  26.292 -14.767  1.00  0.00    -0.278 N
ATOM     46  H22 UNL     1      38.630  25.458 -14.727  1.00  0.00     0.191 HD
ATOM     47  H21 UNL     1      38.638  27.092 -14.548  1.00  0.00     0.191 HD
ENDBRANCH  44  45
ENDBRANCH  42  44
ENDBRANCH  41  42
ENDBRANCH   1  41
TORSDOF 12
ENDMDL