MODEL 1
REMARK VINA RESULT: -5.616536085      0.000      0.000
REMARK  15 active torsions:
REMARK  status: ('A' for Active; 'I' for Inactive)
REMARK    1  A    between atoms: C2_2  and  O1_3
REMARK    2  A    between atoms: C2_2  and  C3_5
REMARK    3  A    between atoms: C3_5  and  C4_6
REMARK    4  A    between atoms: C3_5  and  N3_18
REMARK    5  A    between atoms: C4_6  and  O2_7
REMARK    6  A    between atoms: C4_6  and  C5_9
REMARK    7  A    between atoms: C5_9  and  O3_10
REMARK    8  A    between atoms: C5_9  and  O4_12
REMARK    9  A    between atoms: O4_12  and  C6_13
REMARK   10  A    between atoms: C8_21  and  N4_22
REMARK   11  A    between atoms: N4_22  and  O6_24
REMARK   12  A    between atoms: C10_28  and  O7_29
REMARK   13  A    between atoms: C10_28  and  C11_31
REMARK   14  A    between atoms: C13_35  and  O10_37
REMARK   15  A    between atoms: N6_40  and  O11_42
ROOT
HETATM    1  N3  UNL     1      36.909  29.831 -21.217  1.00  0.00    -0.215 N
HETATM    2  C7  UNL     1      36.170  30.654 -20.402  1.00  0.00     0.297 A
HETATM    3  O5  UNL     1      35.364  30.308 -19.491  1.00  0.00    -0.264 OA
HETATM    4  C8  UNL     1      36.412  31.953 -20.695  1.00  0.00     0.154 A
HETATM    5  C9  UNL     1      37.333  31.931 -21.730  1.00  0.00     0.117 A
HETATM    6  N5  UNL     1      37.624  30.618 -22.034  1.00  0.00    -0.233 N
HETATM    7  C10 UNL     1      38.560  30.347 -23.054  1.00  0.00     0.246 C
HETATM    8  C12 UNL     1      39.049  31.564 -23.820  1.00  0.00     0.119 C
HETATM    9  C13 UNL     1      39.338  32.750 -22.925  1.00  0.00     0.105 C
HETATM   10  C14 UNL     1      40.220  32.431 -21.767  1.00  0.00     0.053 C
HETATM   11  C15 UNL     1      37.922  33.066 -22.429  1.00  0.00     0.097 C
HETATM   12  N6  UNL     1      37.427  34.183 -22.687  1.00  0.00    -0.268 N
ATOM     13  H6  UNL     1      38.032  34.831 -23.191  1.00  0.00     0.194 HD
ENDROOT
BRANCH   1  14
HETATM   14  C3  UNL     1      36.836  28.413 -21.123  1.00  0.00     0.077 C
BRANCH  14  15
HETATM   15  C2  UNL     1      37.549  27.779 -19.999  1.00  0.00     0.164 C
HETATM   16  C1  UNL     1      37.566  26.254 -20.250  1.00  0.00     0.046 C
BRANCH  15  17
HETATM   17  O1  UNL     1      36.702  27.852 -18.852  1.00  0.00    -0.390 OA
ATOM     18  H1  UNL     1      35.982  27.298 -19.127  1.00  0.00     0.210 HD
ENDBRANCH  15  17
ENDBRANCH  14  15
BRANCH  14  19
HETATM   19  C4  UNL     1      35.512  27.788 -21.518  1.00  0.00     0.224 C
BRANCH  19  20
HETATM   20  O2  UNL     1      34.596  27.902 -20.436  1.00  0.00    -0.385 OA
ATOM     21  H2  UNL     1      34.119  28.720 -20.514  1.00  0.00     0.210 HD
ENDBRANCH  19  20
BRANCH  19  22
HETATM   22  C5  UNL     1      34.793  28.584 -22.619  1.00  0.00     0.300 C
BRANCH  22  23
HETATM   23  O3  UNL     1      33.835  29.434 -22.147  1.00  0.00    -0.368 OA
ATOM     24  H3  UNL     1      34.133  29.991 -21.437  1.00  0.00     0.212 HD
ENDBRANCH  22  23
BRANCH  22  25
HETATM   25  O4  UNL     1      34.251  27.669 -23.578  1.00  0.00    -0.290 OA
BRANCH  25  26
HETATM   26  C6  UNL     1      35.073  27.151 -24.538  1.00  0.00     0.227 C
HETATM   27  N1  UNL     1      35.365  27.832 -25.576  1.00  0.00    -0.368 N
ATOM     28  H12 UNL     1      34.954  28.763 -25.639  1.00  0.00     0.159 HD
ATOM     29  H11 UNL     1      35.979  27.446 -26.293  1.00  0.00     0.159 HD
HETATM   30  N2  UNL     1      35.652  25.840 -24.448  1.00  0.00    -0.057 NA
ENDBRANCH  25  26
ENDBRANCH  22  25
ENDBRANCH  19  22
ENDBRANCH  14  19
ENDBRANCH   1  14
BRANCH   4  31
HETATM   31  N4  UNL     1      35.853  33.113 -20.061  1.00  0.00    -0.262 N
ATOM     32  H4  UNL     1      35.785  33.989 -20.579  1.00  0.00     0.194 HD
BRANCH  31  33
HETATM   33  O6  UNL     1      35.451  33.058 -18.886  1.00  0.00    -0.289 OA
ATOM     34  H6  UNL     1      35.919  32.543 -18.241  1.00  0.00     0.244 HD
ENDBRANCH  31  33
ENDBRANCH   4  31
BRANCH   7  35
HETATM   35  O7  UNL     1      39.784  29.794 -22.637  1.00  0.00    -0.361 OA
ATOM     36  H7  UNL     1      40.565  30.272 -22.890  1.00  0.00     0.213 HD
ENDBRANCH   7  35
BRANCH   7  37
HETATM   37  C11 UNL     1      38.034  29.520 -24.207  1.00  0.00     0.233 C
HETATM   38  O8  UNL     1      37.332  30.059 -25.069  1.00  0.00    -0.644 OA
HETATM   39  O9  UNL     1      38.342  28.171 -24.287  1.00  0.00    -0.644 OA
ENDBRANCH   7  37
BRANCH   9  40
HETATM   40  O10 UNL     1      39.789  33.786 -23.692  1.00  0.00    -0.384 OA
ATOM     41  H10 UNL     1      39.927  34.544 -23.138  1.00  0.00     0.211 HD
ENDBRANCH   9  40
BRANCH  12  42
HETATM   42  O11 UNL     1      36.212  34.636 -22.389  1.00  0.00    -0.290 OA
ATOM     43  H11 UNL     1      35.536  34.945 -22.981  1.00  0.00     0.244 HD
ENDBRANCH  12  42
TORSDOF 15
ENDMDL