MODEL 4
REMARK VINA RESULT: -6.716769633      3.354      9.978
REMARK  15 active torsions:
REMARK  status: ('A' for Active; 'I' for Inactive)
REMARK    1  A    between atoms: C1_2  and  C2_4
REMARK    2  A    between atoms: C4_8  and  C5_9
REMARK    3  A    between atoms: N1_10  and  N2_12
REMARK    4  A    between atoms: N2_12  and  C6_14
REMARK    5  A    between atoms: C7_16  and  C8_17
REMARK    6  A    between atoms: C8_17  and  O6_18
REMARK    7  A    between atoms: C9_20  and  C10_21
REMARK    8  A    between atoms: C10_21  and  O7_22
REMARK    9  A    between atoms: C10_21  and  O8_24
REMARK   10  A    between atoms: C11_26  and  C12_27
REMARK   11  A    between atoms: C12_27  and  O9_28
REMARK   12  A    between atoms: C12_27  and  O10_30
REMARK   13  A    between atoms: C13_32  and  O11_33
REMARK   14  A    between atoms: C14_35  and  O12_36
REMARK   15  A    between atoms: C16_40  and  O14_41
ROOT
HETATM    1  C6  UNL     1      38.268  32.367 -20.906  1.00  0.00     0.197 A
HETATM    2  O5  UNL     1      37.240  32.776 -20.203  1.00  0.00    -0.292 OA
HETATM    3  C7  UNL     1      36.891  34.056 -20.104  1.00  0.00     0.090 A
HETATM    4  C9  UNL     1      37.614  35.020 -20.750  1.00  0.00     0.042 A
HETATM    5  C11 UNL     1      38.695  34.620 -21.493  1.00  0.00     0.047 A
HETATM    6  C13 UNL     1      39.071  33.274 -21.605  1.00  0.00     0.130 A
ENDROOT
BRANCH   1   7
HETATM    7  N2  UNL     1      38.491  31.128 -20.919  1.00  0.00    -0.278 N
ATOM      8  H2  UNL     1      39.335  30.874 -21.431  1.00  0.00     0.189 HD
BRANCH   7   9
HETATM    9  N1  UNL     1      37.843  30.064 -20.392  1.00  0.00    -0.309 N
HETATM   10  C5  UNL     1      36.863  29.497 -20.943  1.00  0.00     0.127 C
ATOM     11  H1  UNL     1      38.167  29.700 -19.497  1.00  0.00     0.186 HD
BRANCH  10  12
HETATM   12  C4  UNL     1      36.089  28.367 -20.490  1.00  0.00     0.093 C
HETATM   13  C3  UNL     1      34.698  28.495 -20.522  1.00  0.00     0.303 C
HETATM   14  O3  UNL     1      33.784  27.879 -19.774  1.00  0.00    -0.265 OA
HETATM   15  O4  UNL     1      34.282  29.306 -21.381  1.00  0.00    -0.259 OA
HETATM   16  C2  UNL     1      33.893  26.773 -19.036  1.00  0.00     0.192 C
HETATM   17  C16 UNL     1      35.060  26.367 -18.422  1.00  0.00     0.160 C
HETATM   18  C15 UNL     1      36.326  26.449 -18.966  1.00  0.00     0.241 C
HETATM   19  C14 UNL     1      36.761  27.236 -20.050  1.00  0.00     0.137 C
HETATM   20  O13 UNL     1      37.226  25.756 -18.463  1.00  0.00    -0.282 OA
BRANCH  16  21
HETATM   21  C1  UNL     1      32.711  25.948 -18.872  1.00  0.00     0.237 C
HETATM   22  O1  UNL     1      32.385  25.250 -19.876  1.00  0.00    -0.642 OA
HETATM   23  O2  UNL     1      31.922  25.842 -17.767  1.00  0.00    -0.642 OA
ENDBRANCH  16  21
BRANCH  17  24
HETATM   24  O14 UNL     1      34.963  25.839 -17.168  1.00  0.00    -0.355 OA
ATOM     25  H14 UNL     1      35.643  26.062 -16.544  1.00  0.00     0.218 HD
ENDBRANCH  17  24
BRANCH  19  26
HETATM   26  O12 UNL     1      37.883  26.866 -20.688  1.00  0.00    -0.356 OA
ATOM     27  H12 UNL     1      38.705  26.891 -20.213  1.00  0.00     0.218 HD
ENDBRANCH  19  26
ENDBRANCH  10  12
ENDBRANCH   7   9
ENDBRANCH   1   7
BRANCH   6  28
HETATM   28  O11 UNL     1      40.116  32.809 -22.318  1.00  0.00    -0.356 OA
ATOM     29  H11 UNL     1      39.996  32.043 -22.867  1.00  0.00     0.218 HD
ENDBRANCH   6  28
BRANCH   3  30
HETATM   30  C8  UNL     1      35.716  34.399 -19.284  1.00  0.00     0.230 C
BRANCH  30  31
HETATM   31  O6  UNL     1      35.228  33.244 -18.610  1.00  0.00    -0.394 OA
ATOM     32  H6  UNL     1      35.951  32.730 -18.268  1.00  0.00     0.209 HD
ENDBRANCH  30  31
ENDBRANCH   3  30
BRANCH   5  33
HETATM   33  C12 UNL     1      39.522  35.580 -22.216  1.00  0.00     0.292 C
BRANCH  33  34
HETATM   34  O9  UNL     1      40.873  35.377 -21.820  1.00  0.00    -0.367 OA
ATOM     35  H9  UNL     1      40.961  35.680 -20.924  1.00  0.00     0.213 HD
ENDBRANCH  33  34
BRANCH  33  36
HETATM   36  O10 UNL     1      39.537  35.325 -23.598  1.00  0.00    -0.367 OA
ATOM     37  H10 UNL     1      38.935  35.889 -24.070  1.00  0.00     0.213 HD
ENDBRANCH  33  36
ENDBRANCH   5  33
BRANCH   4  38
HETATM   38  C10 UNL     1      37.211  36.410 -20.655  1.00  0.00     0.291 C
BRANCH  38  39
HETATM   39  O7  UNL     1      37.058  37.067 -21.892  1.00  0.00    -0.367 OA
ATOM     40  H7  UNL     1      36.962  38.011 -21.834  1.00  0.00     0.213 HD
ENDBRANCH  38  39
BRANCH  38  41
HETATM   41  O8  UNL     1      38.186  37.181 -19.943  1.00  0.00    -0.367 OA
ATOM     42  H8  UNL     1      38.044  38.111 -20.070  1.00  0.00     0.213 HD
ENDBRANCH  38  41
ENDBRANCH   4  38
TORSDOF 15
ENDMDL