MODEL 1
REMARK VINA RESULT: -7.552597092      0.000      0.000
REMARK  8 active torsions:
REMARK  status: ('A' for Active; 'I' for Inactive)
REMARK    1  A    between atoms: N3_5  and  C2_6
REMARK    2  A    between atoms: C2_6  and  C3_7
REMARK    3  A    between atoms: C3_7  and  O1_8
REMARK    4  A    between atoms: C3_7  and  C4_10
REMARK    5  A    between atoms: C4_10  and  O2_11
REMARK    6  A    between atoms: C4_10  and  O3_13
REMARK    7  A    between atoms: C7_19  and  C8_20
REMARK    8  A    between atoms: C9_23  and  N5_24
ROOT
HETATM    1  C8  UNL     1      35.128  27.480 -20.687  1.00  0.00     0.083 A
HETATM    2  N4  UNL     1      34.264  27.214 -19.693  1.00  0.00    -0.186 N
ATOM      3  H4  UNL     1      34.070  27.942 -19.006  1.00  0.00     0.184 HD
HETATM    4  C9  UNL     1      33.644  26.027 -19.566  1.00  0.00     0.722 A
HETATM    5  N9  UNL     1      33.906  25.076 -20.479  1.00  0.00    -0.172 N
ATOM      6  H9  UNL     1      33.436  24.176 -20.384  1.00  0.00     0.186 HD
HETATM    7  C11 UNL     1      34.755  25.244 -21.514  1.00  0.00     0.137 A
HETATM    8  N10 UNL     1      35.187  24.500 -22.530  1.00  0.00    -0.326 N
ATOM      9  H10 UNL     1      34.897  23.539 -22.712  1.00  0.00     0.169 HD
HETATM   10  C12 UNL     1      36.070  25.202 -23.293  1.00  0.00     0.132 A
HETATM   11  C13 UNL     1      36.201  26.465 -22.720  1.00  0.00     0.090 A
HETATM   12  C14 UNL     1      35.377  26.488 -21.607  1.00  0.00     0.067 A
HETATM   13  N11 UNL     1      37.118  27.213 -23.501  1.00  0.00    -0.370 N
ATOM     14  H11 UNL     1      37.307  28.211 -23.402  1.00  0.00     0.161 HD
HETATM   15  C15 UNL     1      37.742  26.331 -24.458  1.00  0.00     0.245 C
HETATM   16  N12 UNL     1      36.910  25.171 -24.433  1.00  0.00    -0.358 N
ATOM     17  H12 UNL     1      36.919  24.430 -25.132  1.00  0.00     0.162 HD
ENDROOT
BRANCH   1  18
HETATM   18  C7  UNL     1      35.760  28.802 -20.750  1.00  0.00     0.090 A
HETATM   19  C1  UNL     1      35.023  29.871 -21.243  1.00  0.00     0.147 A
HETATM   20  N1  UNL     1      33.682  29.672 -21.673  1.00  0.00    -0.080 NA
HETATM   21  N2  UNL     1      35.608  31.084 -21.300  1.00  0.00    -0.282 N
HETATM   22  N3  UNL     1      36.844  31.281 -20.907  1.00  0.00    -0.250 N
ATOM     23  H2  UNL     1      35.074  31.875 -21.660  1.00  0.00     0.188 HD
HETATM   24  C5  UNL     1      37.594  30.276 -20.423  1.00  0.00     0.313 A
HETATM   25  O4  UNL     1      38.797  30.500 -20.047  1.00  0.00    -0.262 OA
HETATM   26  C6  UNL     1      37.046  29.022 -20.344  1.00  0.00     0.256 A
HETATM   27  O5  UNL     1      37.731  28.069 -19.896  1.00  0.00    -0.281 OA
BRANCH  22  28
HETATM   28  C2  UNL     1      37.413  32.618 -20.996  1.00  0.00     0.189 C
BRANCH  28  29
HETATM   29  C3  UNL     1      36.270  33.619 -20.888  1.00  0.00     0.192 C
BRANCH  29  30
HETATM   30  O1  UNL     1      36.599  34.691 -21.714  1.00  0.00    -0.389 OA
ATOM     31  H1  UNL     1      36.753  35.437 -21.145  1.00  0.00     0.210 HD
ENDBRANCH  29  30
BRANCH  29  32
HETATM   32  C4  UNL     1      36.202  34.059 -19.440  1.00  0.00     0.284 C
BRANCH  32  33
HETATM   33  O2  UNL     1      35.256  33.273 -18.775  1.00  0.00    -0.369 OA
ATOM     34  H2  UNL     1      35.446  32.358 -18.943  1.00  0.00     0.212 HD
ENDBRANCH  32  33
BRANCH  32  35
HETATM   35  O3  UNL     1      35.874  35.400 -19.355  1.00  0.00    -0.369 OA
ATOM     36  H3  UNL     1      35.219  35.541 -18.682  1.00  0.00     0.212 HD
ENDBRANCH  32  35
ENDBRANCH  29  32
ENDBRANCH  28  29
ENDBRANCH  22  28
ENDBRANCH   1  18
BRANCH   4  37
HETATM   37  N5  UNL     1      32.730  25.766 -18.502  1.00  0.00    -0.004 N
HETATM   38  N6  UNL     1      31.642  26.491 -18.299  1.00  0.00    -0.258 N
HETATM   39  C10 UNL     1      30.976  26.011 -17.225  1.00  0.00     0.218 A
ATOM     40  H6  UNL     1      31.351  27.288 -18.864  1.00  0.00     0.190 HD
HETATM   41  N7  UNL     1      31.713  24.968 -16.795  1.00  0.00    -0.279 N
HETATM   42  N8  UNL     1      32.765  24.836 -17.577  1.00  0.00    -0.205 N
ATOM     43  H7  UNL     1      31.492  24.376 -15.994  1.00  0.00     0.189 HD
ATOM     44  H8  UNL     1      33.491  24.126 -17.480  1.00  0.00     0.211 HD
ENDBRANCH   4  37
TORSDOF 8
ENDMDL