MODEL 1
REMARK VINA RESULT: -7.663960920      0.000      0.000
REMARK  13 active torsions:
REMARK  status: ('A' for Active; 'I' for Inactive)
REMARK    1  A    between atoms: C1_2  and  C2_3
REMARK    2  A    between atoms: C1_2  and  O3_6
REMARK    3  A    between atoms: C2_3  and  O2_4
REMARK    4  A    between atoms: O3_6  and  N1_7
REMARK    5  A    between atoms: N1_7  and  C3_9
REMARK    6  A    between atoms: C4_14  and  N4_15
REMARK    7  A    between atoms: N4_15  and  C5_17
REMARK    8  A    between atoms: C9_21  and  C10_22
REMARK    9  A    between atoms: C10_22  and  O4_23
REMARK   10  A    between atoms: C10_22  and  N5_25
REMARK   11  A    between atoms: C12_32  and  C13_33
REMARK   12  A    between atoms: C13_33  and  O5_34
REMARK   13  A    between atoms: C13_33  and  O6_36
ROOT
HETATM    1  C5  UNL     1      33.095  24.984 -17.332  1.00  0.00     0.107 A
HETATM    2  C6  UNL     1      31.967  25.737 -17.673  1.00  0.00     0.048 A
HETATM    3  C7  UNL     1      30.807  25.603 -16.962  1.00  0.00     0.006 A
HETATM    4  C8  UNL     1      30.791  24.718 -15.916  1.00  0.00     0.029 A
HETATM    5  C9  UNL     1      31.905  23.972 -15.572  1.00  0.00     0.059 A
HETATM    6  N8  UNL     1      33.019  24.132 -16.296  1.00  0.00    -0.342 N
ATOM      7  H8  UNL     1      33.844  23.585 -16.052  1.00  0.00     0.167 HD
ENDROOT
BRANCH   1   8
HETATM    8  N4  UNL     1      34.278  25.139 -18.109  1.00  0.00    -0.323 N
ATOM      9  H4  UNL     1      34.945  24.371 -18.184  1.00  0.00     0.169 HD
BRANCH   8  10
HETATM   10  C4  UNL     1      34.505  26.251 -18.718  1.00  0.00     0.192 A
HETATM   11  N3  UNL     1      34.958  27.310 -18.055  1.00  0.00    -0.267 N
HETATM   12  N2  UNL     1      35.219  28.449 -18.679  1.00  0.00    -0.129 N
ATOM     13  H3  UNL     1      35.108  27.245 -17.048  1.00  0.00     0.189 HD
HETATM   14  C3  UNL     1      35.013  28.518 -20.011  1.00  0.00     0.720 A
ATOM     15  H2  UNL     1      35.569  29.257 -18.164  1.00  0.00     0.205 HD
HETATM   16  N9  UNL     1      34.555  27.477 -20.714  1.00  0.00    -0.150 N
HETATM   17  C14 UNL     1      34.296  26.322 -20.072  1.00  0.00     0.305 A
ATOM     18  H9  UNL     1      34.405  27.556 -21.720  1.00  0.00     0.188 HD
HETATM   19  O7  UNL     1      33.859  25.317 -20.737  1.00  0.00    -0.263 OA
BRANCH  14  20
HETATM   20  N1  UNL     1      35.306  29.720 -20.679  1.00  0.00    -0.086 N
ATOM     21  H1  UNL     1      35.554  29.722 -21.668  1.00  0.00     0.214 HD
BRANCH  20  22
HETATM   22  O3  UNL     1      35.249  30.891 -19.965  1.00  0.00    -0.182 OA
BRANCH  22  23
HETATM   23  C1  UNL     1      36.042  31.955 -20.445  1.00  0.00     0.304 C
HETATM   24  O1  UNL     1      36.836  31.699 -21.381  1.00  0.00    -0.261 OA
BRANCH  23  25
HETATM   25  C2  UNL     1      35.967  33.323 -19.889  1.00  0.00     0.277 C
BRANCH  25  26
HETATM   26  O2  UNL     1      35.277  33.267 -18.680  1.00  0.00    -0.391 OA
ATOM     27  H2  UNL     1      34.347  33.228 -18.868  1.00  0.00     0.210 HD
ENDBRANCH  25  26
ENDBRANCH  23  25
ENDBRANCH  22  23
ENDBRANCH  20  22
ENDBRANCH  14  20
ENDBRANCH   8  10
ENDBRANCH   1   8
BRANCH   5  28
HETATM   28  C10 UNL     1      31.808  23.040 -14.438  1.00  0.00     0.270 C
BRANCH  28  29
HETATM   29  O4  UNL     1      30.845  23.522 -13.515  1.00  0.00    -0.371 OA
ATOM     30  H4  UNL     1      31.190  23.447 -12.634  1.00  0.00     0.212 HD
ENDBRANCH  28  29
BRANCH  28  31
HETATM   31  N5  UNL     1      33.061  22.761 -13.781  1.00  0.00    -0.338 N
HETATM   32  C11 UNL     1      33.106  21.768 -12.926  1.00  0.00     0.163 A
HETATM   33  N6  UNL     1      34.173  21.367 -12.230  1.00  0.00    -0.279 N
HETATM   34  S1  UNL     1      31.917  20.672 -12.379  1.00  0.00    -0.033 SA
HETATM   35  N7  UNL     1      34.053  20.391 -11.430  1.00  0.00    -0.291 N
ATOM     36  H6  UNL     1      35.070  21.840 -12.340  1.00  0.00     0.189 HD
HETATM   37  C12 UNL     1      32.892  19.778 -11.285  1.00  0.00     0.124 A
ATOM     38  H7  UNL     1      34.861  20.076 -10.893  1.00  0.00     0.187 HD
ATOM     39  H5  UNL     1      33.891  23.321 -13.977  1.00  0.00     0.164 HD
BRANCH  37  40
HETATM   40  C13 UNL     1      32.490  18.610 -10.415  1.00  0.00     0.314 C
BRANCH  40  41
HETATM   41  O5  UNL     1      33.569  18.327  -9.593  1.00  0.00    -0.365 OA
ATOM     42  H5  UNL     1      33.216  18.025  -8.765  1.00  0.00     0.213 HD
ENDBRANCH  40  41
BRANCH  40  43
HETATM   43  O6  UNL     1      31.356  19.012  -9.700  1.00  0.00    -0.365 OA
ATOM     44  H6  UNL     1      31.635  19.155  -8.803  1.00  0.00     0.213 HD
ENDBRANCH  40  43
ENDBRANCH  37  40
ENDBRANCH  28  31
ENDBRANCH   5  28
TORSDOF 13
ENDMDL