MODEL 1
REMARK VINA RESULT: -7.297564190      0.000      0.000
REMARK  11 active torsions:
REMARK  status: ('A' for Active; 'I' for Inactive)
REMARK    1  A    between atoms: N1_1  and  C1_4
REMARK    2  A    between atoms: C2_5  and  N2_6
REMARK    3  A    between atoms: N3_9  and  C3_10
REMARK    4  A    between atoms: C3_10  and  C4_11
REMARK    5  A    between atoms: C4_11  and  O1_12
REMARK    6  A    between atoms: C4_11  and  C5_14
REMARK    7  A    between atoms: C8_17  and  N4_18
REMARK    8  A    between atoms: C14_34  and  C15_35
REMARK    9  A    between atoms: C15_35  and  O3_36
REMARK   10  A    between atoms: N11_38  and  O4_40
REMARK   11  A    between atoms: N12_42  and  O5_43
ROOT
HETATM    1  C1  UNL     1      38.855  32.150 -21.991  1.00  0.00     0.171 A
HETATM    2  C2  UNL     1      38.318  30.903 -22.260  1.00  0.00     0.149 A
HETATM    3  N3  UNL     1      37.099  30.552 -21.759  1.00  0.00    -0.311 N
HETATM    4  C13 UNL     1      36.431  31.456 -20.990  1.00  0.00     0.154 A
HETATM    5  N10 UNL     1      35.172  31.102 -20.441  1.00  0.00    -0.080 NA
HETATM    6  C14 UNL     1      36.941  32.698 -20.708  1.00  0.00     0.158 A
HETATM    7  N12 UNL     1      38.138  33.015 -21.215  1.00  0.00    -0.197 N
ENDROOT
BRANCH   3   8
HETATM    8  C3  UNL     1      36.530  29.275 -22.061  1.00  0.00     0.197 C
BRANCH   8   9
HETATM    9  C4  UNL     1      36.953  28.122 -21.246  1.00  0.00     0.073 C
BRANCH   9  10
HETATM   10  O1  UNL     1      38.176  28.274 -20.580  1.00  0.00    -0.362 OA
ATOM     11  H1  UNL     1      38.228  27.864 -19.725  1.00  0.00     0.217 HD
ENDBRANCH   9  10
BRANCH   9  12
HETATM   12  C5  UNL     1      35.941  27.490 -20.410  1.00  0.00     0.010 A
HETATM   13  C6  UNL     1      35.846  27.836 -19.078  1.00  0.00     0.019 A
HETATM   14  C7  UNL     1      34.884  27.289 -18.267  1.00  0.00     0.050 A
HETATM   15  C8  UNL     1      33.975  26.366 -18.766  1.00  0.00     0.118 A
HETATM   16  N9  UNL     1      34.062  26.023 -20.061  1.00  0.00    -0.351 N
HETATM   17  C12 UNL     1      35.004  26.557 -20.858  1.00  0.00     0.103 A
ATOM     18  H9  UNL     1      33.404  25.346 -20.447  1.00  0.00     0.166 HD
BRANCH  15  19
HETATM   19  N4  UNL     1      32.991  25.818 -17.897  1.00  0.00    -0.222 N
HETATM   20  C9  UNL     1      33.228  24.714 -17.164  1.00  0.00     0.206 A
HETATM   21  N5  UNL     1      34.507  24.085 -17.271  1.00  0.00    -0.062 NA
HETATM   22  N6  UNL     1      32.302  24.199 -16.346  1.00  0.00    -0.304 N
HETATM   23  C10 UNL     1      31.084  24.766 -16.220  1.00  0.00     0.198 A
ATOM     24  H6  UNL     1      32.520  23.361 -15.808  1.00  0.00     0.171 HD
HETATM   25  N7  UNL     1      30.085  24.234 -15.355  1.00  0.00    -0.063 NA
HETATM   26  N8  UNL     1      30.859  25.868 -16.957  1.00  0.00    -0.282 N
HETATM   27  C11 UNL     1      31.779  26.390 -17.778  1.00  0.00     0.337 A
ATOM     28  H8  UNL     1      29.950  26.326 -16.888  1.00  0.00     0.173 HD
HETATM   29  O2  UNL     1      31.551  27.414 -18.454  1.00  0.00    -0.246 OA
ENDBRANCH  15  19
ENDBRANCH   9  12
ENDBRANCH   8   9
ENDBRANCH   3   8
BRANCH   2  30
HETATM   30  N2  UNL     1      38.949  30.017 -22.940  1.00  0.00    -0.382 N
ATOM     31  H22 UNL     1      38.538  29.733 -23.829  1.00  0.00     0.157 HD
ATOM     32  H21 UNL     1      39.805  29.578 -22.601  1.00  0.00     0.157 HD
ENDBRANCH   2  30
BRANCH   1  33
HETATM   33  N1  UNL     1      39.998  32.518 -22.448  1.00  0.00    -0.381 N
ATOM     34  H12 UNL     1      40.290  32.200 -23.372  1.00  0.00     0.157 HD
ATOM     35  H11 UNL     1      40.629  33.119 -21.918  1.00  0.00     0.157 HD
ENDBRANCH   1  33
BRANCH   6  36
HETATM   36  C15 UNL     1      36.244  33.676 -19.884  1.00  0.00     0.193 C
HETATM   37  N11 UNL     1      36.296  34.940 -20.217  1.00  0.00    -0.245 N
ATOM     38  H11 UNL     1      36.828  35.195 -21.050  1.00  0.00     0.196 HD
BRANCH  36  39
HETATM   39  O3  UNL     1      35.514  33.380 -18.757  1.00  0.00    -0.343 OA
ATOM     40  H3  UNL     1      34.685  33.782 -18.523  1.00  0.00     0.219 HD
ENDBRANCH  36  39
BRANCH  37  41
HETATM   41  O4  UNL     1      35.686  35.929 -19.526  1.00  0.00    -0.288 OA
ATOM     42  H4  UNL     1      34.776  36.173 -19.639  1.00  0.00     0.244 HD
ENDBRANCH  37  41
ENDBRANCH   6  36
BRANCH   7  43
HETATM   43  O5  UNL     1      38.679  34.237 -20.962  1.00  0.00    -0.280 OA
ATOM     44  H5  UNL     1      39.206  34.335 -20.177  1.00  0.00     0.245 HD
ENDBRANCH   7  43
TORSDOF 11
ENDMDL