MODEL 4
REMARK VINA RESULT: -5.853136631      1.027      1.124
REMARK  15 active torsions:
REMARK  status: ('A' for Active; 'I' for Inactive)
REMARK    1  A    between atoms: O1_2  and  C2_3
REMARK    2  A    between atoms: C2_3  and  O3_5
REMARK    3  A    between atoms: O3_5  and  C3_6
REMARK    4  A    between atoms: C3_6  and  C4_10
REMARK    5  A    between atoms: C4_10  and  O4_11
REMARK    6  A    between atoms: C4_10  and  C15_40
REMARK    7  A    between atoms: O4_11  and  N2_12
REMARK    8  A    between atoms: N2_12  and  C5_13
REMARK    9  A    between atoms: C8_16  and  O5_17
REMARK   10  A    between atoms: N4_21  and  C10_22
REMARK   11  A    between atoms: C10_22  and  C11_23
REMARK   12  A    between atoms: C11_23  and  N5_24
REMARK   13  A    between atoms: C11_23  and  O6_28
REMARK   14  A    between atoms: C14_35  and  O8_36
REMARK   15  A    between atoms: C14_35  and  O9_38
ROOT
HETATM    1  C5  UNL     1      38.542  29.252 -20.669  1.00  0.00     0.198 C
HETATM    2  C6  UNL     1      38.275  30.573 -21.287  1.00  0.00     0.106 A
HETATM    3  C7  UNL     1      39.083  30.986 -22.331  1.00  0.00     0.084 A
HETATM    4  C8  UNL     1      38.840  32.212 -22.913  1.00  0.00     0.135 A
HETATM    5  C9  UNL     1      37.789  32.984 -22.424  1.00  0.00     0.157 A
HETATM    6  N3  UNL     1      37.611  34.239 -23.082  1.00  0.00    -0.079 NA
HETATM    7  N4  UNL     1      37.006  32.580 -21.410  1.00  0.00    -0.295 N
HETATM    8  C12 UNL     1      37.243  31.385 -20.843  1.00  0.00     0.265 A
HETATM    9  O7  UNL     1      36.546  30.957 -19.895  1.00  0.00    -0.267 OA
HETATM   10  N6  UNL     1      40.131  30.129 -22.764  1.00  0.00    -0.381 N
ATOM     11  H6  UNL     1      40.757  30.461 -23.497  1.00  0.00     0.160 HD
HETATM   12  C13 UNL     1      40.349  28.817 -22.220  1.00  0.00     0.196 C
HETATM   13  C14 UNL     1      39.981  28.816 -20.774  1.00  0.00     0.237 C
ENDROOT
BRANCH   1  14
HETATM   14  N2  UNL     1      37.648  28.637 -20.155  1.00  0.00    -0.278 NA
BRANCH  14  15
HETATM   15  O4  UNL     1      36.717  27.997 -19.619  1.00  0.00    -0.184 OA
BRANCH  15  16
HETATM   16  C4  UNL     1      35.619  27.259 -20.007  1.00  0.00     0.342 C
BRANCH  16  17
HETATM   17  C3  UNL     1      34.963  27.909 -21.214  1.00  0.00     0.167 C
HETATM   18  N1  UNL     1      34.504  29.052 -21.166  1.00  0.00    -0.380 N
ATOM     19  H12 UNL     1      34.065  29.488 -21.976  1.00  0.00     0.158 HD
ATOM     20  H11 UNL     1      34.541  29.618 -20.319  1.00  0.00     0.158 HD
BRANCH  17  21
HETATM   21  O3  UNL     1      34.914  27.141 -22.367  1.00  0.00    -0.239 OA
BRANCH  21  22
HETATM   22  C2  UNL     1      34.762  27.601 -23.645  1.00  0.00     0.412 C
HETATM   23  O2  UNL     1      33.796  27.217 -24.324  1.00  0.00    -0.229 OA
BRANCH  22  24
HETATM   24  O1  UNL     1      35.649  28.491 -24.230  1.00  0.00    -0.303 OA
HETATM   25  C1  UNL     1      37.054  28.351 -24.126  1.00  0.00     0.215 C
ENDBRANCH  22  24
ENDBRANCH  21  22
ENDBRANCH  17  21
ENDBRANCH  16  17
BRANCH  16  26
HETATM   26  C15 UNL     1      34.552  27.169 -18.996  1.00  0.00     0.215 C
HETATM   27  O10 UNL     1      34.858  27.057 -17.791  1.00  0.00    -0.646 OA
HETATM   28  O11 UNL     1      33.219  27.204 -19.345  1.00  0.00    -0.646 OA
ENDBRANCH  16  26
ENDBRANCH  15  16
ENDBRANCH  14  15
ENDBRANCH   1  14
BRANCH  13  29
HETATM   29  O8  UNL     1      40.189  27.596 -20.151  1.00  0.00    -0.358 OA
ATOM     30  H8  UNL     1      39.944  26.871 -20.714  1.00  0.00     0.213 HD
ENDBRANCH  13  29
BRANCH  13  31
HETATM   31  O9  UNL     1      40.742  29.763 -20.108  1.00  0.00    -0.358 OA
ATOM     32  H9  UNL     1      41.313  30.165 -20.752  1.00  0.00     0.213 HD
ENDBRANCH  13  31
BRANCH   4  33
HETATM   33  O5  UNL     1      39.643  32.628 -23.953  1.00  0.00    -0.356 OA
ATOM     34  H5  UNL     1      40.125  33.442 -23.865  1.00  0.00     0.218 HD
ENDBRANCH   4  33
BRANCH   7  35
HETATM   35  C10 UNL     1      35.924  33.447 -20.963  1.00  0.00     0.194 C
BRANCH  35  36
HETATM   36  C11 UNL     1      36.152  33.941 -19.537  1.00  0.00     0.334 C
BRANCH  36  37
HETATM   37  N5  UNL     1      36.106  35.385 -19.571  1.00  0.00    -0.051 N
ATOM     38  H53 UNL     1      36.325  35.812 -18.671  1.00  0.00     0.277 HD
ATOM     39  H52 UNL     1      36.873  35.796 -20.102  1.00  0.00     0.277 HD
ATOM     40  H51 UNL     1      35.188  35.649 -19.926  1.00  0.00     0.277 HD
ENDBRANCH  36  37
BRANCH  36  41
HETATM   41  O6  UNL     1      35.273  33.377 -18.645  1.00  0.00    -0.369 OA
ATOM     42  H6  UNL     1      34.514  33.929 -18.491  1.00  0.00     0.212 HD
ENDBRANCH  36  41
ENDBRANCH  35  36
ENDBRANCH   7  35
TORSDOF 15
ENDMDL