MODEL 4
REMARK VINA RESULT: -6.186797414      4.790      8.177
REMARK  10 active torsions:
REMARK  status: ('A' for Active; 'I' for Inactive)
REMARK    1  A    between atoms: N1_1  and  C1_4
REMARK    2  A    between atoms: C4_11  and  N4_12
REMARK    3  A    between atoms: N5_15  and  C5_16
REMARK    4  A    between atoms: C7_19  and  O4_20
REMARK    5  A    between atoms: C7_19  and  C9_26
REMARK    6  A    between atoms: O4_20  and  C8_21
REMARK    7  A    between atoms: C8_21  and  N6_22
REMARK    8  A    between atoms: C10_32  and  C11_33
REMARK    9  A    between atoms: C12_36  and  N9_37
REMARK   10  A    between atoms: C13_42  and  N11_43
ROOT
HETATM    1  C1  UNL     1      31.308  25.583 -17.015  1.00  0.00     0.678 A
HETATM    2  N2  UNL     1      32.275  25.969 -17.865  1.00  0.00    -0.174 N
ATOM      3  H2  UNL     1      32.064  26.688 -18.558  1.00  0.00     0.186 HD
HETATM    4  C2  UNL     1      33.513  25.440 -17.833  1.00  0.00     0.157 A
HETATM    5  C3  UNL     1      33.765  24.470 -16.881  1.00  0.00     0.112 A
HETATM    6  N3  UNL     1      35.042  24.147 -17.093  1.00  0.00    -0.318 N
ATOM      7  H3  UNL     1      35.555  23.448 -16.556  1.00  0.00     0.169 HD
HETATM    8  C4  UNL     1      35.577  24.873 -18.124  1.00  0.00     0.256 A
HETATM    9  N5  UNL     1      34.638  25.677 -18.588  1.00  0.00    -0.265 N
HETATM   10  C10 UNL     1      32.803  24.054 -16.001  1.00  0.00     0.124 A
HETATM   11  N13 UNL     1      31.576  24.640 -16.103  1.00  0.00    -0.186 N
ATOM     12  H13 UNL     1      30.837  24.351 -15.462  1.00  0.00     0.184 HD
ENDROOT
BRANCH   9  13
HETATM   13  C5  UNL     1      34.661  26.622 -19.630  1.00  0.00     0.326 C
HETATM   14  C6  UNL     1      35.083  26.177 -20.989  1.00  0.00     0.229 C
HETATM   15  O3  UNL     1      34.829  27.404 -21.661  1.00  0.00    -0.321 OA
HETATM   16  C7  UNL     1      35.483  28.335 -20.859  1.00  0.00     0.433 C
HETATM   17  N7  UNL     1      35.401  27.825 -19.466  1.00  0.00     0.017 N
ATOM     18  H72 UNL     1      35.012  28.482 -18.789  1.00  0.00     0.287 HD
ATOM     19  H71 UNL     1      36.298  27.718 -18.993  1.00  0.00     0.287 HD
BRANCH  16  20
HETATM   20  O4  UNL     1      36.805  28.421 -21.164  1.00  0.00    -0.297 OA
BRANCH  20  21
HETATM   21  C8  UNL     1      37.709  28.614 -20.171  1.00  0.00     0.402 C
BRANCH  21  22
HETATM   22  N6  UNL     1      38.225  30.004 -20.199  1.00  0.00    -0.058 N
ATOM     23  H63 UNL     1      37.647  30.633 -19.643  1.00  0.00     0.276 HD
ATOM     24  H62 UNL     1      39.096  30.094 -19.676  1.00  0.00     0.276 HD
ATOM     25  H61 UNL     1      38.325  30.331 -21.160  1.00  0.00     0.276 HD
ENDBRANCH  21  22
ENDBRANCH  20  21
ENDBRANCH  16  20
BRANCH  16  26
HETATM   26  C9  UNL     1      34.721  29.599 -20.936  1.00  0.00     0.271 C
HETATM   27  O5  UNL     1      33.682  29.713 -21.659  1.00  0.00    -0.642 OA
HETATM   28  O6  UNL     1      35.099  30.713 -20.233  1.00  0.00    -0.642 OA
ENDBRANCH  16  26
ENDBRANCH   9  13
BRANCH   8  29
HETATM   29  N4  UNL     1      36.919  24.669 -18.496  1.00  0.00    -0.079 N
HETATM   30  O1  UNL     1      37.738  25.617 -18.543  1.00  0.00    -0.529 OA
HETATM   31  O2  UNL     1      37.412  23.454 -18.825  1.00  0.00    -0.529 OA
ENDBRANCH   8  29
BRANCH   1  32
HETATM   32  N1  UNL     1      30.117  26.077 -17.032  1.00  0.00    -0.234 N
ATOM     33  H12 UNL     1      29.335  25.423 -17.042  1.00  0.00     0.174 HD
ATOM     34  H11 UNL     1      29.931  27.079 -17.036  1.00  0.00     0.174 HD
ENDBRANCH   1  32
BRANCH  10  35
HETATM   35  C11 UNL     1      33.036  23.040 -14.991  1.00  0.00     0.166 A
HETATM   36  N8  UNL     1      32.128  22.012 -14.911  1.00  0.00    -0.173 N
HETATM   37  C12 UNL     1      32.237  21.024 -14.024  1.00  0.00     0.692 A
ATOM     38  H8  UNL     1      31.338  22.005 -15.556  1.00  0.00     0.186 HD
HETATM   39  N10 UNL     1      33.278  21.010 -13.156  1.00  0.00    -0.023 N
HETATM   40  C13 UNL     1      34.181  21.997 -13.207  1.00  0.00     0.692 A
ATOM     41  H10 UNL     1      33.372  20.258 -12.473  1.00  0.00     0.203 HD
HETATM   42  N12 UNL     1      34.039  22.989 -14.124  1.00  0.00    -0.173 N
ATOM     43  H12 UNL     1      34.738  23.731 -14.147  1.00  0.00     0.186 HD
BRANCH  37  44
HETATM   44  N9  UNL     1      31.352  20.093 -14.003  1.00  0.00    -0.234 N
ATOM     45  H92 UNL     1      30.992  19.736 -13.119  1.00  0.00     0.174 HD
ATOM     46  H91 UNL     1      31.008  19.708 -14.883  1.00  0.00     0.174 HD
ENDBRANCH  37  44
BRANCH  40  47
HETATM   47  N11 UNL     1      35.168  21.985 -12.384  1.00  0.00    -0.234 N
ATOM     48 2H11 UNL     1      36.038  22.474 -12.593  1.00  0.00     0.174 HD
ATOM     49 1H11 UNL     1      35.075  21.475 -11.505  1.00  0.00     0.174 HD
ENDBRANCH  40  47
ENDBRANCH  10  35
TORSDOF 10
ENDMDL