MODEL 5
REMARK VINA RESULT: -8.503010436      1.812      3.238
REMARK  5 active torsions:
REMARK  status: ('A' for Active; 'I' for Inactive)
REMARK       I    between atoms: C1_2  and  N1_3
REMARK       I    between atoms: C1_2  and  N3_21
REMARK    1  A    between atoms: N1_3  and  C2_5
REMARK    2  A    between atoms: C5_8  and  N2_9
REMARK       I    between atoms: N2_9  and  C6_11
REMARK    3  A    between atoms: C6_11  and  C7_13
REMARK    4  A    between atoms: N3_21  and  C15_23
REMARK    5  A    between atoms: C20_29  and  C21_30
ROOT
HETATM    1  O1  UNL     1      11.809  22.814  32.827  1.00  0.00    -0.247 OA
HETATM    2  C1  UNL     1      12.712  23.587  33.164  1.00  0.00     0.325 C
HETATM    3  N1  UNL     1      13.959  23.040  33.547  1.00  0.00    -0.309 N
ATOM      4  H1  UNL     1      14.679  23.708  33.823  1.00  0.00     0.170 HD
HETATM    5  N3  UNL     1      12.521  24.972  33.171  1.00  0.00    -0.308 N
ATOM      6  H3  UNL     1      13.329  25.524  33.461  1.00  0.00     0.170 HD
ENDROOT
BRANCH   3   7
HETATM    7  C2  UNL     1      14.320  21.682  33.590  1.00  0.00     0.036 A
HETATM    8  C3  UNL     1      15.173  21.029  32.750  1.00  0.00     0.032 A
HETATM    9  C4  UNL     1      15.443  19.652  32.877  1.00  0.00     0.032 A
HETATM   10  C5  UNL     1      14.881  18.875  33.842  1.00  0.00     0.035 A
HETATM   11  C13 UNL     1      13.997  19.546  34.717  1.00  0.00     0.032 A
HETATM   12  C14 UNL     1      13.737  20.879  34.589  1.00  0.00     0.032 A
BRANCH  10  13
HETATM   13  N2  UNL     1      15.114  17.495  34.060  1.00  0.00    -0.323 N
HETATM   14  C6  UNL     1      14.111  16.548  34.207  1.00  0.00     0.256 C
HETATM   15  O2  UNL     1      12.902  16.857  34.148  1.00  0.00    -0.267 OA
ATOM     16  H2  UNL     1      16.081  17.177  34.112  1.00  0.00     0.169 HD
BRANCH  14  17
HETATM   17  C7  UNL     1      14.394  15.115  34.443  1.00  0.00     0.032 A
HETATM   18  C8  UNL     1      15.619  14.565  34.199  1.00  0.00     0.017 A
HETATM   19  C9  UNL     1      15.862  13.208  34.430  1.00  0.00     0.001 A
HETATM   20  C10 UNL     1      14.883  12.377  34.910  1.00  0.00     0.000 A
HETATM   21  C11 UNL     1      13.650  12.924  35.158  1.00  0.00     0.001 A
HETATM   22  C12 UNL     1      13.409  14.261  34.930  1.00  0.00     0.017 A
ENDBRANCH  14  17
ENDBRANCH  10  13
ENDBRANCH   3   7
BRANCH   5  23
HETATM   23  C15 UNL     1      11.377  25.710  32.838  1.00  0.00     0.047 A
HETATM   24  C16 UNL     1      11.167  26.185  31.560  1.00  0.00     0.033 A
HETATM   25  C17 UNL     1       9.978  26.850  31.281  1.00  0.00     0.044 A
HETATM   26  C18 UNL     1       9.015  27.044  32.236  1.00  0.00     0.117 A
HETATM   27  F1  UNL     1       7.859  27.703  31.920  1.00  0.00    -0.206 F
HETATM   28  C19 UNL     1       9.233  26.571  33.497  1.00  0.00     0.056 A
HETATM   29  C20 UNL     1      10.405  25.902  33.825  1.00  0.00     0.004 A
BRANCH  29  30
HETATM   30  C21 UNL     1      10.621  25.461  35.197  1.00  0.00    -0.024 A
HETATM   31  C22 UNL     1      11.461  26.177  36.018  1.00  0.00     0.012 A
HETATM   32  C23 UNL     1      11.731  25.768  37.322  1.00  0.00     0.001 A
HETATM   33  C24 UNL     1      11.152  24.625  37.807  1.00  0.00     0.000 A
HETATM   34  C25 UNL     1      10.313  23.903  36.997  1.00  0.00     0.001 A
HETATM   35  C26 UNL     1      10.053  24.320  35.707  1.00  0.00     0.012 A
ENDBRANCH  29  30
ENDBRANCH   5  23
TORSDOF 5
ENDMDL