MODEL 5
REMARK VINA RESULT: -9.367779231      2.516      8.079
REMARK  5 active torsions:
REMARK  status: ('A' for Active; 'I' for Inactive)
REMARK       I    between atoms: C1_2  and  N2_4
REMARK    1  A    between atoms: N2_4  and  C2_6
REMARK    2  A    between atoms: C7_11  and  C8_12
REMARK       I    between atoms: C8_12  and  N3_14
REMARK    3  A    between atoms: N3_14  and  C9_16
REMARK    4  A    between atoms: C19_26  and  O3_27
REMARK    5  A    between atoms: O3_27  and  C20_28
ROOT
HETATM    1  C9  UNL     1      11.719  24.264  32.894  1.00  0.00     0.035 A
HETATM    2  C10 UNL     1      12.285  25.550  32.980  1.00  0.00     0.029 A
HETATM    3  C11 UNL     1      11.512  26.670  33.181  1.00  0.00     0.003 A
HETATM    4  C12 UNL     1      10.142  26.588  33.309  1.00  0.00     0.012 A
HETATM    5  C13 UNL     1       9.568  25.341  33.229  1.00  0.00    -0.021 A
HETATM    6  C14 UNL     1       8.143  25.225  33.360  1.00  0.00     0.008 A
HETATM    7  C15 UNL     1       7.389  24.457  32.502  1.00  0.00     0.015 A
HETATM    8  C16 UNL     1       6.022  24.353  32.637  1.00  0.00     0.001 A
HETATM    9  C17 UNL     1       5.351  25.031  33.656  1.00  0.00     0.003 A
HETATM   10  C18 UNL     1       6.092  25.797  34.515  1.00  0.00     0.038 A
HETATM   11  C19 UNL     1       7.461  25.899  34.379  1.00  0.00     0.087 A
HETATM   12  C26 UNL     1      10.370  24.202  33.023  1.00  0.00     0.042 A
ENDROOT
BRANCH   1  13
HETATM   13  N3  UNL     1      12.600  23.158  32.706  1.00  0.00    -0.323 N
HETATM   14  C8  UNL     1      13.150  22.352  33.730  1.00  0.00     0.258 C
HETATM   15  O2  UNL     1      12.867  22.587  34.920  1.00  0.00    -0.267 OA
ATOM     16  H3  UNL     1      12.857  22.928  31.747  1.00  0.00     0.169 HD
BRANCH  14  17
HETATM   17  C7  UNL     1      14.044  21.254  33.383  1.00  0.00     0.059 A
HETATM   18  C2  UNL     1      13.870  19.964  33.910  1.00  0.00     0.051 A
HETATM   19  C3  UNL     1      14.692  18.918  33.454  1.00  0.00     0.030 A
HETATM   20  C4  UNL     1      15.669  19.115  32.503  1.00  0.00     0.002 A
HETATM   21  C5  UNL     1      15.848  20.367  31.986  1.00  0.00     0.001 A
HETATM   22  C6  UNL     1      15.033  21.414  32.436  1.00  0.00     0.019 A
BRANCH  18  23
HETATM   23  N2  UNL     1      12.978  19.776  34.974  1.00  0.00    -0.310 N
HETATM   24  C1  UNL     1      13.235  18.939  36.073  1.00  0.00     0.333 C
HETATM   25  N1  UNL     1      12.262  18.819  37.133  1.00  0.00    -0.040 NA
HETATM   26  O1  UNL     1      14.279  18.280  36.181  1.00  0.00    -0.251 OA
ATOM     27  H2  UNL     1      12.090  20.277  34.949  1.00  0.00     0.170 HD
ENDBRANCH  18  23
ENDBRANCH  14  17
ENDBRANCH   1  13
BRANCH  11  28
HETATM   28  O3  UNL     1       8.132  26.692  35.288  1.00  0.00    -0.310 OA
BRANCH  28  29
HETATM   29  C20 UNL     1       9.171  26.162  36.028  1.00  0.00     0.076 A
HETATM   30  C21 UNL     1      10.198  26.926  36.547  1.00  0.00     0.037 A
HETATM   31  C22 UNL     1      11.206  26.339  37.276  1.00  0.00     0.003 A
HETATM   32  C23 UNL     1      11.230  24.992  37.514  1.00  0.00     0.000 A
HETATM   33  C24 UNL     1      10.215  24.208  37.006  1.00  0.00     0.003 A
HETATM   34  C25 UNL     1       9.218  24.806  36.282  1.00  0.00     0.037 A
ENDBRANCH  28  29
ENDBRANCH  11  28
TORSDOF 5
ENDMDL