MODEL 3
REMARK VINA RESULT: -10.021891990      2.768      4.710
REMARK  7 active torsions:
REMARK  status: ('A' for Active; 'I' for Inactive)
REMARK    1  A    between atoms: C2_5  and  C3_6
REMARK    2  A    between atoms: C3_6  and  C4_7
REMARK    3  A    between atoms: C4_7  and  C5_9
REMARK    4  A    between atoms: C13_19  and  C14_20
REMARK    5  A    between atoms: C20_26  and  C21_27
REMARK    6  A    between atoms: C21_27  and  O2_28
REMARK    7  A    between atoms: C21_27  and  C22_30
ROOT
HETATM    1  N1  UNL     1      15.106  20.488  32.101  1.00  0.00    -0.082 NA
HETATM    2  C1  UNL     1      14.533  21.614  32.747  1.00  0.00     0.130 A
HETATM    3  N2  UNL     1      14.684  22.907  32.414  1.00  0.00    -0.346 N
ATOM      4  H2  UNL     1      15.244  23.240  31.629  1.00  0.00     0.167 HD
HETATM    5  C2  UNL     1      14.011  23.692  33.237  1.00  0.00     0.030 A
HETATM    6  C13 UNL     1      13.358  22.882  34.197  1.00  0.00     0.013 A
HETATM    7  C20 UNL     1      13.686  21.598  33.885  1.00  0.00     0.052 A
ENDROOT
BRANCH   5   8
HETATM    8  C3  UNL     1      13.893  25.171  33.179  1.00  0.00     0.142 C
BRANCH   8   9
HETATM    9  C4  UNL     1      12.589  25.497  32.502  1.00  0.00     0.167 C
HETATM   10  O1  UNL     1      12.409  25.122  31.328  1.00  0.00    -0.292 OA
BRANCH   9  11
HETATM   11  C5  UNL     1      11.591  26.234  33.262  1.00  0.00     0.038 A
HETATM   12  C6  UNL     1      11.796  27.312  34.098  1.00  0.00     0.104 A
HETATM   13  N3  UNL     1      10.612  27.704  34.641  1.00  0.00    -0.364 N
HETATM   14  C7  UNL     1       9.673  26.884  34.154  1.00  0.00     0.043 A
ATOM     15  H3  UNL     1      10.468  28.474  35.295  1.00  0.00     0.165 HD
HETATM   16  C8  UNL     1       8.302  26.860  34.406  1.00  0.00     0.030 A
HETATM   17  C12 UNL     1      10.241  25.957  33.293  1.00  0.00     0.006 A
HETATM   18  C9  UNL     1       7.524  25.926  33.803  1.00  0.00     0.002 A
HETATM   19  C10 UNL     1       8.070  24.987  32.936  1.00  0.00     0.001 A
HETATM   20  C11 UNL     1       9.426  25.033  32.705  1.00  0.00     0.014 A
ENDBRANCH   9  11
ENDBRANCH   8   9
ENDBRANCH   5   8
BRANCH   6  21
HETATM   21  C14 UNL     1      12.496  23.435  35.227  1.00  0.00    -0.023 A
HETATM   22  C15 UNL     1      12.986  24.204  36.288  1.00  0.00     0.012 A
HETATM   23  C16 UNL     1      12.224  24.777  37.248  1.00  0.00     0.001 A
HETATM   24  C17 UNL     1      10.855  24.594  37.182  1.00  0.00     0.000 A
HETATM   25  C18 UNL     1      10.294  23.846  36.163  1.00  0.00     0.001 A
HETATM   26  C19 UNL     1      11.120  23.268  35.185  1.00  0.00     0.012 A
ENDBRANCH   6  21
BRANCH   7  27
HETATM   27  C21 UNL     1      13.220  20.364  34.457  1.00  0.00     0.090 C
BRANCH  27  28
HETATM   28  O2  UNL     1      11.894  20.354  34.760  1.00  0.00    -0.359 OA
ATOM     29  H2  UNL     1      11.532  19.487  34.901  1.00  0.00     0.217 HD
ENDBRANCH  27  28
BRANCH  27  30
HETATM   30  C22 UNL     1      13.790  19.122  34.803  1.00  0.00    -0.002 A
HETATM   31  C23 UNL     1      13.927  18.137  33.812  1.00  0.00     0.014 A
HETATM   32  C24 UNL     1      14.539  16.926  34.018  1.00  0.00     0.001 A
HETATM   33  C25 UNL     1      15.058  16.642  35.274  1.00  0.00     0.000 A
HETATM   34  C26 UNL     1      14.954  17.569  36.286  1.00  0.00     0.001 A
HETATM   35  C27 UNL     1      14.323  18.780  36.020  1.00  0.00     0.014 A
ENDBRANCH  27  30
ENDBRANCH   7  27
TORSDOF 7
ENDMDL