MODEL 1
REMARK VINA RESULT: -12.222021710      0.000      0.000
REMARK  6 active torsions:
REMARK  status: ('A' for Active; 'I' for Inactive)
REMARK    1  A    between atoms: C1_4  and  C2_6
REMARK    2  A    between atoms: C5_9  and  C6_10
REMARK    3  A    between atoms: C9_13  and  C10_14
REMARK    4  A    between atoms: C14_18  and  C15_19
REMARK       I    between atoms: C15_19  and  N3_21
REMARK    5  A    between atoms: N3_21  and  C16_23
REMARK    6  A    between atoms: C16_23  and  C17_24
ROOT
HETATM    1  C6  UNL     1      14.024  18.643  34.208  1.00  0.00    -0.026 A
HETATM    2  C7  UNL     1      14.820  19.505  33.486  1.00  0.00     0.013 A
HETATM    3  C8  UNL     1      14.578  20.883  33.484  1.00  0.00     0.013 A
HETATM    4  C9  UNL     1      13.529  21.392  34.213  1.00  0.00    -0.026 A
HETATM    5  C22 UNL     1      12.737  20.537  34.931  1.00  0.00     0.013 A
HETATM    6  C23 UNL     1      12.979  19.178  34.930  1.00  0.00     0.013 A
ENDROOT
BRANCH   4   7
HETATM    7  C10 UNL     1      13.262  22.842  34.214  1.00  0.00    -0.025 A
HETATM    8  C11 UNL     1      14.123  23.645  33.522  1.00  0.00     0.012 A
HETATM    9  C12 UNL     1      13.880  25.002  33.525  1.00  0.00     0.002 A
HETATM   10  C13 UNL     1      12.806  25.537  34.201  1.00  0.00     0.017 A
HETATM   11  C14 UNL     1      11.931  24.739  34.900  1.00  0.00     0.032 A
HETATM   12  C21 UNL     1      12.188  23.361  34.891  1.00  0.00     0.029 A
BRANCH  11  13
HETATM   13  C15 UNL     1      10.785  25.250  35.637  1.00  0.00     0.251 C
HETATM   14  O1  UNL     1      10.971  25.658  36.819  1.00  0.00    -0.268 OA
HETATM   15  N3  UNL     1       9.515  25.290  35.054  1.00  0.00    -0.352 N
ATOM     16  H3  UNL     1       9.372  24.960  34.100  1.00  0.00     0.163 HD
BRANCH  15  17
HETATM   17  C16 UNL     1       8.393  25.812  35.836  1.00  0.00     0.169 C
BRANCH  17  18
HETATM   18  C17 UNL     1       7.108  25.246  35.285  1.00  0.00     0.000 A
HETATM   19  C18 UNL     1       6.108  24.622  35.984  1.00  0.00     0.017 A
HETATM   20  C19 UNL     1       5.047  24.194  35.291  1.00  0.00     0.008 A
HETATM   21  C20 UNL     1       5.048  24.414  33.939  1.00  0.00     0.050 A
HETATM   22  S1  UNL     1       6.531  25.212  33.681  1.00  0.00    -0.105 SA
ENDBRANCH  17  18
ENDBRANCH  15  17
ENDBRANCH  11  13
ENDBRANCH   4   7
BRANCH   1  23
HETATM   23  C5  UNL     1      14.244  17.204  34.229  1.00  0.00    -0.026 A
HETATM   24  C4  UNL     1      13.191  16.316  34.223  1.00  0.00     0.013 A
HETATM   25  C3  UNL     1      13.375  14.958  34.243  1.00  0.00     0.015 A
HETATM   26  C2  UNL     1      14.646  14.392  34.272  1.00  0.00     0.004 A
HETATM   27  C25 UNL     1      15.710  15.267  34.277  1.00  0.00     0.015 A
HETATM   28  C24 UNL     1      15.507  16.650  34.256  1.00  0.00     0.013 A
BRANCH  26  29
HETATM   29  C1  UNL     1      14.807  12.955  34.293  1.00  0.00     0.120 C
HETATM   30  N1  UNL     1      15.213  12.322  33.272  1.00  0.00    -0.387 N
ATOM     31  H12 UNL     1      15.327  11.309  33.288  1.00  0.00     0.157 HD
ATOM     32  H11 UNL     1      15.430  12.837  32.420  1.00  0.00     0.157 HD
HETATM   33  N2  UNL     1      14.505  12.238  35.479  1.00  0.00    -0.082 NA
ENDBRANCH  26  29
ENDBRANCH   1  23
TORSDOF 6
ENDMDL