MODEL 2
REMARK VINA RESULT: -12.876216370      1.970      3.544
REMARK  5 active torsions:
REMARK  status: ('A' for Active; 'I' for Inactive)
REMARK       I    between atoms: C1_4  and  N3_6
REMARK       I    between atoms: N3_6  and  C2_8
REMARK    1  A    between atoms: C2_8  and  C3_10
REMARK    2  A    between atoms: C6_13  and  C7_14
REMARK    3  A    between atoms: C11_18  and  C12_19
REMARK    4  A    between atoms: C16_23  and  O2_24
REMARK    5  A    between atoms: O2_24  and  C17_25
ROOT
HETATM    1  C7  UNL     1      12.882  23.827  33.710  1.00  0.00    -0.025 A
HETATM    2  C8  UNL     1      13.753  24.871  33.932  1.00  0.00     0.012 A
HETATM    3  C9  UNL     1      13.310  26.189  33.829  1.00  0.00     0.002 A
HETATM    4  C10 UNL     1      11.999  26.478  33.505  1.00  0.00     0.012 A
HETATM    5  C11 UNL     1      11.124  25.438  33.283  1.00  0.00    -0.025 A
HETATM    6  C24 UNL     1      11.572  24.117  33.386  1.00  0.00     0.024 A
ENDROOT
BRANCH   1   7
HETATM    7  C6  UNL     1      13.311  22.419  33.808  1.00  0.00    -0.026 A
HETATM    8  C5  UNL     1      14.444  21.970  33.179  1.00  0.00     0.013 A
HETATM    9  C4  UNL     1      14.845  20.653  33.270  1.00  0.00     0.018 A
HETATM   10  C3  UNL     1      14.123  19.739  33.995  1.00  0.00     0.032 A
HETATM   11  C26 UNL     1      12.985  20.191  34.626  1.00  0.00     0.018 A
HETATM   12  C25 UNL     1      12.569  21.511  34.545  1.00  0.00     0.013 A
BRANCH  10  13
HETATM   13  C2  UNL     1      14.526  18.361  34.100  1.00  0.00     0.258 C
HETATM   14  N3  UNL     1      13.582  17.322  34.317  1.00  0.00    -0.297 N
HETATM   15  C1  UNL     1      14.035  15.965  34.414  1.00  0.00     0.188 C
ATOM     16  H3  UNL     1      12.590  17.540  34.402  1.00  0.00     0.171 HD
HETATM   17  N1  UNL     1      13.210  15.004  34.608  1.00  0.00    -0.373 N
HETATM   18  N2  UNL     1      15.415  15.671  34.294  1.00  0.00    -0.064 NA
ATOM     19  H12 UNL     1      13.531  14.039  34.678  1.00  0.00     0.158 HD
ATOM     20  H11 UNL     1      12.216  15.216  34.695  1.00  0.00     0.158 HD
HETATM   21  O1  UNL     1      15.772  18.099  33.992  1.00  0.00    -0.267 OA
ENDBRANCH  10  13
ENDBRANCH   1   7
BRANCH   5  22
HETATM   22  C12 UNL     1       9.740  25.746  32.941  1.00  0.00    -0.023 A
HETATM   23  C13 UNL     1       9.411  27.007  32.488  1.00  0.00     0.012 A
HETATM   24  C14 UNL     1       8.080  27.290  32.163  1.00  0.00     0.004 A
HETATM   25  C15 UNL     1       7.093  26.321  32.289  1.00  0.00     0.037 A
HETATM   26  C16 UNL     1       7.427  25.063  32.742  1.00  0.00     0.076 A
HETATM   27  C23 UNL     1       8.748  24.802  33.059  1.00  0.00     0.049 A
BRANCH  26  28
HETATM   28  O2  UNL     1       6.427  24.105  32.863  1.00  0.00    -0.311 OA
BRANCH  28  29
HETATM   29  C17 UNL     1       5.297  24.319  33.655  1.00  0.00     0.076 A
HETATM   30  C18 UNL     1       5.414  24.431  35.026  1.00  0.00     0.037 A
HETATM   31  C19 UNL     1       4.272  24.643  35.769  1.00  0.00     0.003 A
HETATM   32  C20 UNL     1       3.056  24.733  35.101  1.00  0.00     0.000 A
HETATM   33  C21 UNL     1       2.932  24.624  33.745  1.00  0.00     0.003 A
HETATM   34  C22 UNL     1       4.085  24.412  33.007  1.00  0.00     0.037 A
ENDBRANCH  28  29
ENDBRANCH  26  28
ENDBRANCH   5  22
TORSDOF 5
ENDMDL