MODEL 3
REMARK VINA RESULT: -11.014567023      1.148      1.973
REMARK  6 active torsions:
REMARK  status: ('A' for Active; 'I' for Inactive)
REMARK       I    between atoms: C1_2  and  N1_3
REMARK    1  A    between atoms: C1_2  and  C15_22
REMARK    2  A    between atoms: N1_3  and  C2_5
REMARK    3  A    between atoms: C5_8  and  C6_9
REMARK    4  A    between atoms: C20_27  and  O2_28
REMARK    5  A    between atoms: O2_28  and  C21_29
REMARK    6  A    between atoms: C21_29  and  C22_30
ROOT
HETATM    1  O1  UNL     1      10.931  23.257  32.770  1.00  0.00    -0.267 OA
HETATM    2  C1  UNL     1      11.155  23.932  33.831  1.00  0.00     0.259 C
HETATM    3  N1  UNL     1      11.880  23.285  34.815  1.00  0.00    -0.323 N
ATOM      4  H1  UNL     1      12.060  23.803  35.675  1.00  0.00     0.169 HD
ENDROOT
BRANCH   3   5
HETATM    5  C2  UNL     1      12.406  21.940  34.738  1.00  0.00     0.035 A
HETATM    6  C3  UNL     1      13.668  21.629  34.357  1.00  0.00     0.030 A
HETATM    7  C4  UNL     1      14.076  20.280  34.280  1.00  0.00     0.017 A
HETATM    8  C5  UNL     1      13.234  19.239  34.581  1.00  0.00     0.008 A
HETATM    9  C13 UNL     1      11.951  19.559  34.971  1.00  0.00     0.017 A
HETATM   10  C14 UNL     1      11.544  20.873  35.048  1.00  0.00     0.030 A
BRANCH   8  11
HETATM   11  C6  UNL     1      13.658  17.845  34.500  1.00  0.00     0.116 A
HETATM   12  N2  UNL     1      14.926  17.416  34.369  1.00  0.00    -0.340 N
HETATM   13  C7  UNL     1      14.958  16.070  34.326  1.00  0.00     0.060 A
ATOM     14  H2  UNL     1      15.744  18.022  34.309  1.00  0.00     0.167 HD
HETATM   15  C8  UNL     1      15.966  15.144  34.204  1.00  0.00     0.032 A
HETATM   16  C12 UNL     1      13.650  15.624  34.436  1.00  0.00     0.060 A
HETATM   17  C9  UNL     1      15.704  13.797  34.188  1.00  0.00     0.002 A
HETATM   18  C10 UNL     1      14.397  13.351  34.299  1.00  0.00     0.002 A
HETATM   19  C11 UNL     1      13.377  14.263  34.421  1.00  0.00     0.032 A
HETATM   20  N3  UNL     1      12.906  16.735  34.539  1.00  0.00    -0.340 N
ATOM     21  H3  UNL     1      11.890  16.736  34.635  1.00  0.00     0.167 HD
ENDBRANCH   8  11
ENDBRANCH   3   5
BRANCH   2  22
HETATM   22  C15 UNL     1      10.636  25.274  33.886  1.00  0.00     0.065 A
HETATM   23  C16 UNL     1      11.535  26.298  34.302  1.00  0.00     0.020 A
HETATM   24  C17 UNL     1      11.164  27.606  34.394  1.00  0.00     0.001 A
HETATM   25  C18 UNL     1       9.884  27.968  34.079  1.00  0.00     0.003 A
HETATM   26  C19 UNL     1       9.009  26.994  33.677  1.00  0.00     0.038 A
HETATM   27  C20 UNL     1       9.364  25.644  33.574  1.00  0.00     0.084 A
BRANCH  27  28
HETATM   28  O2  UNL     1       8.432  24.719  33.164  1.00  0.00    -0.346 OA
BRANCH  28  29
HETATM   29  C21 UNL     1       7.181  25.155  32.713  1.00  0.00     0.214 C
BRANCH  29  30
HETATM   30  C22 UNL     1       6.067  24.666  33.545  1.00  0.00    -0.034 A
HETATM   31  C23 UNL     1       6.053  24.845  34.903  1.00  0.00     0.009 A
HETATM   32  C24 UNL     1       5.007  24.387  35.692  1.00  0.00     0.001 A
HETATM   33  C25 UNL     1       3.958  23.739  35.110  1.00  0.00     0.000 A
HETATM   34  C26 UNL     1       3.953  23.549  33.738  1.00  0.00     0.001 A
HETATM   35  C27 UNL     1       5.016  24.016  32.953  1.00  0.00     0.009 A
ENDBRANCH  29  30
ENDBRANCH  28  29
ENDBRANCH  27  28
ENDBRANCH   2  22
TORSDOF 6
ENDMDL