MODEL 3
REMARK VINA RESULT: -6.712883094      1.199      1.982
REMARK  7 active torsions:
REMARK  status: ('A' for Active; 'I' for Inactive)
REMARK    1  A    between atoms: N1_1  and  C1_5
REMARK    2  A    between atoms: C1_5  and  C2_6
REMARK    3  A    between atoms: C6_10  and  C7_11
REMARK    4  A    between atoms: C7_11  and  C14_22
REMARK    5  A    between atoms: N2_12  and  N3_14
REMARK    6  A    between atoms: N3_14  and  C8_16
REMARK    7  A    between atoms: C15_23  and  C16_24
ROOT
HETATM    1  C7  UNL     1       9.390  24.788  34.019  1.00  0.00     0.071 C
HETATM    2  N2  UNL     1       9.517  24.079  32.944  1.00  0.00    -0.299 N
ATOM      3  H2  UNL     1       8.832  24.280  32.215  1.00  0.00     0.187 HD
ENDROOT
BRANCH   1   4
HETATM    4  C6  UNL     1      10.360  24.505  35.048  1.00  0.00    -0.007 A
HETATM    5  C5  UNL     1       9.995  23.833  36.206  1.00  0.00     0.014 A
HETATM    6  C4  UNL     1      10.888  23.591  37.236  1.00  0.00     0.002 A
HETATM    7  C3  UNL     1      12.184  24.011  37.156  1.00  0.00     0.009 A
HETATM    8  C2  UNL     1      12.589  24.680  36.026  1.00  0.00    -0.032 A
HETATM    9  C28 UNL     1      11.690  24.908  35.020  1.00  0.00     0.022 A
BRANCH   8  10
HETATM   10  C1  UNL     1      14.005  25.136  35.943  1.00  0.00     0.268 C
BRANCH  10  11
HETATM   11  N1  UNL     1      14.660  24.991  37.208  1.00  0.00    -0.075 N
ATOM     12  H13 UNL     1      14.249  24.240  37.762  1.00  0.00     0.274 HD
ATOM     13  H12 UNL     1      15.600  24.609  37.104  1.00  0.00     0.274 HD
ATOM     14  H11 UNL     1      14.666  25.876  37.716  1.00  0.00     0.274 HD
ENDBRANCH  10  11
ENDBRANCH   8  10
ENDBRANCH   1   4
BRANCH   1  15
HETATM   15  C14 UNL     1       8.253  25.668  34.131  1.00  0.00     0.033 A
HETATM   16  C15 UNL     1       8.058  26.773  34.888  1.00  0.00     0.056 A
HETATM   17  N4  UNL     1       6.707  27.023  34.934  1.00  0.00    -0.354 N
HETATM   18  C22 UNL     1       6.071  26.108  34.215  1.00  0.00     0.043 A
ATOM     19  H4  UNL     1       6.264  27.790  35.441  1.00  0.00     0.166 HD
HETATM   20  C23 UNL     1       4.712  25.912  33.931  1.00  0.00     0.030 A
HETATM   21  C27 UNL     1       6.962  25.215  33.668  1.00  0.00     0.005 A
HETATM   22  C24 UNL     1       4.282  24.879  33.141  1.00  0.00     0.002 A
HETATM   23  C25 UNL     1       5.187  23.998  32.603  1.00  0.00     0.001 A
HETATM   24  C26 UNL     1       6.553  24.175  32.876  1.00  0.00     0.014 A
BRANCH  16  25
HETATM   25  C16 UNL     1       9.019  27.703  35.492  1.00  0.00    -0.009 A
HETATM   26  C17 UNL     1       9.689  28.626  34.668  1.00  0.00     0.014 A
HETATM   27  C18 UNL     1      10.697  29.428  35.086  1.00  0.00     0.001 A
HETATM   28  C19 UNL     1      11.098  29.338  36.413  1.00  0.00     0.000 A
HETATM   29  C20 UNL     1      10.495  28.463  37.280  1.00  0.00     0.001 A
HETATM   30  C21 UNL     1       9.464  27.667  36.778  1.00  0.00     0.014 A
ENDBRANCH  16  25
ENDBRANCH   1  15
BRANCH   2  31
HETATM   31  N3  UNL     1      10.412  23.115  32.632  1.00  0.00    -0.300 N
ATOM     32  H3  UNL     1      10.077  22.156  32.547  1.00  0.00     0.187 HD
BRANCH  31  33
HETATM   33  C8  UNL     1      11.810  23.366  32.412  1.00  0.00     0.048 A
HETATM   34  C9  UNL     1      12.802  22.547  32.903  1.00  0.00     0.031 A
HETATM   35  C10 UNL     1      14.141  22.786  32.690  1.00  0.00     0.002 A
HETATM   36  C11 UNL     1      14.513  23.896  31.954  1.00  0.00     0.000 A
HETATM   37  C12 UNL     1      13.557  24.730  31.453  1.00  0.00     0.002 A
HETATM   38  C13 UNL     1      12.213  24.461  31.685  1.00  0.00     0.031 A
ENDBRANCH  31  33
ENDBRANCH   2  31
TORSDOF 7
ENDMDL