MODEL 3
REMARK VINA RESULT: -9.288679108      0.514      1.017
REMARK  5 active torsions:
REMARK  status: ('A' for Active; 'I' for Inactive)
REMARK    1  A    between atoms: C1_4  and  C2_6
REMARK    2  A    between atoms: C8_14  and  C9_15
REMARK    3  A    between atoms: C13_19  and  O1_20
REMARK    4  A    between atoms: O1_20  and  C14_21
REMARK    5  A    between atoms: C20_31  and  C21_32
ROOT
HETATM    1  C2  UNL     1       6.603  25.144  33.443  1.00  0.00     0.005 A
HETATM    2  C3  UNL     1       6.029  25.522  34.631  1.00  0.00     0.015 A
HETATM    3  C4  UNL     1       6.831  25.539  35.758  1.00  0.00     0.002 A
HETATM    4  C5  UNL     1       8.165  25.198  35.736  1.00  0.00     0.014 A
HETATM    5  C6  UNL     1       8.730  24.821  34.540  1.00  0.00    -0.006 A
HETATM    6  C7  UNL     1      10.126  24.455  34.460  1.00  0.00     0.072 A
HETATM    7  N3  UNL     1      10.653  23.277  34.095  1.00  0.00    -0.339 N
ATOM      8  H3  UNL     1      10.120  22.453  33.819  1.00  0.00     0.167 HD
HETATM    9  C8  UNL     1      12.017  23.355  34.153  1.00  0.00     0.116 A
HETATM   10  N5  UNL     1      12.346  24.588  34.556  1.00  0.00    -0.339 N
ATOM     11  H5  UNL     1      13.291  24.948  34.694  1.00  0.00     0.167 HD
HETATM   12  C20 UNL     1      11.204  25.262  34.744  1.00  0.00     0.072 A
HETATM   13  C27 UNL     1       7.916  24.803  33.398  1.00  0.00     0.028 A
ENDROOT
BRANCH   9  14
HETATM   14  C9  UNL     1      12.989  22.313  33.840  1.00  0.00     0.011 A
HETATM   15  C10 UNL     1      13.972  22.631  32.903  1.00  0.00     0.015 A
HETATM   16  C11 UNL     1      14.908  21.695  32.577  1.00  0.00     0.004 A
HETATM   17  C12 UNL     1      14.847  20.441  33.201  1.00  0.00     0.037 A
HETATM   18  C13 UNL     1      13.897  20.103  34.119  1.00  0.00     0.078 A
HETATM   19  C19 UNL     1      12.951  21.096  34.428  1.00  0.00     0.052 A
BRANCH  18  20
HETATM   20  O1  UNL     1      13.803  18.909  34.741  1.00  0.00    -0.294 OA
BRANCH  20  21
HETATM   21  C14 UNL     1      14.294  17.673  34.530  1.00  0.00     0.147 A
HETATM   22  C15 UNL     1      13.366  16.621  34.628  1.00  0.00     0.056 A
HETATM   23  C16 UNL     1      13.731  15.319  34.437  1.00  0.00     0.006 A
HETATM   24  C17 UNL     1      15.062  15.066  34.139  1.00  0.00     0.017 A
HETATM   25  C18 UNL     1      15.955  16.107  34.046  1.00  0.00     0.090 A
HETATM   26  N4  UNL     1      15.550  17.353  34.241  1.00  0.00    -0.347 N
ATOM     27  H4  UNL     1      16.237  18.103  34.166  1.00  0.00     0.167 HD
ENDBRANCH  20  21
ENDBRANCH  18  20
ENDBRANCH   9  14
BRANCH  12  28
HETATM   28  C21 UNL     1      11.065  26.648  35.186  1.00  0.00    -0.007 A
HETATM   29  C22 UNL     1      10.786  26.949  36.494  1.00  0.00     0.014 A
HETATM   30  C23 UNL     1      10.658  28.226  36.912  1.00  0.00     0.001 A
HETATM   31  C24 UNL     1      10.799  29.284  36.049  1.00  0.00     0.000 A
HETATM   32  C25 UNL     1      11.079  28.965  34.729  1.00  0.00     0.001 A
HETATM   33  C26 UNL     1      11.213  27.682  34.294  1.00  0.00     0.014 A
ENDBRANCH  12  28
BRANCH   1  34
HETATM   34  C1  UNL     1       5.815  25.102  32.214  1.00  0.00     0.120 C
HETATM   35  N1  UNL     1       4.830  24.276  32.088  1.00  0.00    -0.387 N
ATOM     36  H12 UNL     1       4.280  24.246  31.230  1.00  0.00     0.157 HD
ATOM     37  H11 UNL     1       4.646  23.671  32.888  1.00  0.00     0.157 HD
HETATM   38  N2  UNL     1       6.073  25.948  31.095  1.00  0.00    -0.082 NA
ENDBRANCH   1  34
TORSDOF 5
ENDMDL