MODEL 4
REMARK VINA RESULT: -10.697581627      0.563      1.297
REMARK  7 active torsions:
REMARK  status: ('A' for Active; 'I' for Inactive)
REMARK    1  A    between atoms: N1_1  and  C1_4
REMARK    2  A    between atoms: C4_9  and  C5_10
REMARK       I    between atoms: C5_10  and  N3_12
REMARK    3  A    between atoms: N3_12  and  C6_14
REMARK    4  A    between atoms: C9_17  and  N4_18
REMARK    5  A    between atoms: N4_18  and  C10_20
REMARK    6  A    between atoms: N5_31  and  C21_32
REMARK    7  A    between atoms: C21_32  and  C22_33
ROOT
HETATM    1  C1  UNL     1      10.653  26.724  35.797  1.00  0.00     0.679 A
HETATM    2  N2  UNL     1      11.560  25.847  36.260  1.00  0.00    -0.190 N
ATOM      3  H2  UNL     1      12.069  25.944  37.138  1.00  0.00     0.184 HD
HETATM    4  C2  UNL     1      11.698  24.829  35.403  1.00  0.00     0.077 A
HETATM    5  C3  UNL     1      12.472  23.680  35.365  1.00  0.00     0.049 A
HETATM    6  C4  UNL     1      12.435  22.764  34.335  1.00  0.00     0.034 A
HETATM    7  C18 UNL     1      11.568  23.041  33.302  1.00  0.00     0.019 A
HETATM    8  C19 UNL     1      10.774  24.162  33.282  1.00  0.00     0.034 A
HETATM    9  C20 UNL     1      10.838  25.057  34.330  1.00  0.00     0.079 A
HETATM   10  N5  UNL     1      10.221  26.234  34.625  1.00  0.00    -0.177 N
ENDROOT
BRANCH   6  11
HETATM   11  C5  UNL     1      13.285  21.541  34.351  1.00  0.00     0.256 C
HETATM   12  O1  UNL     1      14.493  21.787  34.099  1.00  0.00    -0.267 OA
HETATM   13  N3  UNL     1      12.738  20.284  34.624  1.00  0.00    -0.323 N
ATOM     14  H3  UNL     1      11.735  20.233  34.805  1.00  0.00     0.169 HD
BRANCH  13  15
HETATM   15  C6  UNL     1      13.468  19.094  34.667  1.00  0.00     0.035 A
HETATM   16  C7  UNL     1      13.691  18.315  35.777  1.00  0.00     0.032 A
HETATM   17  C8  UNL     1      14.451  17.145  35.759  1.00  0.00     0.031 A
HETATM   18  C9  UNL     1      15.005  16.747  34.579  1.00  0.00     0.032 A
HETATM   19  C16 UNL     1      14.789  17.528  33.431  1.00  0.00     0.031 A
HETATM   20  C17 UNL     1      14.048  18.660  33.472  1.00  0.00     0.032 A
BRANCH  18  21
HETATM   21  N4  UNL     1      15.796  15.595  34.481  1.00  0.00    -0.356 N
ATOM     22  H4  UNL     1      16.803  15.701  34.354  1.00  0.00     0.166 HD
BRANCH  21  23
HETATM   23  C10 UNL     1      15.254  14.287  34.549  1.00  0.00     0.032 A
HETATM   24  C11 UNL     1      14.622  13.760  35.645  1.00  0.00     0.029 A
HETATM   25  C12 UNL     1      14.086  12.503  35.689  1.00  0.00     0.002 A
HETATM   26  C13 UNL     1      14.178  11.695  34.566  1.00  0.00     0.000 A
HETATM   27  C14 UNL     1      14.810  12.200  33.449  1.00  0.00     0.002 A
HETATM   28  C15 UNL     1      15.342  13.460  33.418  1.00  0.00     0.029 A
ENDBRANCH  21  23
ENDBRANCH  18  21
ENDBRANCH  13  15
ENDBRANCH   6  11
BRANCH   1  29
HETATM   29  N1  UNL     1      10.291  27.840  36.394  1.00  0.00    -0.234 N
ATOM     30  H12 UNL     1      10.410  28.798  36.064  1.00  0.00     0.174 HD
ATOM     31  H11 UNL     1       9.832  27.907  37.303  1.00  0.00     0.174 HD
ENDBRANCH   1  29
BRANCH  10  32
HETATM   32  C21 UNL     1       9.242  26.861  33.770  1.00  0.00     0.186 C
BRANCH  32  33
HETATM   33  C22 UNL     1       7.923  26.212  33.732  1.00  0.00    -0.039 A
HETATM   34  C23 UNL     1       7.309  26.016  32.487  1.00  0.00     0.009 A
HETATM   35  C24 UNL     1       6.072  25.414  32.390  1.00  0.00     0.001 A
HETATM   36  C25 UNL     1       5.448  25.007  33.550  1.00  0.00     0.000 A
HETATM   37  C26 UNL     1       6.037  25.193  34.779  1.00  0.00     0.001 A
HETATM   38  C27 UNL     1       7.274  25.795  34.875  1.00  0.00     0.009 A
ENDBRANCH  32  33
ENDBRANCH  10  32
TORSDOF 7
ENDMDL