MODEL 3
REMARK VINA RESULT: -8.797935763      0.960      1.499
REMARK  7 active torsions:
REMARK  status: ('A' for Active; 'I' for Inactive)
REMARK    1  A    between atoms: C1_4  and  N2_5
REMARK    2  A    between atoms: C1_4  and  C22_32
REMARK    3  A    between atoms: N2_5  and  C2_7
REMARK    4  A    between atoms: C5_10  and  N3_11
REMARK       I    between atoms: N3_11  and  C6_13
REMARK    5  A    between atoms: C6_13  and  C7_15
REMARK    6  A    between atoms: C10_18  and  N4_19
REMARK    7  A    between atoms: C11_21  and  C12_22
ROOT
HETATM    1  N3  UNL     1      13.296  22.405  33.981  1.00  0.00    -0.323 N
ATOM      2  H3  UNL     1      12.706  21.838  34.588  1.00  0.00     0.169 HD
HETATM    3  C6  UNL     1      14.322  21.727  33.312  1.00  0.00     0.256 C
HETATM    4  O1  UNL     1      15.102  22.338  32.551  1.00  0.00    -0.267 OA
ENDROOT
BRANCH   1   5
HETATM    5  C5  UNL     1      12.982  23.779  33.915  1.00  0.00     0.035 A
HETATM    6  C4  UNL     1      12.231  24.393  32.941  1.00  0.00     0.032 A
HETATM    7  C3  UNL     1      11.980  25.774  32.935  1.00  0.00     0.032 A
HETATM    8  C2  UNL     1      12.481  26.589  33.919  1.00  0.00     0.033 A
HETATM    9  C21 UNL     1      13.233  25.993  34.902  1.00  0.00     0.032 A
HETATM   10  C20 UNL     1      13.480  24.643  34.910  1.00  0.00     0.032 A
BRANCH   8  11
HETATM   11  N2  UNL     1      12.225  27.995  33.912  1.00  0.00    -0.342 N
ATOM     12  H2  UNL     1      12.816  28.603  33.344  1.00  0.00     0.167 HD
BRANCH  11  13
HETATM   13  C1  UNL     1      11.176  28.571  34.673  1.00  0.00     0.109 C
HETATM   14  N1  UNL     1      11.175  29.814  34.986  1.00  0.00    -0.385 N
ATOM     15  H12 UNL     1      11.941  30.418  34.688  1.00  0.00     0.157 HD
ATOM     16  H11 UNL     1      10.420  30.228  35.533  1.00  0.00     0.157 HD
BRANCH  13  17
HETATM   17  C22 UNL     1      10.082  27.707  35.098  1.00  0.00     0.007 A
HETATM   18  C23 UNL     1       9.048  27.373  34.254  1.00  0.00     0.015 A
HETATM   19  C24 UNL     1       7.998  26.559  34.625  1.00  0.00     0.001 A
HETATM   20  C25 UNL     1       8.010  26.069  35.911  1.00  0.00     0.000 A
HETATM   21  C26 UNL     1       9.023  26.376  36.794  1.00  0.00     0.001 A
HETATM   22  C27 UNL     1      10.062  27.198  36.383  1.00  0.00     0.015 A
ENDBRANCH  13  17
ENDBRANCH  11  13
ENDBRANCH   8  11
ENDBRANCH   1   5
BRANCH   3  23
HETATM   23  C7  UNL     1      14.518  20.300  33.476  1.00  0.00     0.032 A
HETATM   24  C8  UNL     1      15.500  19.563  32.851  1.00  0.00     0.019 A
HETATM   25  C9  UNL     1      15.613  18.180  33.064  1.00  0.00     0.030 A
HETATM   26  C10 UNL     1      14.761  17.517  33.893  1.00  0.00     0.031 A
HETATM   27  C18 UNL     1      13.771  18.231  34.529  1.00  0.00     0.030 A
HETATM   28  C19 UNL     1      13.668  19.586  34.314  1.00  0.00     0.019 A
BRANCH  26  29
HETATM   29  N4  UNL     1      14.849  16.123  34.127  1.00  0.00    -0.365 N
HETATM   30  C11 UNL     1      13.812  15.392  34.302  1.00  0.00     0.099 C
ATOM     31  H4  UNL     1      15.770  15.687  34.157  1.00  0.00     0.165 HD
BRANCH  30  32
HETATM   32  C12 UNL     1      13.949  13.968  34.539  1.00  0.00    -0.021 A
HETATM   33  C13 UNL     1      13.328  13.410  35.632  1.00  0.00     0.013 A
HETATM   34  C14 UNL     1      13.479  12.038  35.832  1.00  0.00     0.001 A
HETATM   35  C15 UNL     1      14.221  11.265  34.970  1.00  0.00     0.000 A
HETATM   36  C16 UNL     1      14.823  11.873  33.890  1.00  0.00     0.001 A
HETATM   37  C17 UNL     1      14.694  13.221  33.666  1.00  0.00     0.013 A
ENDBRANCH  30  32
ENDBRANCH  26  29
ENDBRANCH   3  23
TORSDOF 7
ENDMDL