MODEL 2
REMARK VINA RESULT: -7.336105358      1.376      1.783
REMARK  7 active torsions:
REMARK  status: ('A' for Active; 'I' for Inactive)
REMARK    1  A    between atoms: C3_4  and  N2_5
REMARK    2  A    between atoms: N2_5  and  C4_7
REMARK    3  A    between atoms: C9_17  and  S1_18
REMARK    4  A    between atoms: S1_18  and  C10_19
REMARK    5  A    between atoms: C10_19  and  C11_20
REMARK       I    between atoms: C11_20  and  N5_22
REMARK    6  A    between atoms: N5_22  and  N6_24
REMARK    7  A    between atoms: N7_26  and  O2_28
ROOT
HETATM    1  N1  UNL     1      64.531  61.483  26.755  1.00  0.00    -0.083 NA
HETATM    2  C1  UNL     1      64.005  60.951  27.959  1.00  0.00     0.121 A
HETATM    3  C2  UNL     1      63.250  59.787  27.941  1.00  0.00     0.093 A
HETATM    4  C3  UNL     1      62.738  59.270  29.100  1.00  0.00     0.106 A
HETATM    5  N4  UNL     1      62.971  59.897  30.259  1.00  0.00    -0.323 N
ATOM      6  H4  UNL     1      62.589  59.508  31.122  1.00  0.00     0.169 HD
HETATM    7  C9  UNL     1      63.709  61.044  30.313  1.00  0.00     0.147 A
HETATM    8  N8  UNL     1      64.203  61.535  29.164  1.00  0.00    -0.325 N
ATOM      9  H8  UNL     1      64.756  62.392  29.201  1.00  0.00     0.169 HD
ENDROOT
BRANCH   7  10
HETATM   10  S1  UNL     1      64.016  61.873  31.854  1.00  0.00    -0.084 SA
BRANCH  10  11
HETATM   11  C10 UNL     1      65.109  60.941  32.921  1.00  0.00     0.186 C
BRANCH  11  12
HETATM   12  C11 UNL     1      64.505  59.670  33.347  1.00  0.00     0.246 C
HETATM   13  O1  UNL     1      63.586  59.669  34.191  1.00  0.00    -0.271 OA
HETATM   14  N5  UNL     1      64.965  58.449  32.797  1.00  0.00    -0.253 N
ATOM     15  H5  UNL     1      65.717  58.452  32.108  1.00  0.00     0.191 HD
BRANCH  14  16
HETATM   16  N6  UNL     1      64.394  57.250  33.194  1.00  0.00    -0.221 N
HETATM   17  N7  UNL     1      64.478  56.681  34.292  1.00  0.00    -0.196 N
ATOM     18  H7  UNL     1      63.993  55.794  34.426  1.00  0.00     0.217 HD
ATOM     19  H6  UNL     1      63.830  56.774  32.489  1.00  0.00     0.210 HD
BRANCH  17  20
HETATM   20  O2  UNL     1      65.199  57.205  35.331  1.00  0.00    -0.273 OA
ATOM     21  H2  UNL     1      65.037  58.077  35.671  1.00  0.00     0.246 HD
ENDBRANCH  17  20
ENDBRANCH  14  16
ENDBRANCH  11  12
ENDBRANCH  10  11
ENDBRANCH   7  10
BRANCH   4  22
HETATM   22  N2  UNL     1      62.049  58.202  29.076  1.00  0.00    -0.371 N
ATOM     23  H2  UNL     1      62.341  57.428  29.672  1.00  0.00     0.161 HD
BRANCH  22  24
HETATM   24  C4  UNL     1      60.873  58.019  28.250  1.00  0.00     0.086 C
HETATM   25  C5  UNL     1      61.181  57.945  26.797  1.00  0.00     0.052 C
HETATM   26  C6  UNL     1      61.385  56.474  26.429  1.00  0.00     0.234 C
HETATM   27  N3  UNL     1      60.119  55.759  26.507  1.00  0.00    -0.075 N
HETATM   28  C7  UNL     1      59.231  56.410  27.460  1.00  0.00     0.234 C
ATOM     29  H32 UNL     1      59.684  55.655  25.590  1.00  0.00     0.277 HD
ATOM     30  H31 UNL     1      60.253  54.771  26.724  1.00  0.00     0.277 HD
HETATM   31  C8  UNL     1      60.037  56.854  28.665  1.00  0.00     0.052 C
ENDBRANCH  22  24
ENDBRANCH   4  22
TORSDOF 7
ENDMDL