MODEL 4
REMARK VINA RESULT: -6.942576061      2.463      6.158
REMARK  8 active torsions:
REMARK  status: ('A' for Active; 'I' for Inactive)
REMARK    1  A    between atoms: C2_2  and  C3_3
REMARK    2  A    between atoms: C3_3  and  N1_5
REMARK    3  A    between atoms: C3_3  and  C5_9
REMARK       I    between atoms: C5_9  and  N2_11
REMARK    4  A    between atoms: N2_11  and  C6_13
REMARK    5  A    between atoms: C7_15  and  S2_16
REMARK    6  A    between atoms: S2_16  and  N3_19
REMARK    7  A    between atoms: N3_19  and  N4_21
REMARK    8  A    between atoms: C8_28  and  N7_29
ROOT
HETATM    1  C6  UNL     1      63.428  60.565  29.420  1.00  0.00     0.124 A
HETATM    2  S1  UNL     1      62.315  59.284  29.264  1.00  0.00    -0.036 SA
HETATM    3  C7  UNL     1      62.106  58.785  27.649  1.00  0.00     0.209 A
HETATM    4  N5  UNL     1      62.847  59.477  26.774  1.00  0.00    -0.281 N
ATOM      5  H5  UNL     1      62.756  59.214  25.793  1.00  0.00     0.188 HD
HETATM    6  N6  UNL     1      63.674  60.453  27.040  1.00  0.00    -0.282 N
ATOM      7  H6  UNL     1      64.150  60.856  26.233  1.00  0.00     0.188 HD
HETATM    8  C8  UNL     1      63.979  60.988  28.205  1.00  0.00     0.148 A
ENDROOT
BRANCH   1   9
HETATM    9  N2  UNL     1      63.782  61.144  30.512  1.00  0.00    -0.316 N
HETATM   10  C5  UNL     1      63.805  60.544  31.773  1.00  0.00     0.258 C
HETATM   11  O1  UNL     1      62.752  60.627  32.481  1.00  0.00    -0.270 OA
ATOM     12  H2  UNL     1      64.071  62.120  30.452  1.00  0.00     0.169 HD
BRANCH  10  13
HETATM   13  C3  UNL     1      64.944  59.820  32.367  1.00  0.00     0.199 C
HETATM   14  C4  UNL     1      65.393  58.737  31.411  1.00  0.00     0.056 C
BRANCH  13  15
HETATM   15  C2  UNL     1      64.599  59.191  33.697  1.00  0.00     0.044 C
HETATM   16  C1  UNL     1      64.408  57.711  33.624  1.00  0.00     0.008 C
ENDBRANCH  13  15
BRANCH  13  17
HETATM   17  N1  UNL     1      66.070  60.702  32.591  1.00  0.00    -0.062 N
ATOM     18  H13 UNL     1      66.186  60.961  33.571  1.00  0.00     0.275 HD
ATOM     19  H12 UNL     1      66.971  60.238  32.471  1.00  0.00     0.275 HD
ATOM     20  H11 UNL     1      65.949  61.507  31.976  1.00  0.00     0.275 HD
ENDBRANCH  13  17
ENDBRANCH  10  13
ENDBRANCH   1   9
BRANCH   8  21
HETATM   21  N7  UNL     1      64.825  61.953  28.271  1.00  0.00    -0.382 N
ATOM     22  H72 UNL     1      65.255  62.198  29.163  1.00  0.00     0.157 HD
ATOM     23  H71 UNL     1      65.026  62.436  27.396  1.00  0.00     0.157 HD
ENDBRANCH   8  21
BRANCH   3  24
HETATM   24  S2  UNL     1      61.031  57.493  27.156  1.00  0.00     0.299 S
HETATM   25  O2  UNL     1      61.748  56.491  26.296  1.00  0.00    -0.197 OA
HETATM   26  O3  UNL     1      59.949  58.104  26.326  1.00  0.00    -0.197 OA
BRANCH  24  27
HETATM   27  N3  UNL     1      60.293  56.733  28.518  1.00  0.00    -0.228 N
ATOM     28  H3  UNL     1      60.429  56.988  29.496  1.00  0.00     0.199 HD
BRANCH  27  29
HETATM   29  N4  UNL     1      59.474  55.706  28.041  1.00  0.00    -0.336 N
ATOM     30  H42 UNL     1      58.463  55.764  27.920  1.00  0.00     0.177 HD
ATOM     31  H41 UNL     1      60.070  54.903  27.840  1.00  0.00     0.177 HD
ENDBRANCH  27  29
ENDBRANCH  24  27
ENDBRANCH   3  24
TORSDOF 8
ENDMDL