MODEL 3
REMARK VINA RESULT: -7.082504481      1.956      3.052
REMARK  7 active torsions:
REMARK  status: ('A' for Active; 'I' for Inactive)
REMARK    1  A    between atoms: N1_2  and  C2_4
REMARK    2  A    between atoms: C4_11  and  N4_12
REMARK    3  A    between atoms: N4_12  and  O2_14
REMARK    4  A    between atoms: C5_16  and  N5_17
REMARK    5  A    between atoms: N5_17  and  C6_19
REMARK    6  A    between atoms: C6_19  and  C7_20
REMARK    7  A    between atoms: C7_20  and  N6_21
ROOT
HETATM    1  C2  UNL     1      65.274  61.435  32.806  1.00  0.00     0.683 C
HETATM    2  N2  UNL     1      65.002  60.574  33.800  1.00  0.00    -0.141 N
ATOM      3  H2  UNL     1      65.107  60.943  34.745  1.00  0.00     0.189 HD
HETATM    4  C3  UNL     1      64.611  59.290  33.718  1.00  0.00     0.340 C
HETATM    5  O1  UNL     1      64.790  58.627  34.769  1.00  0.00    -0.246 OA
HETATM    6  N3  UNL     1      64.054  58.612  32.672  1.00  0.00    -0.290 N
ATOM      7  H3  UNL     1      63.724  57.669  32.876  1.00  0.00     0.172 HD
HETATM    8  C4  UNL     1      63.888  59.033  31.406  1.00  0.00     0.174 C
HETATM    9  C5  UNL     1      64.097  60.321  30.962  1.00  0.00     0.163 C
HETATM   10  N9  UNL     1      64.829  61.309  31.537  1.00  0.00    -0.173 N
ATOM     11  H9  UNL     1      65.082  62.075  30.913  1.00  0.00     0.186 HD
ENDROOT
BRANCH   9  12
HETATM   12  N5  UNL     1      63.511  60.599  29.856  1.00  0.00    -0.371 N
ATOM     13  H5  UNL     1      62.491  60.632  29.852  1.00  0.00     0.161 HD
BRANCH  12  14
HETATM   14  C6  UNL     1      64.201  60.868  28.615  1.00  0.00     0.141 C
BRANCH  14  15
HETATM   15  C7  UNL     1      63.242  60.503  27.479  1.00  0.00     0.141 C
BRANCH  15  16
HETATM   16  N6  UNL     1      63.286  59.099  27.166  1.00  0.00    -0.368 N
HETATM   17  C8  UNL     1      62.184  58.410  27.235  1.00  0.00     0.161 A
HETATM   18  N7  UNL     1      60.956  58.816  27.566  1.00  0.00    -0.279 N
HETATM   19  S1  UNL     1      61.922  56.746  26.925  1.00  0.00    -0.039 SA
HETATM   20  N8  UNL     1      60.011  57.974  27.572  1.00  0.00    -0.296 N
ATOM     21  H7  UNL     1      60.783  59.791  27.811  1.00  0.00     0.189 HD
HETATM   22  C9  UNL     1      60.232  56.709  27.253  1.00  0.00     0.066 A
ATOM     23  H8  UNL     1      59.069  58.274  27.825  1.00  0.00     0.187 HD
HETATM   24  C10 UNL     1      59.268  55.558  27.195  1.00  0.00     0.078 C
ATOM     25  H6  UNL     1      64.162  58.653  26.895  1.00  0.00     0.161 HD
ENDBRANCH  15  16
ENDBRANCH  14  15
ENDBRANCH  12  14
ENDBRANCH   9  12
BRANCH   8  26
HETATM   26  N4  UNL     1      63.497  58.138  30.535  1.00  0.00    -0.250 N
ATOM     27  H4  UNL     1      64.168  57.498  30.112  1.00  0.00     0.196 HD
BRANCH  26  28
HETATM   28  O2  UNL     1      62.165  58.076  30.202  1.00  0.00    -0.288 OA
ATOM     29  H2  UNL     1      61.779  57.228  30.018  1.00  0.00     0.244 HD
ENDBRANCH  26  28
ENDBRANCH   8  26
BRANCH   1  30
HETATM   30  N1  UNL     1      66.011  62.450  33.093  1.00  0.00    -0.230 N
HETATM   31  C1  UNL     1      65.548  63.769  32.743  1.00  0.00     0.165 C
ATOM     32  H1  UNL     1      66.909  62.323  33.560  1.00  0.00     0.177 HD
ENDBRANCH   1  30
TORSDOF 7
ENDMDL