MODEL 3
REMARK VINA RESULT: -5.328699649      2.188      4.345
REMARK  8 active torsions:
REMARK  status: ('A' for Active; 'I' for Inactive)
REMARK    1  A    between atoms: N1_2  and  C3_4
REMARK    2  A    between atoms: N4_11  and  N5_13
REMARK    3  A    between atoms: C6_16  and  S1_17
REMARK    4  A    between atoms: S1_17  and  N6_18
REMARK    5  A    between atoms: C9_24  and  N7_25
REMARK    6  A    between atoms: N7_25  and  C10_27
REMARK    7  A    between atoms: C10_27  and  C11_28
REMARK    8  A    between atoms: C11_28  and  O2_29
ROOT
HETATM    1  C3  UNL     1      64.399  61.140  27.021  1.00  0.00     0.682 A
HETATM    2  N2  UNL     1      64.808  61.446  28.255  1.00  0.00    -0.175 N
ATOM      3  H2  UNL     1      65.392  62.274  28.373  1.00  0.00     0.186 HD
HETATM    4  C4  UNL     1      64.498  60.737  29.345  1.00  0.00     0.136 A
HETATM    5  N3  UNL     1      64.926  61.072  30.582  1.00  0.00    -0.325 N
ATOM      6  H3  UNL     1      65.511  61.899  30.702  1.00  0.00     0.169 HD
HETATM    7  C5  UNL     1      64.594  60.330  31.669  1.00  0.00     0.142 A
HETATM    8  N4  UNL     1      65.017  60.678  32.819  1.00  0.00    -0.291 N
ATOM      9  H4  UNL     1      64.755  60.108  33.622  1.00  0.00     0.188 HD
HETATM   10  C6  UNL     1      63.808  59.206  31.568  1.00  0.00     0.098 A
HETATM   11  C7  UNL     1      63.369  58.863  30.297  1.00  0.00     0.045 A
HETATM   12  C8  UNL     1      63.712  59.625  29.188  1.00  0.00     0.054 A
HETATM   13  C9  UNL     1      63.272  59.280  27.917  1.00  0.00     0.131 A
HETATM   14  N8  UNL     1      63.633  60.056  26.866  1.00  0.00    -0.176 N
ATOM     15  H8  UNL     1      63.311  59.806  25.930  1.00  0.00     0.186 HD
ENDROOT
BRANCH  13  16
HETATM   16  N7  UNL     1      62.543  58.239  27.815  1.00  0.00    -0.373 N
ATOM     17  H7  UNL     1      62.966  57.318  27.923  1.00  0.00     0.161 HD
BRANCH  16  18
HETATM   18  C10 UNL     1      61.136  58.342  27.551  1.00  0.00     0.147 C
BRANCH  18  19
HETATM   19  C11 UNL     1      60.507  56.963  27.450  1.00  0.00     0.183 C
BRANCH  19  20
HETATM   20  O2  UNL     1      59.297  56.986  28.140  1.00  0.00    -0.399 OA
ATOM     21  H2  UNL     1      58.960  57.874  28.118  1.00  0.00     0.209 HD
ENDBRANCH  19  20
ENDBRANCH  18  19
ENDBRANCH  16  18
ENDBRANCH  13  16
BRANCH   1  22
HETATM   22  N1  UNL     1      64.777  61.958  25.894  1.00  0.00    -0.226 N
HETATM   23  C1  UNL     1      64.398  61.618  24.554  1.00  0.00     0.168 C
HETATM   24  C2  UNL     1      65.563  63.152  26.135  1.00  0.00     0.168 C
ENDBRANCH   1  22
BRANCH  10  25
HETATM   25  S1  UNL     1      63.336  58.197  32.920  1.00  0.00     0.147 S
HETATM   26  O1  UNL     1      63.264  58.957  34.229  1.00  0.00    -0.230 OA
BRANCH  25  27
HETATM   27  N6  UNL     1      64.295  56.747  33.038  1.00  0.00    -0.345 NA
ATOM     28  H62 UNL     1      63.761  55.952  33.386  1.00  0.00     0.166 HD
ATOM     29  H61 UNL     1      65.166  56.895  33.548  1.00  0.00     0.166 HD
ENDBRANCH  25  27
ENDBRANCH  10  25
BRANCH   8  30
HETATM   30  N5  UNL     1      65.820  61.799  33.039  1.00  0.00    -0.344 N
ATOM     31  H52 UNL     1      66.783  61.755  32.707  1.00  0.00     0.176 HD
ATOM     32  H51 UNL     1      65.493  62.644  33.508  1.00  0.00     0.176 HD
ENDBRANCH   8  30
TORSDOF 8
ENDMDL