MODEL 1
REMARK VINA RESULT: -8.381556532      0.000      0.000
REMARK  6 active torsions:
REMARK  status: ('A' for Active; 'I' for Inactive)
REMARK    1  A    between atoms: O1_2  and  C2_3
REMARK    2  A    between atoms: C6_7  and  C7_8
REMARK    3  A    between atoms: N1_9  and  N2_11
REMARK       I    between atoms: C8_13  and  N3_14
REMARK       I    between atoms: C8_13  and  N8_23
REMARK    4  A    between atoms: N3_14  and  N4_16
REMARK    5  A    between atoms: N4_16  and  N5_18
REMARK       I    between atoms: N8_23  and  C10_25
REMARK    6  A    between atoms: C11_28  and  O4_29
ROOT
HETATM    1  N2  UNL     1      63.183  59.829  30.527  1.00  0.00    -0.131 N
ATOM      2  H2  UNL     1      62.677  58.958  30.688  1.00  0.00     0.205 HD
HETATM    3  C8  UNL     1      63.908  60.311  31.465  1.00  0.00     0.717 C
HETATM    4  N3  UNL     1      64.608  61.520  31.235  1.00  0.00    -0.116 N
ATOM      5  H3  UNL     1      65.621  61.514  31.122  1.00  0.00     0.207 HD
HETATM    6  N8  UNL     1      63.986  59.620  32.696  1.00  0.00    -0.131 N
ATOM      7  H8  UNL     1      63.463  58.752  32.813  1.00  0.00     0.190 HD
HETATM    8  C10 UNL     1      64.769  60.102  33.768  1.00  0.00     0.302 C
HETATM    9  O2  UNL     1      65.417  61.165  33.644  1.00  0.00    -0.629 OA
HETATM   10  O3  UNL     1      64.824  59.405  34.954  1.00  0.00    -0.629 OA
ENDROOT
BRANCH   1  11
HETATM   11  N1  UNL     1      63.071  60.443  29.332  1.00  0.00    -0.297 N
HETATM   12  C7  UNL     1      62.646  60.128  28.214  1.00  0.00     0.122 C
ATOM     13  H1  UNL     1      63.422  61.401  29.356  1.00  0.00     0.186 HD
BRANCH  12  14
HETATM   14  C6  UNL     1      62.068  58.879  27.757  1.00  0.00     0.017 A
HETATM   15  C5  UNL     1      60.707  58.673  27.661  1.00  0.00     0.016 A
HETATM   16  C4  UNL     1      60.131  57.483  27.226  1.00  0.00     0.004 A
HETATM   17  C3  UNL     1      60.986  56.473  26.877  1.00  0.00     0.040 A
HETATM   18  C2  UNL     1      62.335  56.599  26.945  1.00  0.00     0.102 A
HETATM   19  C11 UNL     1      62.887  57.812  27.389  1.00  0.00     0.110 A
BRANCH  18  20
HETATM   20  O1  UNL     1      63.215  55.572  26.591  1.00  0.00    -0.353 OA
HETATM   21  C1  UNL     1      63.463  55.264  25.246  1.00  0.00     0.210 C
ENDBRANCH  18  20
BRANCH  19  22
HETATM   22  O4  UNL     1      64.242  57.900  27.442  1.00  0.00    -0.357 OA
ATOM     23  H4  UNL     1      64.682  57.439  28.147  1.00  0.00     0.217 HD
ENDBRANCH  19  22
ENDBRANCH  12  14
ENDBRANCH   1  11
BRANCH   4  24
HETATM   24  N4  UNL     1      63.899  62.721  31.166  1.00  0.00    -0.226 N
ATOM     25  H4  UNL     1      63.234  62.875  30.408  1.00  0.00     0.209 HD
BRANCH  24  26
HETATM   26  N5  UNL     1      64.095  63.707  32.123  1.00  0.00    -0.261 N
HETATM   27  C9  UNL     1      64.163  64.957  31.850  1.00  0.00     0.216 C
HETATM   28  N6  UNL     1      64.040  65.427  30.522  1.00  0.00    -0.065 NA
HETATM   29  N7  UNL     1      64.367  65.894  32.889  1.00  0.00    -0.065 NA
ATOM     30  H5  UNL     1      64.190  63.420  33.098  1.00  0.00     0.190 HD
ENDBRANCH  24  26
ENDBRANCH   4  24
TORSDOF 6
ENDMDL