MODEL 2
REMARK VINA RESULT: -7.648669546      1.628      2.449
REMARK  7 active torsions:
REMARK  status: ('A' for Active; 'I' for Inactive)
REMARK    1  A    between atoms: C2_2  and  C3_3
REMARK    2  A    between atoms: C5_5  and  N1_6
REMARK    3  A    between atoms: C6_11  and  N3_12
REMARK    4  A    between atoms: C8_14  and  C9_15
REMARK    5  A    between atoms: N4_16  and  N5_18
REMARK    6  A    between atoms: N5_18  and  C10_20
REMARK    7  A    between atoms: N10_31  and  O1_32
ROOT
HETATM    1  N3  UNL     1      63.936  58.149  30.461  1.00  0.00    -0.093 N
HETATM    2  C7  UNL     1      64.645  59.297  30.683  1.00  0.00     0.151 A
HETATM    3  C8  UNL     1      65.026  59.372  32.004  1.00  0.00     0.041 A
HETATM    4  C13 UNL     1      64.519  58.213  32.593  1.00  0.00     0.144 A
HETATM    5  N8  UNL     1      64.644  57.809  33.975  1.00  0.00    -0.080 NA
HETATM    6  N9  UNL     1      63.889  57.538  31.632  1.00  0.00    -0.266 N
ATOM      7  H9  UNL     1      63.421  56.644  31.784  1.00  0.00     0.189 HD
ENDROOT
BRANCH   1   8
HETATM    8  C6  UNL     1      63.382  57.734  29.219  1.00  0.00     0.731 A
HETATM    9  N2  UNL     1      64.161  57.061  28.358  1.00  0.00    -0.173 N
HETATM   10  C5  UNL     1      63.716  56.634  27.165  1.00  0.00     0.116 A
ATOM     11  H2  UNL     1      65.127  56.866  28.620  1.00  0.00     0.186 HD
HETATM   12  C4  UNL     1      62.401  56.895  26.800  1.00  0.00     0.076 A
HETATM   13  C3  UNL     1      61.608  57.583  27.680  1.00  0.00     0.062 A
HETATM   14  N10 UNL     1      62.110  57.983  28.857  1.00  0.00    -0.055 N
BRANCH  10  15
HETATM   15  N1  UNL     1      64.500  55.981  26.352  1.00  0.00    -0.385 N
ATOM     16  H12 UNL     1      65.132  55.260  26.699  1.00  0.00     0.157 HD
ATOM     17  H11 UNL     1      64.484  56.188  25.353  1.00  0.00     0.157 HD
ENDBRANCH  10  15
BRANCH  13  18
HETATM   18  C2  UNL     1      60.219  57.879  27.337  1.00  0.00     0.056 C
HETATM   19  C1  UNL     1      59.419  56.588  27.485  1.00  0.00     0.011 C
ENDBRANCH  13  18
BRANCH  14  20
HETATM   20  O1  UNL     1      61.327  58.681  29.765  1.00  0.00    -0.269 OA
ATOM     21  H1  UNL     1      61.587  58.758  30.675  1.00  0.00     0.245 HD
ENDBRANCH  14  20
ENDBRANCH   1   8
BRANCH   3  22
HETATM   22  C9  UNL     1      65.781  60.383  32.713  1.00  0.00     0.123 C
HETATM   23  N4  UNL     1      65.562  61.616  32.809  1.00  0.00    -0.308 N
ATOM     24  H4  UNL     1      66.218  62.169  33.361  1.00  0.00     0.186 HD
BRANCH  23  25
HETATM   25  N5  UNL     1      64.505  62.282  32.228  1.00  0.00    -0.272 N
ATOM     26  H5  UNL     1      63.681  61.750  31.950  1.00  0.00     0.190 HD
BRANCH  25  27
HETATM   27  C10 UNL     1      64.523  63.707  31.999  1.00  0.00     0.190 C
HETATM   28  N6  UNL     1      63.728  64.290  31.164  1.00  0.00    -0.360 N
HETATM   29  C11 UNL     1      63.966  65.717  31.139  1.00  0.00     0.142 C
ATOM     30  H6  UNL     1      63.027  63.809  30.599  1.00  0.00     0.162 HD
HETATM   31  C12 UNL     1      65.324  65.854  31.800  1.00  0.00     0.142 C
HETATM   32  N7  UNL     1      65.376  64.658  32.625  1.00  0.00    -0.360 N
ATOM     33  H7  UNL     1      65.916  64.527  33.481  1.00  0.00     0.162 HD
ENDBRANCH  25  27
ENDBRANCH  23  25
ENDBRANCH   3  22
TORSDOF 7
ENDMDL