MODEL 2
REMARK VINA RESULT: -7.553520823      0.381      1.104
REMARK  6 active torsions:
REMARK  status: ('A' for Active; 'I' for Inactive)
REMARK    1  A    between atoms: C1_2  and  N1_3
REMARK    2  A    between atoms: N1_3  and  C2_5
REMARK    3  A    between atoms: C3_8  and  N3_9
REMARK    4  A    between atoms: C8_19  and  N6_20
REMARK    5  A    between atoms: N6_20  and  N7_22
REMARK       I    between atoms: N7_22  and  C9_24
REMARK    6  A    between atoms: C9_24  and  C10_26
ROOT
HETATM    1  C2  UNL     1      64.249  59.557  32.564  1.00  0.00     0.713 A
HETATM    2  N2  UNL     1      63.723  58.828  31.565  1.00  0.00    -0.021 N
ATOM      3  H2  UNL     1      63.664  57.818  31.696  1.00  0.00     0.203 HD
HETATM    4  C3  UNL     1      63.272  59.333  30.408  1.00  0.00     0.709 A
HETATM    5  N5  UNL     1      63.364  60.680  30.259  1.00  0.00    -0.020 N
ATOM      6  H5  UNL     1      63.034  61.114  29.397  1.00  0.00     0.203 HD
HETATM    7  C8  UNL     1      63.882  61.449  31.229  1.00  0.00     0.726 A
HETATM    8  N8  UNL     1      64.328  60.888  32.391  1.00  0.00    -0.020 N
ATOM      9  H8  UNL     1      64.721  61.477  33.125  1.00  0.00     0.203 HD
ENDROOT
BRANCH   4  10
HETATM   10  N3  UNL     1      62.723  58.524  29.381  1.00  0.00    -0.213 N
HETATM   11  C4  UNL     1      63.571  57.622  28.641  1.00  0.00     0.168 C
HETATM   12  C5  UNL     1      63.197  57.646  27.153  1.00  0.00     0.252 C
HETATM   13  N4  UNL     1      61.805  57.344  26.966  1.00  0.00    -0.072 N
HETATM   14  C6  UNL     1      61.042  57.345  28.176  1.00  0.00     0.252 C
ATOM     15  H42 UNL     1      61.391  57.976  26.281  1.00  0.00     0.277 HD
ATOM     16  H41 UNL     1      61.694  56.458  26.472  1.00  0.00     0.277 HD
HETATM   17  C7  UNL     1      61.324  58.570  29.041  1.00  0.00     0.168 C
ENDBRANCH   4  10
BRANCH   1  18
HETATM   18  N1  UNL     1      64.665  58.995  33.655  1.00  0.00    -0.166 N
ATOM     19  H1  UNL     1      65.129  59.584  34.347  1.00  0.00     0.186 HD
BRANCH  18  20
HETATM   20  C1  UNL     1      64.521  57.635  33.946  1.00  0.00     0.368 C
HETATM   21  O1  UNL     1      63.381  57.117  34.069  1.00  0.00    -0.283 OA
ENDBRANCH  18  20
ENDBRANCH   1  18
BRANCH   7  22
HETATM   22  N6  UNL     1      63.944  62.715  31.036  1.00  0.00    -0.128 N
ATOM     23  H6  UNL     1      63.640  63.087  30.136  1.00  0.00     0.205 HD
BRANCH  22  24
HETATM   24  N7  UNL     1      64.411  63.609  32.005  1.00  0.00    -0.255 N
HETATM   25  C9  UNL     1      64.219  64.999  31.938  1.00  0.00     0.246 C
HETATM   26  O2  UNL     1      63.587  65.459  30.941  1.00  0.00    -0.271 OA
ATOM     27  H7  UNL     1      64.919  63.231  32.805  1.00  0.00     0.190 HD
BRANCH  25  28
HETATM   28  C10 UNL     1      64.742  65.877  33.001  1.00  0.00     0.190 C
HETATM   29  S1  UNL     1      66.528  65.588  33.195  1.00  0.00    -0.088 SA
ENDBRANCH  25  28
ENDBRANCH  22  24
ENDBRANCH   7  22
TORSDOF 6
ENDMDL