MODEL 1
REMARK VINA RESULT: -6.883510729      0.000      0.000
REMARK  5 active torsions:
REMARK  status: ('A' for Active; 'I' for Inactive)
REMARK    1  A    between atoms: N1_2  and  C3_4
REMARK    2  A    between atoms: C4_7  and  N3_8
REMARK       I    between atoms: N3_8  and  C5_10
REMARK       I    between atoms: C5_10  and  N4_11
REMARK       I    between atoms: C5_10  and  N5_15
REMARK    3  A    between atoms: C7_23  and  N7_24
REMARK    4  A    between atoms: N7_24  and  C8_26
REMARK    5  A    between atoms: C8_26  and  C9_27
ROOT
HETATM    1  C3  UNL     1      64.201  59.814  31.897  1.00  0.00     0.695 C
HETATM    2  N2  UNL     1      63.967  59.084  30.776  1.00  0.00    -0.171 N
ATOM      3  H2  UNL     1      64.000  58.072  30.898  1.00  0.00     0.186 HD
HETATM    4  C4  UNL     1      63.695  59.510  29.518  1.00  0.00     0.189 C
HETATM    5  C6  UNL     1      64.026  60.740  29.008  1.00  0.00     0.304 C
HETATM    6  O1  UNL     1      64.263  60.831  27.777  1.00  0.00    -0.263 OA
HETATM    7  N6  UNL     1      64.123  61.898  29.735  1.00  0.00    -0.152 N
ATOM      8  H6  UNL     1      64.332  62.733  29.186  1.00  0.00     0.187 HD
HETATM    9  C7  UNL     1      63.987  62.107  31.050  1.00  0.00     0.699 C
HETATM   10  N8  UNL     1      64.252  61.150  31.997  1.00  0.00    -0.022 N
ATOM     11  H8  UNL     1      64.529  61.507  32.912  1.00  0.00     0.203 HD
ENDROOT
BRANCH   4  12
HETATM   12  N3  UNL     1      63.094  58.685  28.797  1.00  0.00    -0.322 N
HETATM   13  C5  UNL     1      61.752  58.490  28.428  1.00  0.00     0.481 C
HETATM   14  N4  UNL     1      60.988  58.106  29.629  1.00  0.00    -0.033 N
HETATM   15  N5  UNL     1      61.591  57.363  27.487  1.00  0.00    -0.033 N
ATOM     16  H43 UNL     1      61.385  57.295  30.103  1.00  0.00     0.278 HD
ATOM     17  H42 UNL     1      61.091  58.777  30.389  1.00  0.00     0.278 HD
ATOM     18  H41 UNL     1      60.014  57.964  29.361  1.00  0.00     0.278 HD
ATOM     19  H53 UNL     1      62.187  57.479  26.667  1.00  0.00     0.278 HD
ATOM     20  H52 UNL     1      62.000  56.506  27.863  1.00  0.00     0.278 HD
ATOM     21  H51 UNL     1      60.617  57.221  27.219  1.00  0.00     0.278 HD
ATOM     22  H3  UNL     1      63.721  57.995  28.381  1.00  0.00     0.165 HD
ENDBRANCH   4  12
BRANCH   1  23
HETATM   23  N1  UNL     1      64.413  59.072  33.085  1.00  0.00    -0.226 N
HETATM   24  C1  UNL     1      64.494  57.628  33.098  1.00  0.00     0.168 C
HETATM   25  C2  UNL     1      64.548  59.836  34.318  1.00  0.00     0.168 C
ENDBRANCH   1  23
BRANCH   9  26
HETATM   26  N7  UNL     1      63.600  63.201  31.545  1.00  0.00    -0.204 N
ATOM     27  H7  UNL     1      62.787  63.184  32.161  1.00  0.00     0.183 HD
BRANCH  26  28
HETATM   28  C8  UNL     1      64.215  64.444  31.303  1.00  0.00     0.083 C
BRANCH  28  29
HETATM   29  C9  UNL     1      64.802  65.108  32.515  1.00  0.00     0.028 C
HETATM   30  C10 UNL     1      66.242  65.518  32.327  1.00  0.00     0.036 C
HETATM   31  C11 UNL     1      66.738  65.918  33.702  1.00  0.00     0.168 C
HETATM   32  O2  UNL     1      66.011  66.945  34.257  1.00  0.00    -0.391 OA
HETATM   33  C12 UNL     1      64.655  66.681  34.359  1.00  0.00     0.168 C
HETATM   34  C13 UNL     1      64.053  66.305  33.007  1.00  0.00     0.036 C
ENDBRANCH  28  29
ENDBRANCH  26  28
ENDBRANCH   9  26
TORSDOF 5
ENDMDL