MODEL 4
REMARK VINA RESULT: -5.979839745      2.304      3.157
REMARK  5 active torsions:
REMARK  status: ('A' for Active; 'I' for Inactive)
REMARK       I    between atoms: C2_2  and  N1_4
REMARK    1  A    between atoms: N1_4  and  C3_6
REMARK    2  A    between atoms: N4_11  and  C4_12
REMARK    3  A    between atoms: C4_12  and  O2_13
REMARK    4  A    between atoms: O2_13  and  C5_14
REMARK       I    between atoms: N6_18  and  C7_20
REMARK    5  A    between atoms: C8_25  and  N9_26
REMARK       I    between atoms: N9_26  and  C9_28
ROOT
HETATM    1  C3  UNL     1      64.255  62.093  31.252  1.00  0.00     0.155 A
HETATM    2  N2  UNL     1      63.705  62.348  30.047  1.00  0.00    -0.269 N
ATOM      3  H2  UNL     1      63.523  63.307  29.754  1.00  0.00     0.190 HD
HETATM    4  N3  UNL     1      63.412  61.354  29.269  1.00  0.00    -0.235 N
ATOM      5  H3  UNL     1      62.997  61.562  28.361  1.00  0.00     0.208 HD
HETATM    6  N4  UNL     1      63.620  60.089  29.584  1.00  0.00    -0.235 N
HETATM    7  C6  UNL     1      64.173  59.735  30.785  1.00  0.00     0.159 A
HETATM    8  N6  UNL     1      64.331  58.530  31.005  1.00  0.00    -0.314 N
ATOM      9  H6  UNL     1      64.009  57.964  30.220  1.00  0.00     0.170 HD
HETATM   10  C7  UNL     1      64.823  57.741  32.021  1.00  0.00     0.187 C
HETATM   11  N7  UNL     1      64.290  57.508  33.153  1.00  0.00    -0.373 N
ATOM     12  H71 UNL     1      64.654  56.924  33.905  1.00  0.00     0.158 HD
ATOM     13  H72 UNL     1      63.397  57.968  33.332  1.00  0.00     0.158 HD
HETATM   14  N8  UNL     1      66.093  57.086  31.767  1.00  0.00    -0.064 NA
HETATM   15  C8  UNL     1      64.496  60.760  31.632  1.00  0.00     0.127 A
ENDROOT
BRANCH   6  16
HETATM   16  C4  UNL     1      63.254  59.077  28.641  1.00  0.00     0.332 C
BRANCH  16  17
HETATM   17  O2  UNL     1      61.871  59.050  28.359  1.00  0.00    -0.285 OA
BRANCH  17  18
HETATM   18  C5  UNL     1      61.114  58.087  29.015  1.00  0.00     0.374 C
HETATM   19  N5  UNL     1      60.279  57.169  28.316  1.00  0.00    -0.032 NA
HETATM   20  O3  UNL     1      61.140  57.988  30.288  1.00  0.00    -0.242 OA
ENDBRANCH  17  18
ENDBRANCH  16  17
ENDBRANCH   6  16
BRANCH  15  21
HETATM   21  N9  UNL     1      65.071  60.586  32.908  1.00  0.00    -0.321 N
HETATM   22  C9  UNL     1      64.285  60.230  34.059  1.00  0.00     0.218 C
HETATM   23  C10 UNL     1      64.871  60.045  35.398  1.00  0.00     0.117 C
HETATM   24  O4  UNL     1      63.051  60.078  33.883  1.00  0.00    -0.274 OA
ATOM     25  H9  UNL     1      66.076  60.716  33.018  1.00  0.00     0.169 HD
ENDBRANCH  15  21
BRANCH   1  26
HETATM   26  N1  UNL     1      64.584  63.160  32.120  1.00  0.00    -0.310 N
HETATM   27  C2  UNL     1      64.103  64.461  31.876  1.00  0.00     0.219 C
HETATM   28  C1  UNL     1      64.449  65.590  32.790  1.00  0.00     0.117 C
HETATM   29  O1  UNL     1      63.360  64.706  30.868  1.00  0.00    -0.274 OA
ATOM     30  H1  UNL     1      65.176  62.985  32.932  1.00  0.00     0.170 HD
ENDBRANCH   1  26
TORSDOF 5
ENDMDL