MODEL 5
REMARK VINA RESULT: -6.402700069      1.993      7.179
REMARK  10 active torsions:
REMARK  status: ('A' for Active; 'I' for Inactive)
REMARK    1  A    between atoms: O1_2  and  C2_3
REMARK    2  A    between atoms: C2_3  and  C3_5
REMARK    3  A    between atoms: C6_8  and  N1_9
REMARK    4  A    between atoms: N1_9  and  C7_11
REMARK    5  A    between atoms: C7_11  and  O3_12
REMARK    6  A    between atoms: C7_11  and  C8_14
REMARK    7  A    between atoms: C9_15  and  O4_16
REMARK    8  A    between atoms: C10_18  and  N2_19
REMARK    9  A    between atoms: N4_24  and  C11_25
REMARK   10  A    between atoms: C12_31  and  N7_32
ROOT
HETATM    1  C8  UNL     1      24.064 -45.693   2.810  1.00  0.00     0.121 A
HETATM    2  C9  UNL     1      22.843 -46.190   2.366  1.00  0.00     0.140 A
HETATM    3  C10 UNL     1      23.096 -47.093   1.357  1.00  0.00     0.150 A
HETATM    4  N3  UNL     1      24.415 -47.127   1.213  1.00  0.00    -0.275 N
ATOM      5  H3  UNL     1      24.908 -47.709   0.536  1.00  0.00     0.189 HD
HETATM    6  N4  UNL     1      25.019 -46.286   2.084  1.00  0.00    -0.230 N
ENDROOT
BRANCH   1   7
HETATM    7  C7  UNL     1      24.208 -44.689   3.910  1.00  0.00     0.275 C
BRANCH   7   8
HETATM    8  N1  UNL     1      23.493 -44.943   5.043  1.00  0.00    -0.344 N
ATOM      9  H1  UNL     1      22.523 -44.674   4.874  1.00  0.00     0.164 HD
BRANCH   8  10
HETATM   10  C6  UNL     1      23.579 -45.378   6.206  1.00  0.00     0.119 A
HETATM   11  C5  UNL     1      23.624 -44.437   7.275  1.00  0.00     0.052 A
HETATM   12  C4  UNL     1      23.716 -44.772   8.577  1.00  0.00     0.041 A
HETATM   13  C3  UNL     1      23.770 -46.099   8.925  1.00  0.00     0.123 A
HETATM   14  N9  UNL     1      23.727 -46.977   7.915  1.00  0.00    -0.292 N
HETATM   15  N8  UNL     1      23.637 -46.652   6.628  1.00  0.00    -0.281 N
ATOM     16  H9  UNL     1      23.766 -47.969   8.150  1.00  0.00     0.187 HD
HETATM   17  C13 UNL     1      23.604 -47.747   5.701  1.00  0.00     0.179 C
BRANCH  13  18
HETATM   18  C2  UNL     1      23.870 -46.514  10.318  1.00  0.00     0.311 C
HETATM   19  O2  UNL     1      24.930 -47.008  10.774  1.00  0.00    -0.258 OA
BRANCH  18  20
HETATM   20  O1  UNL     1      22.788 -46.368  11.168  1.00  0.00    -0.321 OA
HETATM   21  C1  UNL     1      21.782 -47.372  11.169  1.00  0.00     0.213 C
ENDBRANCH  18  20
ENDBRANCH  13  18
ENDBRANCH   8  10
ENDBRANCH   7   8
BRANCH   7  22
HETATM   22  O3  UNL     1      23.857 -43.404   3.402  1.00  0.00    -0.371 OA
ATOM     23  H3  UNL     1      23.579 -43.485   2.498  1.00  0.00     0.212 HD
ENDBRANCH   7  22
ENDBRANCH   1   7
BRANCH   2  24
HETATM   24  O4  UNL     1      21.594 -45.835   2.857  1.00  0.00    -0.355 OA
ATOM     25  H4  UNL     1      20.770 -46.253   2.636  1.00  0.00     0.218 HD
ENDBRANCH   2  24
BRANCH   6  26
HETATM   26  C11 UNL     1      26.416 -46.084   2.197  1.00  0.00     0.195 A
HETATM   27  N5  UNL     1      27.244 -45.465   1.341  1.00  0.00    -0.220 N
HETATM   28  O5  UNL     1      28.464 -45.496   1.803  1.00  0.00    -0.153 OA
ATOM     29  H5  UNL     1      26.961 -45.034   0.461  1.00  0.00     0.198 HD
HETATM   30  N6  UNL     1      28.512 -46.113   2.944  1.00  0.00    -0.222 N
HETATM   31  C12 UNL     1      27.230 -46.499   3.224  1.00  0.00     0.169 A
ATOM     32  H6  UNL     1      29.340 -46.277   3.517  1.00  0.00     0.198 HD
BRANCH  31  33
HETATM   33  N7  UNL     1      26.929 -47.142   4.291  1.00  0.00    -0.381 N
ATOM     34  H72 UNL     1      27.588 -47.771   4.750  1.00  0.00     0.157 HD
ATOM     35  H71 UNL     1      26.057 -47.144   4.822  1.00  0.00     0.157 HD
ENDBRANCH  31  33
ENDBRANCH   6  26
BRANCH   3  36
HETATM   36  N2  UNL     1      22.190 -47.764   0.697  1.00  0.00    -0.382 N
ATOM     37  H22 UNL     1      21.433 -47.404   0.116  1.00  0.00     0.157 HD
ATOM     38  H21 UNL     1      22.112 -48.781   0.669  1.00  0.00     0.157 HD
ENDBRANCH   3  36
TORSDOF 10
ENDMDL