MODEL 1
REMARK VINA RESULT: -7.267828592      0.000      0.000
REMARK  10 active torsions:
REMARK  status: ('A' for Active; 'I' for Inactive)
REMARK    1  A    between atoms: C2_2  and  N1_4
REMARK    2  A    between atoms: N1_4  and  C4_6
REMARK    3  A    between atoms: C5_7  and  O1_8
REMARK    4  A    between atoms: N2_11  and  O2_13
REMARK    5  A    between atoms: C7_16  and  O4_17
REMARK    6  A    between atoms: O4_17  and  C8_18
REMARK    7  A    between atoms: C11_22  and  O6_23
REMARK    8  A    between atoms: C12_25  and  O7_26
REMARK    9  A    between atoms: C13_28  and  O8_29
REMARK   10  A    between atoms: C14_31  and  O9_32
ROOT
HETATM    1  C4  UNL     1      23.725 -45.575   7.303  1.00  0.00     0.147 C
HETATM    2  C5  UNL     1      22.942 -44.309   7.352  1.00  0.00     0.219 C
HETATM    3  C6  UNL     1      22.832 -43.747   5.958  1.00  0.00     0.171 C
HETATM    4  N2  UNL     1      21.893 -42.883   5.672  1.00  0.00    -0.249 N
ATOM      5  H2  UNL     1      21.816 -42.500   4.729  1.00  0.00     0.196 HD
HETATM    6  O3  UNL     1      23.723 -44.147   4.988  1.00  0.00    -0.301 OA
HETATM    7  C7  UNL     1      24.062 -45.538   4.824  1.00  0.00     0.301 C
HETATM    8  C14 UNL     1      23.460 -46.325   5.974  1.00  0.00     0.199 C
ENDROOT
BRANCH   7   9
HETATM    9  O4  UNL     1      25.427 -45.658   4.891  1.00  0.00    -0.326 OA
BRANCH   9  10
HETATM   10  C8  UNL     1      26.021 -45.822   3.643  1.00  0.00     0.294 C
HETATM   11  O5  UNL     1      25.026 -45.972   2.690  1.00  0.00    -0.351 OA
HETATM   12  C9  UNL     1      25.510 -45.885   1.394  1.00  0.00     0.152 C
HETATM   13  C10 UNL     1      24.775 -46.779   0.414  1.00  0.00     0.042 C
HETATM   14  C11 UNL     1      26.970 -46.078   1.261  1.00  0.00     0.178 C
HETATM   15  C12 UNL     1      27.627 -46.985   2.242  1.00  0.00     0.183 C
HETATM   16  C13 UNL     1      26.908 -47.046   3.568  1.00  0.00     0.204 C
BRANCH  14  17
HETATM   17  O6  UNL     1      27.597 -44.832   1.172  1.00  0.00    -0.390 OA
ATOM     18  H6  UNL     1      28.453 -44.880   1.581  1.00  0.00     0.210 HD
ENDBRANCH  14  17
BRANCH  15  19
HETATM   19  O7  UNL     1      28.900 -46.433   2.525  1.00  0.00    -0.390 OA
ATOM     20  H7  UNL     1      29.526 -47.146   2.480  1.00  0.00     0.210 HD
ENDBRANCH  15  19
BRANCH  16  21
HETATM   21  O8  UNL     1      27.810 -47.022   4.635  1.00  0.00    -0.388 OA
ATOM     22  H8  UNL     1      27.421 -47.466   5.380  1.00  0.00     0.210 HD
ENDBRANCH  16  21
ENDBRANCH   9  10
ENDBRANCH   7   9
BRANCH   8  23
HETATM   23  O9  UNL     1      22.131 -46.605   5.822  1.00  0.00    -0.388 OA
ATOM     24  H9  UNL     1      21.943 -47.507   6.052  1.00  0.00     0.210 HD
ENDBRANCH   8  23
BRANCH   1  25
HETATM   25  N1  UNL     1      23.583 -46.528   8.318  1.00  0.00    -0.408 N
ATOM     26  H1  UNL     1      23.303 -47.471   8.049  1.00  0.00     0.154 HD
BRANCH  25  27
HETATM   27  C2  UNL     1      23.799 -46.275   9.676  1.00  0.00     0.069 C
HETATM   28  C1  UNL     1      23.084 -47.176  10.634  1.00  0.00     0.031 C
HETATM   29  C3  UNL     1      25.306 -46.337  10.018  1.00  0.00     0.031 C
ENDBRANCH  25  27
ENDBRANCH   1  25
BRANCH   2  30
HETATM   30  O1  UNL     1      23.667 -43.327   8.053  1.00  0.00    -0.385 OA
ATOM     31  H1  UNL     1      23.431 -42.464   7.734  1.00  0.00     0.210 HD
ENDBRANCH   2  30
BRANCH   4  32
HETATM   32  O2  UNL     1      21.010 -42.493   6.655  1.00  0.00    -0.288 OA
ATOM     33  H2  UNL     1      20.708 -41.592   6.681  1.00  0.00     0.244 HD
ENDBRANCH   4  32
TORSDOF 10
ENDMDL