MODEL 3
REMARK VINA RESULT: -6.283534537      2.254      6.427
REMARK  7 active torsions:
REMARK  status: ('A' for Active; 'I' for Inactive)
REMARK    1  A    between atoms: C3_6  and  S1_7
REMARK    2  A    between atoms: S1_7  and  C4_8
REMARK    3  A    between atoms: N3_9  and  N4_11
REMARK    4  A    between atoms: N4_11  and  C5_13
REMARK       I    between atoms: N8_21  and  C8_22
REMARK       I    between atoms: C8_22  and  N10_26
REMARK    5  A    between atoms: N10_26  and  N11_28
REMARK    6  A    between atoms: C10_32  and  C11_33
REMARK       I    between atoms: C11_33  and  N12_35
REMARK    7  A    between atoms: N12_35  and  N13_37
ROOT
HETATM    1  C1  UNL     1      21.253 -42.943   5.915  1.00  0.00     0.231 C
HETATM    2  N1  UNL     1      22.377 -43.452   5.413  1.00  0.00    -0.410 NA
HETATM    3  C2  UNL     1      23.399 -43.900   4.957  1.00  0.00     0.196 A
HETATM    4  N2  UNL     1      23.553 -45.280   4.878  1.00  0.00    -0.310 N
ATOM      5  H2  UNL     1      22.799 -45.860   5.247  1.00  0.00     0.170 HD
HETATM    6  C3  UNL     1      24.596 -45.895   4.363  1.00  0.00     0.174 A
HETATM    7  N8  UNL     1      25.580 -45.132   3.877  1.00  0.00    -0.134 N
HETATM    8  C8  UNL     1      26.701 -45.784   3.287  1.00  0.00     0.698 C
HETATM    9  N9  UNL     1      27.782 -45.884   3.948  1.00  0.00    -0.233 N
ATOM     10  H91 UNL     1      28.585 -46.352   3.527  1.00  0.00     0.174 HD
ATOM     11  H92 UNL     1      27.828 -45.501   4.892  1.00  0.00     0.174 HD
HETATM   12  N10 UNL     1      26.636 -46.318   1.972  1.00  0.00    -0.138 N
ATOM     13  H10 UNL     1      27.490 -46.543   1.462  1.00  0.00     0.205 HD
HETATM   14  C9  UNL     1      25.517 -43.795   3.911  1.00  0.00     0.139 A
HETATM   15  C10 UNL     1      24.414 -43.115   4.460  1.00  0.00     0.108 A
ENDROOT
BRANCH  15  16
HETATM   16  C11 UNL     1      24.509 -41.673   4.528  1.00  0.00     0.275 C
HETATM   17  O1  UNL     1      25.406 -41.153   3.765  1.00  0.00    -0.266 OA
HETATM   18  N12 UNL     1      23.758 -40.813   5.318  1.00  0.00    -0.272 N
ATOM     19  H12 UNL     1      23.045 -41.197   5.938  1.00  0.00     0.189 HD
BRANCH  18  20
HETATM   20  N13 UNL     1      23.965 -39.414   5.276  1.00  0.00    -0.342 N
ATOM     21 2H13 UNL     1      24.906 -39.068   5.087  1.00  0.00     0.176 HD
ATOM     22 1H13 UNL     1      23.196 -38.763   5.432  1.00  0.00     0.176 HD
ENDBRANCH  18  20
ENDBRANCH  15  16
BRANCH   6  23
HETATM   23  S1  UNL     1      24.707 -47.713   4.377  1.00  0.00    -0.046 SA
BRANCH  23  24
HETATM   24  C4  UNL     1      23.232 -48.314   5.253  1.00  0.00     0.160 C
HETATM   25  N3  UNL     1      23.030 -48.186   6.443  1.00  0.00    -0.291 N
ATOM     26  H3  UNL     1      22.142 -48.586   6.746  1.00  0.00     0.187 HD
BRANCH  25  27
HETATM   27  N4  UNL     1      23.731 -47.627   7.452  1.00  0.00    -0.130 N
ATOM     28  H4  UNL     1      24.686 -47.319   7.264  1.00  0.00     0.205 HD
BRANCH  27  29
HETATM   29  C5  UNL     1      23.256 -47.461   8.651  1.00  0.00     0.714 A
HETATM   30  N5  UNL     1      22.750 -48.351   9.490  1.00  0.00    -0.130 N
HETATM   31  N6  UNL     1      22.395 -47.769  10.629  1.00  0.00    -0.281 N
ATOM     32  H5  UNL     1      22.646 -49.345   9.289  1.00  0.00     0.205 HD
HETATM   33  C6  UNL     1      22.673 -46.477  10.532  1.00  0.00     0.217 A
ATOM     34  H6  UNL     1      21.981 -48.235  11.436  1.00  0.00     0.188 HD
HETATM   35  N7  UNL     1      23.214 -46.285   9.289  1.00  0.00    -0.180 N
HETATM   36  C7  UNL     1      23.638 -44.985   8.846  1.00  0.00     0.176 C
ENDBRANCH  27  29
ENDBRANCH  25  27
ENDBRANCH  23  24
ENDBRANCH   6  23
BRANCH  12  37
HETATM   37  N11 UNL     1      25.361 -46.535   1.376  1.00  0.00    -0.331 N
ATOM     38 2H11 UNL     1      24.558 -45.996   1.699  1.00  0.00     0.177 HD
ATOM     39 1H11 UNL     1      25.274 -47.227   0.633  1.00  0.00     0.177 HD
ENDBRANCH  12  37
TORSDOF 7
ENDMDL