MODEL 1
REMARK VINA RESULT: -6.840258361      0.000      0.000
REMARK  9 active torsions:
REMARK  status: ('A' for Active; 'I' for Inactive)
REMARK    1  A    between atoms: N1_1  and  C1_4
REMARK    2  A    between atoms: C5_12  and  C6_13
REMARK    3  A    between atoms: C6_13  and  O1_14
REMARK    4  A    between atoms: C6_13  and  C7_16
REMARK    5  A    between atoms: C7_16  and  O2_17
REMARK    6  A    between atoms: C7_16  and  C8_19
REMARK    7  A    between atoms: C8_19  and  O3_20
REMARK    8  A    between atoms: C8_19  and  O4_22
REMARK    9  A    between atoms: C9_26  and  N5_27
ROOT
HETATM    1  C1  UNL     1      23.019 -47.334  10.042  1.00  0.00     0.692 A
HETATM    2  N2  UNL     1      22.887 -46.002  10.092  1.00  0.00    -0.171 N
ATOM      3  H2  UNL     1      22.540 -45.470  10.889  1.00  0.00     0.186 HD
HETATM    4  C2  UNL     1      23.288 -45.480   8.919  1.00  0.00     0.175 A
HETATM    5  C3  UNL     1      23.602 -44.623   7.901  1.00  0.00     0.126 A
HETATM    6  N3  UNL     1      23.561 -43.308   7.719  1.00  0.00    -0.358 N
ATOM      7  H3  UNL     1      23.247 -42.809   8.552  1.00  0.00     0.165 HD
HETATM    8  C4  UNL     1      23.838 -42.465   6.680  1.00  0.00     0.117 C
HETATM    9  C5  UNL     1      24.301 -42.629   5.399  1.00  0.00     0.073 C
HETATM   10  N4  UNL     1      24.688 -43.710   4.712  1.00  0.00    -0.191 N
ATOM     11  H4  UNL     1      24.942 -43.431   3.764  1.00  0.00     0.184 HD
HETATM   12  C9  UNL     1      24.856 -45.024   4.839  1.00  0.00     0.682 C
HETATM   13  N7  UNL     1      24.502 -45.887   5.810  1.00  0.00    -0.172 N
ATOM     14  H7  UNL     1      24.629 -46.862   5.541  1.00  0.00     0.186 HD
HETATM   15  C14 UNL     1      24.013 -45.746   7.070  1.00  0.00     0.175 A
HETATM   16  N8  UNL     1      23.680 -46.510   8.115  1.00  0.00    -0.203 N
HETATM   17  N9  UNL     1      23.507 -47.625   8.818  1.00  0.00    -0.122 N
ATOM     18  H9  UNL     1      23.714 -48.565   8.481  1.00  0.00     0.206 HD
ENDROOT
BRANCH   9  19
HETATM   19  C6  UNL     1      24.387 -41.390   4.641  1.00  0.00     0.203 C
BRANCH  19  20
HETATM   20  O1  UNL     1      24.387 -40.297   5.522  1.00  0.00    -0.387 OA
ATOM     21  H1  UNL     1      23.494 -40.070   5.749  1.00  0.00     0.210 HD
ENDBRANCH  19  20
BRANCH  19  22
HETATM   22  C7  UNL     1      23.269 -41.164   3.663  1.00  0.00     0.207 C
BRANCH  22  23
HETATM   23  O2  UNL     1      22.507 -42.312   3.450  1.00  0.00    -0.388 OA
ATOM     24  H2  UNL     1      21.896 -42.479   4.159  1.00  0.00     0.210 HD
ENDBRANCH  22  23
BRANCH  22  25
HETATM   25  C8  UNL     1      23.738 -40.549   2.366  1.00  0.00     0.285 C
BRANCH  25  26
HETATM   26  O3  UNL     1      24.672 -39.538   2.558  1.00  0.00    -0.369 OA
ATOM     27  H3  UNL     1      24.421 -38.723   2.141  1.00  0.00     0.212 HD
ENDBRANCH  25  26
BRANCH  25  28
HETATM   28  O4  UNL     1      24.387 -41.558   1.642  1.00  0.00    -0.369 OA
ATOM     29  H4  UNL     1      23.716 -42.053   1.186  1.00  0.00     0.212 HD
ENDBRANCH  25  28
ENDBRANCH  22  25
ENDBRANCH  19  22
ENDBRANCH   9  19
BRANCH  12  30
HETATM   30  N5  UNL     1      25.537 -45.660   3.753  1.00  0.00    -0.214 N
HETATM   31  C10 UNL     1      25.983 -47.014   3.781  1.00  0.00     0.168 C
HETATM   32  C11 UNL     1      27.453 -47.139   3.399  1.00  0.00     0.252 C
HETATM   33  N6  UNL     1      27.908 -45.933   2.715  1.00  0.00    -0.072 N
HETATM   34  C12 UNL     1      26.884 -45.530   1.769  1.00  0.00     0.252 C
ATOM     35  H62 UNL     1      28.159 -45.186   3.363  1.00  0.00     0.277 HD
ATOM     36  H61 UNL     1      28.822 -46.052   2.278  1.00  0.00     0.277 HD
HETATM   37  C13 UNL     1      25.775 -44.862   2.565  1.00  0.00     0.168 C
ENDBRANCH  12  30
BRANCH   1  38
HETATM   38  N1  UNL     1      22.731 -48.183  10.989  1.00  0.00    -0.233 N
ATOM     39  H12 UNL     1      21.861 -48.234  11.518  1.00  0.00     0.174 HD
ATOM     40  H11 UNL     1      23.330 -48.927  11.346  1.00  0.00     0.174 HD
ENDBRANCH   1  38
TORSDOF 9
ENDMDL