MODEL 5
REMARK VINA RESULT: -6.802976171      1.546      4.763
REMARK  8 active torsions:
REMARK  status: ('A' for Active; 'I' for Inactive)
REMARK    1  A    between atoms: N2_5  and  C3_6
REMARK    2  A    between atoms: N5_14  and  C7_16
REMARK    3  A    between atoms: C7_16  and  O1_17
REMARK    4  A    between atoms: C7_16  and  C8_19
REMARK    5  A    between atoms: C8_19  and  N6_20
REMARK    6  A    between atoms: C8_19  and  C9_24
REMARK    7  A    between atoms: C11_26  and  N7_27
REMARK    8  A    between atoms: N7_27  and  N8_29
ROOT
HETATM    1  C3  UNL     1      22.612 -43.238   6.188  1.00  0.00     0.170 A
HETATM    2  N3  UNL     1      21.555 -42.545   6.560  1.00  0.00    -0.282 N
ATOM      3  H3  UNL     1      21.054 -42.852   7.393  1.00  0.00     0.188 HD
HETATM    4  N4  UNL     1      21.099 -41.477   5.924  1.00  0.00    -0.310 N
ATOM      5  H4  UNL     1      20.273 -40.992   6.275  1.00  0.00     0.186 HD
HETATM    6  C4  UNL     1      21.717 -41.028   4.820  1.00  0.00     0.109 A
HETATM    7  C5  UNL     1      22.841 -41.741   4.400  1.00  0.00     0.052 A
HETATM    8  C6  UNL     1      23.335 -42.848   5.039  1.00  0.00     0.079 A
HETATM    9  N5  UNL     1      24.349 -43.538   4.709  1.00  0.00    -0.359 N
ATOM     10  H5  UNL     1      24.538 -44.325   5.329  1.00  0.00     0.162 HD
ENDROOT
BRANCH   9  11
HETATM   11  C7  UNL     1      25.259 -43.414   3.641  1.00  0.00     0.251 C
BRANCH  11  12
HETATM   12  O1  UNL     1      25.970 -42.233   3.553  1.00  0.00    -0.375 OA
ATOM     13  H1  UNL     1      26.382 -42.036   2.720  1.00  0.00     0.212 HD
ENDBRANCH  11  12
BRANCH  11  14
HETATM   14  C8  UNL     1      26.238 -44.574   3.541  1.00  0.00     0.263 C
BRANCH  14  15
HETATM   15  N6  UNL     1      26.557 -44.859   2.182  1.00  0.00    -0.068 N
ATOM     16  H63 UNL     1      26.052 -45.678   1.842  1.00  0.00     0.275 HD
ATOM     17  H62 UNL     1      26.165 -44.161   1.550  1.00  0.00     0.275 HD
ATOM     18  H61 UNL     1      27.564 -44.959   2.055  1.00  0.00     0.275 HD
ENDBRANCH  14  15
BRANCH  14  19
HETATM   19  C9  UNL     1      25.599 -45.777   4.224  1.00  0.00     0.194 C
HETATM   20  C10 UNL     1      26.573 -46.869   4.507  1.00  0.00     0.116 C
HETATM   21  C11 UNL     1      25.806 -48.101   4.222  1.00  0.00     0.118 C
HETATM   22  N9  UNL     1      24.749 -47.771   3.578  1.00  0.00    -0.253 N
HETATM   23  O2  UNL     1      24.665 -46.423   3.363  1.00  0.00    -0.271 OA
ATOM     24  H9  UNL     1      24.047 -48.440   3.260  1.00  0.00     0.195 HD
BRANCH  21  25
HETATM   25  N7  UNL     1      26.171 -49.433   4.594  1.00  0.00    -0.294 N
ATOM     26  H7  UNL     1      25.438 -50.104   4.822  1.00  0.00     0.187 HD
BRANCH  25  27
HETATM   27  N8  UNL     1      27.486 -49.830   4.654  1.00  0.00    -0.344 N
ATOM     28  H82 UNL     1      27.966 -49.775   5.552  1.00  0.00     0.176 HD
ATOM     29  H81 UNL     1      27.979 -50.171   3.829  1.00  0.00     0.176 HD
ENDBRANCH  25  27
ENDBRANCH  21  25
ENDBRANCH  14  19
ENDBRANCH  11  14
ENDBRANCH   9  11
BRANCH   1  30
HETATM   30  N2  UNL     1      23.083 -44.396   6.904  1.00  0.00    -0.216 N
HETATM   31  N1  UNL     1      23.745 -44.448   8.041  1.00  0.00    -0.293 N
HETATM   32  C2  UNL     1      23.999 -45.740   8.369  1.00  0.00     0.054 A
ATOM     33  H1  UNL     1      24.026 -43.637   8.593  1.00  0.00     0.187 HD
HETATM   34  C1  UNL     1      24.717 -46.246   9.565  1.00  0.00     0.072 C
HETATM   35  C13 UNL     1      23.463 -46.548   7.377  1.00  0.00     0.116 A
HETATM   36  C12 UNL     1      22.897 -45.658   6.474  1.00  0.00     0.172 A
HETATM   37  N12 UNL     1      23.275 -47.807   6.946  1.00  0.00    -0.279 N
HETATM   38  N10 UNL     1      22.375 -46.438   5.508  1.00  0.00    -0.266 N
HETATM   39  N11 UNL     1      22.611 -47.704   5.808  1.00  0.00    -0.020 NA
ATOM     40  H10 UNL     1      21.879 -46.107   4.681  1.00  0.00     0.186 HD
ATOM     41  H12 UNL     1      23.582 -48.666   7.403  1.00  0.00     0.184 HD
ENDBRANCH   1  30
TORSDOF 8
ENDMDL