MODEL 3
REMARK VINA RESULT: -6.403864402      0.480      1.433
REMARK  10 active torsions:
REMARK  status: ('A' for Active; 'I' for Inactive)
REMARK    1  A    between atoms: C2_2  and  C3_3
REMARK    2  A    between atoms: C2_2  and  N2_18
REMARK       I    between atoms: C3_3  and  N1_5
REMARK    3  A    between atoms: N1_5  and  C4_7
REMARK    4  A    between atoms: C5_9  and  O3_10
REMARK    5  A    between atoms: C6_12  and  O4_13
REMARK    6  A    between atoms: C7_15  and  O5_16
REMARK    7  A    between atoms: C8_21  and  C9_22
REMARK    8  A    between atoms: C9_22  and  N4_24
REMARK    9  A    between atoms: C9_22  and  C11_28
REMARK   10  A    between atoms: N6_31  and  N7_32
ROOT
HETATM    1  N2  UNL     1      22.768 -45.138   5.586  1.00  0.00    -0.226 N
HETATM    2  N3  UNL     1      23.130 -43.883   5.787  1.00  0.00    -0.278 N
ATOM      3  H3  UNL     1      24.036 -43.583   6.149  1.00  0.00     0.189 HD
HETATM    4  C8  UNL     1      22.109 -43.051   5.437  1.00  0.00     0.168 A
HETATM    5  N6  UNL     1      21.097 -43.815   5.011  1.00  0.00    -0.194 N
HETATM    6  C12 UNL     1      21.532 -45.099   5.115  1.00  0.00     0.364 A
HETATM    7  O7  UNL     1      20.797 -46.086   4.784  1.00  0.00    -0.243 OA
ENDROOT
BRANCH   1   8
HETATM    8  C2  UNL     1      23.557 -46.351   5.830  1.00  0.00     0.201 C
HETATM    9  C1  UNL     1      24.267 -46.143   7.149  1.00  0.00     0.044 C
BRANCH   8  10
HETATM   10  C3  UNL     1      24.500 -46.582   4.733  1.00  0.00     0.248 C
HETATM   11  O1  UNL     1      24.296 -47.570   3.971  1.00  0.00    -0.271 OA
HETATM   12  N1  UNL     1      25.619 -45.744   4.498  1.00  0.00    -0.303 N
ATOM     13  H1  UNL     1      25.777 -44.948   5.116  1.00  0.00     0.171 HD
BRANCH  12  14
HETATM   14  C4  UNL     1      26.530 -45.972   3.432  1.00  0.00     0.189 A
HETATM   15  O2  UNL     1      27.561 -46.780   3.385  1.00  0.00    -0.265 OA
HETATM   16  C5  UNL     1      28.173 -46.725   2.229  1.00  0.00     0.222 A
HETATM   17  C6  UNL     1      27.521 -45.818   1.422  1.00  0.00     0.162 A
HETATM   18  C7  UNL     1      26.482 -45.351   2.201  1.00  0.00     0.156 A
BRANCH  16  19
HETATM   19  O3  UNL     1      29.306 -47.446   1.826  1.00  0.00    -0.338 OA
ATOM     20  H3  UNL     1      29.974 -47.176   1.206  1.00  0.00     0.220 HD
ENDBRANCH  16  19
BRANCH  17  21
HETATM   21  O4  UNL     1      27.884 -45.496   0.122  1.00  0.00    -0.354 OA
ATOM     22  H4  UNL     1      28.052 -46.122  -0.571  1.00  0.00     0.218 HD
ENDBRANCH  17  21
BRANCH  18  23
HETATM   23  O5  UNL     1      25.554 -44.393   1.756  1.00  0.00    -0.354 OA
ATOM     24  H5  UNL     1      24.861 -44.509   1.118  1.00  0.00     0.218 HD
ENDBRANCH  18  23
ENDBRANCH  12  14
ENDBRANCH   8  10
ENDBRANCH   1   8
BRANCH   4  25
HETATM   25  C9  UNL     1      22.132 -41.571   5.521  1.00  0.00     0.257 C
HETATM   26  C10 UNL     1      21.800 -40.885   4.229  1.00  0.00     0.065 C
BRANCH  25  27
HETATM   27  N4  UNL     1      21.302 -41.074   6.598  1.00  0.00    -0.055 N
ATOM     28  H43 UNL     1      20.540 -40.498   6.242  1.00  0.00     0.276 HD
ATOM     29  H42 UNL     1      20.755 -41.824   7.019  1.00  0.00     0.276 HD
ATOM     30  H41 UNL     1      21.846 -40.573   7.301  1.00  0.00     0.276 HD
ENDBRANCH  25  27
BRANCH  25  31
HETATM   31  C11 UNL     1      23.555 -41.193   5.838  1.00  0.00     0.275 C
HETATM   32  N5  UNL     1      24.521 -41.025   4.822  1.00  0.00    -0.059 NA
HETATM   33  O6  UNL     1      23.924 -41.018   7.035  1.00  0.00    -0.274 OA
ENDBRANCH  25  31
ENDBRANCH   4  25
BRANCH   5  34
HETATM   34  N7  UNL     1      19.849 -43.392   4.555  1.00  0.00    -0.333 N
ATOM     35  H72 UNL     1      19.636 -42.995   3.640  1.00  0.00     0.177 HD
ATOM     36  H71 UNL     1      18.964 -43.414   5.062  1.00  0.00     0.177 HD
ENDBRANCH   5  34
TORSDOF 10
ENDMDL