MODEL 1
REMARK VINA RESULT: -7.080030687      0.000      0.000
REMARK  9 active torsions:
REMARK  status: ('A' for Active; 'I' for Inactive)
REMARK    1  A    between atoms: C2_2  and  N1_3
REMARK    2  A    between atoms: C2_2  and  C3_7
REMARK    3  A    between atoms: C2_2  and  N11_35
REMARK    4  A    between atoms: C3_7  and  N2_8
REMARK    5  A    between atoms: C3_7  and  C5_16
REMARK    6  A    between atoms: N2_8  and  O1_10
REMARK    7  A    between atoms: O1_10  and  C4_11
REMARK    8  A    between atoms: C4_11  and  N3_12
REMARK    9  A    between atoms: C7_21  and  N6_22
REMARK       I    between atoms: N6_22  and  C8_24
ROOT
HETATM    1  C3  UNL     1      24.108 -42.962   5.112  1.00  0.00     0.122 C
ENDROOT
BRANCH   1   2
HETATM    2  C2  UNL     1      23.248 -41.960   4.521  1.00  0.00     0.273 C
HETATM    3  C1  UNL     1      24.152 -40.976   3.749  1.00  0.00     0.081 C
BRANCH   2   4
HETATM    4  N1  UNL     1      22.405 -42.557   3.505  1.00  0.00    -0.044 N
ATOM      5  H13 UNL     1      22.706 -42.364   2.549  1.00  0.00     0.278 HD
ATOM      6  H12 UNL     1      22.482 -43.573   3.446  1.00  0.00     0.278 HD
ATOM      7  H11 UNL     1      21.466 -42.223   3.720  1.00  0.00     0.278 HD
ENDBRANCH   2   4
BRANCH   2   8
HETATM    8  N11 UNL     1      22.461 -41.186   5.474  1.00  0.00    -0.157 N
HETATM    9  N12 UNL     1      22.504 -40.022   6.069  1.00  0.00    -0.212 N
HETATM   10  N13 UNL     1      21.373 -40.317   6.657  1.00  0.00    -0.209 N
ATOM     11  H12 UNL     1      23.143 -39.227   6.073  1.00  0.00     0.211 HD
HETATM   12  N14 UNL     1      21.318 -41.496   6.062  1.00  0.00     0.017 NA
ATOM     13  H13 UNL     1      20.769 -39.829   7.317  1.00  0.00     0.207 HD
ENDBRANCH   2   8
ENDBRANCH   1   2
BRANCH   1  14
HETATM   14  N2  UNL     1      25.133 -43.357   4.440  1.00  0.00    -0.255 N
ATOM     15  H2  UNL     1      25.962 -42.764   4.444  1.00  0.00     0.195 HD
BRANCH  14  16
HETATM   16  O1  UNL     1      25.183 -44.519   3.721  1.00  0.00    -0.204 OA
BRANCH  16  17
HETATM   17  C4  UNL     1      25.552 -44.440   2.384  1.00  0.00     0.249 C
HETATM   18  N4  UNL     1      24.664 -43.945   1.379  1.00  0.00    -0.055 NA
BRANCH  17  19
HETATM   19  N3  UNL     1      26.720 -44.809   1.980  1.00  0.00    -0.366 N
ATOM     20  H32 UNL     1      27.114 -45.633   2.435  1.00  0.00     0.159 HD
ATOM     21  H31 UNL     1      27.218 -44.303   1.248  1.00  0.00     0.159 HD
ENDBRANCH  17  19
ENDBRANCH  16  17
ENDBRANCH  14  16
ENDBRANCH   1  14
BRANCH   1  22
HETATM   22  C5  UNL     1      23.910 -43.531   6.420  1.00  0.00     0.113 A
HETATM   23  N5  UNL     1      23.846 -42.832   7.598  1.00  0.00    -0.256 N
HETATM   24  O2  UNL     1      23.653 -43.636   8.580  1.00  0.00    -0.231 OA
ATOM     25  H5  UNL     1      23.937 -41.820   7.682  1.00  0.00     0.195 HD
HETATM   26  C6  UNL     1      23.577 -44.875   8.167  1.00  0.00     0.172 A
HETATM   27  C7  UNL     1      23.380 -46.081   8.849  1.00  0.00     0.147 A
HETATM   28  C10 UNL     1      23.737 -44.847   6.795  1.00  0.00     0.104 A
HETATM   29  N9  UNL     1      23.344 -47.238   8.175  1.00  0.00    -0.336 N
HETATM   30  C9  UNL     1      23.503 -47.179   6.836  1.00  0.00     0.182 A
ATOM     31  H9  UNL     1      23.201 -48.127   8.654  1.00  0.00     0.168 HD
HETATM   32  N10 UNL     1      23.691 -46.024   6.184  1.00  0.00    -0.348 N
ATOM     33  H10 UNL     1      23.804 -46.051   5.171  1.00  0.00     0.167 HD
BRANCH  27  34
HETATM   34  N6  UNL     1      23.238 -46.029  10.133  1.00  0.00    -0.315 N
HETATM   35  C8  UNL     1      22.904 -47.223  10.815  1.00  0.00     0.187 C
HETATM   36  N7  UNL     1      21.672 -47.440  11.103  1.00  0.00    -0.373 N
HETATM   37  N8  UNL     1      23.902 -48.157  11.169  1.00  0.00    -0.064 NA
ATOM     38  H72 UNL     1      20.951 -46.765  10.848  1.00  0.00     0.158 HD
ATOM     39  H71 UNL     1      21.431 -48.301  11.595  1.00  0.00     0.158 HD
ATOM     40  H6  UNL     1      23.364 -45.153  10.641  1.00  0.00     0.170 HD
ENDBRANCH  27  34
ENDBRANCH   1  22
TORSDOF 9
ENDMDL