MODEL 5
REMARK VINA RESULT: -6.637321296      2.914      4.323
REMARK  6 active torsions:
REMARK  status: ('A' for Active; 'I' for Inactive)
REMARK    1  A    between atoms: N1_1  and  C1_4
REMARK    2  A    between atoms: C5_16  and  N6_17
REMARK    3  A    between atoms: N6_17  and  C6_19
REMARK    4  A    between atoms: C6_19  and  C7_20
REMARK    5  A    between atoms: N9_26  and  N10_28
REMARK       I    between atoms: C9_30  and  N12_32
REMARK    6  A    between atoms: N12_32  and  N13_34
ROOT
HETATM    1  N6  UNL     1      21.461 -48.165   5.227  1.00  0.00    -0.196 N
ATOM      2  H6  UNL     1      21.098 -48.618   6.066  1.00  0.00     0.183 HD
ENDROOT
BRANCH   1   3
HETATM    3  C5  UNL     1      22.859 -48.169   5.005  1.00  0.00     0.698 A
HETATM    4  N5  UNL     1      23.498 -49.307   5.103  1.00  0.00    -0.131 N
HETATM    5  N4  UNL     1      24.885 -49.366   4.893  1.00  0.00    -0.280 N
ATOM      6  H5  UNL     1      22.986 -50.157   5.336  1.00  0.00     0.205 HD
HETATM    7  C4  UNL     1      25.654 -48.222   4.568  1.00  0.00     0.137 A
ATOM      8  H4  UNL     1      25.356 -50.266   4.976  1.00  0.00     0.188 HD
HETATM    9  C1  UNL     1      27.013 -48.254   4.356  1.00  0.00     0.132 A
HETATM   10  C3  UNL     1      24.976 -47.027   4.465  1.00  0.00     0.154 A
HETATM   11  N2  UNL     1      27.721 -47.137   4.046  1.00  0.00    -0.337 N
HETATM   12  C2  UNL     1      27.031 -45.989   3.954  1.00  0.00     0.183 A
ATOM     13  H2  UNL     1      28.729 -47.169   3.889  1.00  0.00     0.168 HD
HETATM   14  N3  UNL     1      25.703 -45.944   4.157  1.00  0.00    -0.336 N
ATOM     15  H3  UNL     1      25.228 -45.045   4.073  1.00  0.00     0.168 HD
HETATM   16  N14 UNL     1      23.555 -46.973   4.682  1.00  0.00    -0.173 N
ATOM     17  H14 UNL     1      23.053 -46.088   4.605  1.00  0.00     0.186 HD
BRANCH   9  18
HETATM   18  N1  UNL     1      27.668 -49.342   4.445  1.00  0.00    -0.383 N
ATOM     19  H12 UNL     1      27.331 -50.199   4.007  1.00  0.00     0.157 HD
ATOM     20  H11 UNL     1      28.541 -49.312   4.972  1.00  0.00     0.157 HD
ENDBRANCH   9  18
ENDBRANCH   1   3
BRANCH   1  21
HETATM   21  C6  UNL     1      20.628 -47.613   4.411  1.00  0.00     0.164 C
BRANCH  21  22
HETATM   22  C7  UNL     1      20.534 -46.162   4.397  1.00  0.00     0.182 A
HETATM   23  N7  UNL     1      19.809 -45.397   3.573  1.00  0.00    -0.275 N
HETATM   24  N8  UNL     1      19.991 -44.123   3.879  1.00  0.00    -0.262 N
ATOM     25  H7  UNL     1      19.209 -45.741   2.824  1.00  0.00     0.189 HD
HETATM   26  C8  UNL     1      20.846 -44.094   4.914  1.00  0.00     0.260 A
ATOM     27  H8  UNL     1      19.565 -43.319   3.419  1.00  0.00     0.190 HD
HETATM   28  N9  UNL     1      21.299 -43.053   5.532  1.00  0.00    -0.261 N
HETATM   29  O3  UNL     1      21.150 -45.335   5.197  1.00  0.00    -0.257 OA
ATOM     30  H9  UNL     1      21.950 -43.168   6.310  1.00  0.00     0.190 HD
BRANCH  28  31
HETATM   31  N10 UNL     1      20.908 -41.788   5.146  1.00  0.00    -0.269 N
HETATM   32  C9  UNL     1      21.390 -40.715   5.646  1.00  0.00     0.226 C
HETATM   33  N11 UNL     1      20.951 -39.446   5.210  1.00  0.00    -0.060 NA
HETATM   34  N12 UNL     1      22.379 -40.795   6.650  1.00  0.00    -0.212 N
ATOM     35  H12 UNL     1      22.175 -41.273   7.527  1.00  0.00     0.196 HD
ATOM     36  H10 UNL     1      20.195 -41.705   4.421  1.00  0.00     0.190 HD
BRANCH  34  37
HETATM   37  N13 UNL     1      23.634 -40.225   6.444  1.00  0.00    -0.036 N
HETATM   38  O1  UNL     1      24.116 -39.427   7.267  1.00  0.00    -0.516 OA
HETATM   39  O2  UNL     1      24.361 -40.536   5.324  1.00  0.00    -0.516 OA
ENDBRANCH  34  37
ENDBRANCH  28  31
ENDBRANCH  21  22
ENDBRANCH   1  21
TORSDOF 6
ENDMDL