MODEL 2
REMARK VINA RESULT: -6.162646596      1.198      1.699
REMARK  9 active torsions:
REMARK  status: ('A' for Active; 'I' for Inactive)
REMARK    1  A    between atoms: C2_3  and  C3_4
REMARK    2  A    between atoms: C5_10  and  N4_11
REMARK    3  A    between atoms: N5_13  and  C6_15
REMARK    4  A    between atoms: C7_16  and  C8_17
REMARK       I    between atoms: C8_17  and  N6_19
REMARK    5  A    between atoms: N6_19  and  N7_21
REMARK    6  A    between atoms: C9_26  and  N9_27
REMARK    7  A    between atoms: N9_27  and  N10_29
REMARK    8  A    between atoms: N11_32  and  N12_33
REMARK    9  A    between atoms: C10_36  and  N13_37
ROOT
HETATM    1  C6  UNL     1      23.697 -47.173   4.853  1.00  0.00     0.127 A
HETATM    2  C7  UNL     1      24.470 -46.047   4.664  1.00  0.00     0.150 A
HETATM    3  N8  UNL     1      25.800 -46.177   4.492  1.00  0.00    -0.181 N
ATOM      4  H8  UNL     1      26.355 -45.333   4.353  1.00  0.00     0.184 HD
HETATM    5  C9  UNL     1      26.437 -47.376   4.493  1.00  0.00     0.719 A
HETATM    6  N11 UNL     1      25.660 -48.454   4.680  1.00  0.00    -0.073 N
HETATM    7  C10 UNL     1      24.333 -48.399   4.858  1.00  0.00     0.169 A
ENDROOT
BRANCH   1   8
HETATM    8  N5  UNL     1      22.293 -47.056   5.032  1.00  0.00    -0.294 N
HETATM    9  N4  UNL     1      21.464 -47.201   4.081  1.00  0.00    -0.294 N
ATOM     10  H4  UNL     1      21.771 -47.411   3.130  1.00  0.00     0.187 HD
ATOM     11  H5  UNL     1      21.935 -46.848   5.964  1.00  0.00     0.187 HD
BRANCH   9  12
HETATM   12  C5  UNL     1      20.073 -47.055   4.408  1.00  0.00     0.132 A
HETATM   13  C4  UNL     1      19.273 -48.154   4.628  1.00  0.00     0.126 A
HETATM   14  N3  UNL     1      17.993 -47.959   4.927  1.00  0.00    -0.345 N
HETATM   15  C2  UNL     1      17.412 -46.725   5.032  1.00  0.00     0.176 A
ATOM     16  H3  UNL     1      17.408 -48.780   5.088  1.00  0.00     0.167 HD
HETATM   17  N1  UNL     1      18.157 -45.637   4.825  1.00  0.00    -0.298 N
HETATM   18  C1  UNL     1      17.644 -44.276   4.911  1.00  0.00     0.161 C
HETATM   19  C11 UNL     1      19.476 -45.827   4.517  1.00  0.00     0.278 A
HETATM   20  O3  UNL     1      20.189 -44.810   4.319  1.00  0.00    -0.265 OA
BRANCH  15  21
HETATM   21  C3  UNL     1      16.008 -46.607   5.362  1.00  0.00     0.299 C
HETATM   22  N2  UNL     1      14.921 -46.580   4.472  1.00  0.00    -0.054 NA
HETATM   23  O1  UNL     1      15.722 -46.516   6.598  1.00  0.00    -0.268 OA
ENDBRANCH  15  21
ENDBRANCH   9  12
ENDBRANCH   1   8
BRANCH   2  24
HETATM   24  C8  UNL     1      23.839 -44.707   4.658  1.00  0.00     0.289 C
HETATM   25  O2  UNL     1      23.828 -44.050   5.738  1.00  0.00    -0.264 OA
HETATM   26  N6  UNL     1      23.257 -44.135   3.518  1.00  0.00    -0.271 N
ATOM     27  H6  UNL     1      23.249 -44.639   2.631  1.00  0.00     0.189 HD
BRANCH  26  28
HETATM   28  N7  UNL     1      22.683 -42.855   3.622  1.00  0.00    -0.342 N
ATOM     29  H72 UNL     1      22.038 -42.651   4.385  1.00  0.00     0.176 HD
ATOM     30  H71 UNL     1      22.927 -42.151   2.925  1.00  0.00     0.176 HD
ENDBRANCH  26  28
ENDBRANCH   2  24
BRANCH   7  31
HETATM   31  N13 UNL     1      23.611 -49.452   5.039  1.00  0.00    -0.382 N
ATOM     32 2H13 UNL     1      22.624 -49.406   5.296  1.00  0.00     0.157 HD
ATOM     33 1H13 UNL     1      24.055 -50.362   4.916  1.00  0.00     0.157 HD
ENDBRANCH   7  31
BRANCH   6  34
HETATM   34  N12 UNL     1      26.286 -49.699   4.687  1.00  0.00    -0.322 N
ATOM     35 2H12 UNL     1      27.053 -49.867   4.035  1.00  0.00     0.178 HD
ATOM     36 1H12 UNL     1      25.942 -50.392   5.353  1.00  0.00     0.178 HD
ENDBRANCH   6  34
BRANCH   5  37
HETATM   37  N9  UNL     1      27.712 -47.471   4.326  1.00  0.00    -0.137 N
ATOM     38  H9  UNL     1      28.321 -47.774   5.086  1.00  0.00     0.205 HD
BRANCH  37  39
HETATM   39  N10 UNL     1      28.230 -47.147   3.082  1.00  0.00    -0.331 N
ATOM     40 2H10 UNL     1      27.738 -47.429   2.234  1.00  0.00     0.177 HD
ATOM     41 1H10 UNL     1      29.106 -46.624   3.050  1.00  0.00     0.177 HD
ENDBRANCH  37  39
ENDBRANCH   5  37
TORSDOF 9
ENDMDL