MODEL 4
REMARK VINA RESULT: -6.798354306      1.254      1.893
REMARK  7 active torsions:
REMARK  status: ('A' for Active; 'I' for Inactive)
REMARK    1  A    between atoms: C2_3  and  N2_4
REMARK    2  A    between atoms: C4_11  and  C5_12
REMARK    3  A    between atoms: C5_12  and  C6_13
REMARK    4  A    between atoms: C7_17  and  N7_18
REMARK    5  A    between atoms: N7_18  and  N8_20
REMARK    6  A    between atoms: C8_24  and  C9_25
REMARK       I    between atoms: C9_25  and  N9_27
REMARK    7  A    between atoms: N9_27  and  O2_29
ROOT
HETATM    1  C6  UNL     1      23.976 -47.523   5.105  1.00  0.00     0.102 A
HETATM    2  N5  UNL     1      23.650 -48.065   6.287  1.00  0.00    -0.278 N
ATOM      3  H5  UNL     1      23.525 -49.063   6.460  1.00  0.00     0.189 HD
HETATM    4  N6  UNL     1      23.511 -47.086   7.222  1.00  0.00    -0.213 N
HETATM    5  C7  UNL     1      23.200 -47.106   8.528  1.00  0.00     0.187 A
HETATM    6  S1  UNL     1      23.240 -45.466   8.953  1.00  0.00    -0.041 SA
HETATM    7  C8  UNL     1      23.665 -44.804   7.397  1.00  0.00     0.124 A
HETATM    8  C10 UNL     1      23.744 -45.949   6.647  1.00  0.00     0.154 A
HETATM    9  N10 UNL     1      24.034 -46.220   5.323  1.00  0.00    -0.328 N
ATOM     10  H10 UNL     1      24.260 -45.518   4.618  1.00  0.00     0.169 HD
ENDROOT
BRANCH   1  11
HETATM   11  C5  UNL     1      24.214 -48.213   3.814  1.00  0.00     0.126 C
BRANCH  11  12
HETATM   12  C4  UNL     1      25.032 -47.497   2.853  1.00  0.00     0.059 A
HETATM   13  C3  UNL     1      26.348 -47.195   3.083  1.00  0.00     0.144 A
HETATM   14  N3  UNL     1      27.087 -46.534   2.134  1.00  0.00    -0.178 N
HETATM   15  N4  UNL     1      27.005 -47.529   4.297  1.00  0.00    -0.081 NA
HETATM   16  C2  UNL     1      26.534 -46.171   0.967  1.00  0.00     0.681 A
ATOM     17  H3  UNL     1      28.066 -46.316   2.319  1.00  0.00     0.185 HD
HETATM   18  N1  UNL     1      25.243 -46.460   0.729  1.00  0.00    -0.152 N
HETATM   19  C1  UNL     1      24.641 -46.074  -0.528  1.00  0.00     0.179 C
HETATM   20  C11 UNL     1      24.491 -47.105   1.630  1.00  0.00     0.271 A
HETATM   21  O3  UNL     1      23.285 -47.346   1.342  1.00  0.00    -0.267 OA
BRANCH  16  22
HETATM   22  N2  UNL     1      27.242 -45.540   0.067  1.00  0.00    -0.234 N
ATOM     23  H22 UNL     1      27.551 -46.021  -0.778  1.00  0.00     0.174 HD
ATOM     24  H21 UNL     1      27.491 -44.560   0.205  1.00  0.00     0.174 HD
ENDBRANCH  16  22
ENDBRANCH  11  12
ENDBRANCH   1  11
BRANCH   5  25
HETATM   25  N7  UNL     1      22.932 -48.163   9.266  1.00  0.00    -0.285 N
ATOM     26  H7  UNL     1      23.059 -49.109   8.908  1.00  0.00     0.188 HD
BRANCH  25  27
HETATM   27  N8  UNL     1      22.469 -47.933  10.556  1.00  0.00    -0.343 N
ATOM     28  H82 UNL     1      23.051 -47.446  11.237  1.00  0.00     0.176 HD
ATOM     29  H81 UNL     1      21.533 -48.271  10.780  1.00  0.00     0.176 HD
ENDBRANCH  25  27
ENDBRANCH   5  25
BRANCH   7  30
HETATM   30  C9  UNL     1      23.868 -43.392   7.117  1.00  0.00     0.285 C
HETATM   31  O1  UNL     1      23.702 -42.584   8.104  1.00  0.00    -0.265 OA
HETATM   32  N9  UNL     1      24.218 -42.840   5.900  1.00  0.00    -0.233 N
ATOM     33  H9  UNL     1      24.356 -43.440   5.087  1.00  0.00     0.197 HD
BRANCH  32  34
HETATM   34  O2  UNL     1      24.380 -41.479   5.789  1.00  0.00    -0.287 OA
ATOM     35  H2  UNL     1      25.234 -41.092   5.941  1.00  0.00     0.244 HD
ENDBRANCH  32  34
ENDBRANCH   7  30
TORSDOF 7
ENDMDL