MODEL 1
REMARK VINA RESULT: -9.199348878      0.000      0.000
REMARK  5 active torsions:
REMARK  status: ('A' for Active; 'I' for Inactive)
REMARK       I    between atoms: N1_1  and  C1_5
REMARK       I    between atoms: C1_5  and  N2_6
REMARK       I    between atoms: C1_5  and  N3_10
REMARK    1  A    between atoms: N3_10  and  O1_11
REMARK    2  A    between atoms: N3_10  and  C2_13
REMARK    3  A    between atoms: C2_13  and  C3_14
REMARK    4  A    between atoms: C7_18  and  C8_19
REMARK    5  A    between atoms: C8_19  and  C9_20
ROOT
HETATM    1  C3  UNL     1      32.107  17.565  13.639  1.00  0.00    -0.042 A
HETATM    2  C4  UNL     1      31.865  17.410  14.999  1.00  0.00     0.008 A
HETATM    3  C5  UNL     1      31.265  16.272  15.498  1.00  0.00     0.001 A
HETATM    4  C6  UNL     1      30.884  15.251  14.666  1.00  0.00     0.007 A
HETATM    5  C7  UNL     1      31.113  15.383  13.322  1.00  0.00    -0.053 A
HETATM    6  C15 UNL     1      31.708  16.514  12.833  1.00  0.00     0.015 A
ENDROOT
BRANCH   1   7
HETATM    7  C2  UNL     1      32.749  18.771  13.068  1.00  0.00     0.163 C
BRANCH   7   8
HETATM    8  N3  UNL     1      33.783  18.433  12.109  1.00  0.00    -0.141 NA
HETATM    9  C1  UNL     1      34.300  19.659  11.533  1.00  0.00     0.479 C
HETATM   10  N1  UNL     1      33.168  20.379  10.983  1.00  0.00    -0.035 N
HETATM   11  N2  UNL     1      35.262  19.429  10.502  1.00  0.00    -0.035 N
ATOM     12  H13 UNL     1      33.448  21.242  10.517  1.00  0.00     0.278 HD
ATOM     13  H12 UNL     1      32.763  19.903  10.176  1.00  0.00     0.278 HD
ATOM     14  H11 UNL     1      32.481  20.543  11.720  1.00  0.00     0.278 HD
ATOM     15  H23 UNL     1      34.857  18.953   9.695  1.00  0.00     0.278 HD
ATOM     16  H22 UNL     1      35.542  20.292  10.036  1.00  0.00     0.278 HD
ATOM     17  H21 UNL     1      36.058  18.922  10.889  1.00  0.00     0.278 HD
BRANCH   8  18
HETATM   18  O1  UNL     1      34.757  17.679  12.654  1.00  0.00    -0.309 OA
ATOM     19  H1  UNL     1      34.931  16.897  12.144  1.00  0.00     0.237 HD
ENDBRANCH   8  18
ENDBRANCH   7   8
ENDBRANCH   1   7
BRANCH   5  20
HETATM   20  C8  UNL     1      30.736  14.332  12.333  1.00  0.00     0.077 C
BRANCH  20  21
HETATM   21  C9  UNL     1      29.369  14.498  11.826  1.00  0.00    -0.054 A
HETATM   22  C10 UNL     1      28.322  13.802  12.392  1.00  0.00     0.007 A
HETATM   23  C11 UNL     1      27.029  13.955  11.915  1.00  0.00     0.001 A
HETATM   24  C12 UNL     1      26.769  14.818  10.854  1.00  0.00     0.000 A
HETATM   25  C13 UNL     1      27.801  15.504  10.294  1.00  0.00     0.001 A
HETATM   26  C14 UNL     1      29.092  15.343  10.778  1.00  0.00     0.007 A
ENDBRANCH  20  21
ENDBRANCH   5  20
TORSDOF 5
ENDMDL