MODEL 3
REMARK VINA RESULT: -7.843767976      1.551      2.956
REMARK  6 active torsions:
REMARK  status: ('A' for Active; 'I' for Inactive)
REMARK    1  A    between atoms: N1_1  and  N2_4
REMARK    2  A    between atoms: N2_4  and  O1_5
REMARK    3  A    between atoms: O1_5  and  C1_6
REMARK    4  A    between atoms: N4_13  and  C6_15
REMARK    5  A    between atoms: C6_15  and  C7_16
REMARK    6  A    between atoms: C7_16  and  C8_17
ROOT
HETATM    1  C1  UNL     1      27.953  12.940  10.982  1.00  0.00     0.139 A
HETATM    2  C2  UNL     1      27.191  11.798  11.019  1.00  0.00     0.044 A
HETATM    3  C3  UNL     1      27.551  10.811  11.904  1.00  0.00     0.020 A
HETATM    4  C4  UNL     1      28.627  10.919  12.740  1.00  0.00     0.090 A
HETATM    5  N3  UNL     1      29.362  12.050  12.687  1.00  0.00    -0.350 N
ATOM      6  H3  UNL     1      30.170  12.155  13.300  1.00  0.00     0.166 HD
HETATM    7  C5  UNL     1      29.043  13.040  11.835  1.00  0.00     0.137 A
HETATM    8  N4  UNL     1      29.727  14.117  11.768  1.00  0.00    -0.374 N
ATOM      9  H4  UNL     1      29.409  14.809  11.089  1.00  0.00     0.161 HD
ENDROOT
BRANCH   1  10
HETATM   10  O1  UNL     1      27.605  13.943  10.098  1.00  0.00    -0.221 OA
BRANCH  10  11
HETATM   11  N2  UNL     1      26.892  14.999  10.576  1.00  0.00     0.020 NA
BRANCH  11  12
HETATM   12  N1  UNL     1      27.574  16.177  10.329  1.00  0.00    -0.322 N
ATOM     13  H12 UNL     1      27.481  16.727   9.475  1.00  0.00     0.174 HD
ATOM     14  H11 UNL     1      28.174  16.402  11.122  1.00  0.00     0.174 HD
ENDBRANCH  11  12
ENDBRANCH  10  11
ENDBRANCH   1  10
BRANCH   8  15
HETATM   15  C6  UNL     1      30.879  14.468  12.523  1.00  0.00     0.126 C
BRANCH  15  16
HETATM   16  C7  UNL     1      30.568  15.281  13.766  1.00  0.00     0.058 C
BRANCH  16  17
HETATM   17  C8  UNL     1      31.464  16.456  13.837  1.00  0.00    -0.057 A
HETATM   18  C9  UNL     1      32.256  16.832  12.781  1.00  0.00     0.007 A
HETATM   19  C10 UNL     1      33.071  17.921  12.887  1.00  0.00     0.001 A
HETATM   20  C11 UNL     1      33.123  18.664  14.039  1.00  0.00     0.000 A
HETATM   21  C12 UNL     1      32.343  18.312  15.111  1.00  0.00     0.001 A
HETATM   22  C13 UNL     1      31.522  17.210  14.996  1.00  0.00     0.007 A
ENDBRANCH  16  17
ENDBRANCH  15  16
ENDBRANCH   8  15
TORSDOF 6
ENDMDL