MODEL 3
REMARK VINA RESULT: -7.011904962      1.505      1.601
REMARK  8 active torsions:
REMARK  status: ('A' for Active; 'I' for Inactive)
REMARK    1  A    between atoms: O1_2  and  C2_3
REMARK    2  A    between atoms: C6_7  and  C7_8
REMARK    3  A    between atoms: N1_9  and  N2_11
REMARK    4  A    between atoms: N2_11  and  C8_13
REMARK    5  A    between atoms: C8_13  and  N3_15
REMARK    6  A    between atoms: N3_15  and  C9_17
REMARK    7  A    between atoms: C9_17  and  C10_18
REMARK    8  A    between atoms: C10_18  and  N4_19
ROOT
HETATM    1  N2  UNL     1      31.267  17.293  13.985  1.00  0.00    -0.277 N
ATOM      2  H2  UNL     1      31.218  17.213  15.001  1.00  0.00     0.189 HD
ENDROOT
BRANCH   1   3
HETATM    3  N1  UNL     1      30.302  16.690  13.201  1.00  0.00    -0.309 N
HETATM    4  C7  UNL     1      30.087  15.432  13.129  1.00  0.00     0.118 C
ATOM      5  H1  UNL     1      29.712  17.300  12.634  1.00  0.00     0.186 HD
BRANCH   4   6
HETATM    6  C6  UNL     1      29.030  14.946  12.255  1.00  0.00    -0.017 A
HETATM    7  C5  UNL     1      28.604  15.705  11.187  1.00  0.00     0.013 A
HETATM    8  C4  UNL     1      27.604  15.287  10.330  1.00  0.00     0.004 A
HETATM    9  C3  UNL     1      27.053  14.057  10.608  1.00  0.00     0.037 A
HETATM   10  C2  UNL     1      27.455  13.265  11.674  1.00  0.00     0.069 A
HETATM   11  C11 UNL     1      28.453  13.730  12.495  1.00  0.00     0.049 A
BRANCH  10  12
HETATM   12  O1  UNL     1      26.858  12.010  11.917  1.00  0.00    -0.356 OA
HETATM   13  C1  UNL     1      27.742  10.931  12.140  1.00  0.00     0.210 C
ENDBRANCH  10  12
ENDBRANCH   4   6
ENDBRANCH   1   3
BRANCH   1  14
HETATM   14  C8  UNL     1      32.319  18.016  13.391  1.00  0.00     0.186 C
HETATM   15  S1  UNL     1      33.389  17.243  12.454  1.00  0.00    -0.040 SA
BRANCH  14  16
HETATM   16  N3  UNL     1      32.437  19.406  13.611  1.00  0.00    -0.364 N
ATOM     17  H3  UNL     1      31.875  19.845  14.341  1.00  0.00     0.162 HD
BRANCH  16  18
HETATM   18  C9  UNL     1      33.332  20.218  12.831  1.00  0.00     0.149 C
BRANCH  18  19
HETATM   19  C10 UNL     1      34.388  20.787  13.716  1.00  0.00     0.249 C
BRANCH  19  20
HETATM   20  N4  UNL     1      34.479  22.217  13.671  1.00  0.00    -0.078 N
ATOM     21  H43 UNL     1      34.226  22.563  12.745  1.00  0.00     0.274 HD
ATOM     22  H42 UNL     1      33.734  22.641  14.223  1.00  0.00     0.274 HD
ATOM     23  H41 UNL     1      35.387  22.585  13.954  1.00  0.00     0.274 HD
ENDBRANCH  19  20
ENDBRANCH  18  19
ENDBRANCH  16  18
ENDBRANCH  14  16
ENDBRANCH   1  14
TORSDOF 8
ENDMDL