MODEL 2
REMARK VINA RESULT: -6.209553499      3.664      5.395
REMARK  7 active torsions:
REMARK  status: ('A' for Active; 'I' for Inactive)
REMARK    1  A    between atoms: C2_2  and  N1_3
REMARK    2  A    between atoms: C2_2  and  C3_7
REMARK    3  A    between atoms: C3_7  and  N2_8
REMARK    4  A    between atoms: N2_8  and  C4_10
REMARK    5  A    between atoms: C9_15  and  C10_16
REMARK    6  A    between atoms: C11_17  and  S1_18
REMARK    7  A    between atoms: S1_18  and  N3_19
ROOT
HETATM    1  C4  UNL     1      29.695  16.036  12.872  1.00  0.00     0.038 A
HETATM    2  C5  UNL     1      30.478  17.127  13.211  1.00  0.00     0.030 A
HETATM    3  C6  UNL     1      31.379  17.021  14.246  1.00  0.00     0.002 A
HETATM    4  C7  UNL     1      31.528  15.858  14.960  1.00  0.00     0.001 A
HETATM    5  C8  UNL     1      30.727  14.782  14.595  1.00  0.00     0.014 A
HETATM    6  C9  UNL     1      29.814  14.858  13.560  1.00  0.00    -0.009 A
ENDROOT
BRANCH   1   7
HETATM    7  N2  UNL     1      28.753  16.173  11.823  1.00  0.00    -0.387 N
ATOM      8  H2  UNL     1      28.965  16.840  11.080  1.00  0.00     0.159 HD
BRANCH   7   9
HETATM    9  C3  UNL     1      27.511  15.435  11.729  1.00  0.00     0.152 C
BRANCH   9  10
HETATM   10  C2  UNL     1      27.213  14.995  10.316  1.00  0.00     0.197 C
HETATM   11  C1  UNL     1      28.552  14.524   9.721  1.00  0.00     0.041 C
BRANCH  10  12
HETATM   12  N1  UNL     1      26.344  13.836  10.398  1.00  0.00    -0.074 N
ATOM     13  H13 UNL     1      26.391  13.367  11.302  1.00  0.00     0.274 HD
ATOM     14  H12 UNL     1      25.355  14.081  10.427  1.00  0.00     0.274 HD
ATOM     15  H11 UNL     1      26.580  13.223   9.617  1.00  0.00     0.274 HD
ENDBRANCH  10  12
ENDBRANCH   9  10
ENDBRANCH   7   9
ENDBRANCH   1   7
BRANCH   6  16
HETATM   16  C10 UNL     1      29.037  13.671  13.264  1.00  0.00     0.027 C
HETATM   17  C11 UNL     1      29.431  12.642  12.550  1.00  0.00     0.132 C
BRANCH  17  18
HETATM   18  S1  UNL     1      28.371  11.254  12.269  1.00  0.00     0.246 S
HETATM   19  O1  UNL     1      27.758  11.389  10.916  1.00  0.00    -0.202 OA
HETATM   20  O2  UNL     1      27.265  11.208  13.281  1.00  0.00    -0.202 OA
BRANCH  18  21
HETATM   21  N3  UNL     1      29.310   9.810  12.400  1.00  0.00    -0.325 N
ATOM     22  H32 UNL     1      30.090   9.562  11.790  1.00  0.00     0.169 HD
ATOM     23  H31 UNL     1      28.953   9.259  13.181  1.00  0.00     0.169 HD
ENDBRANCH  18  21
ENDBRANCH  17  18
ENDBRANCH   6  16
TORSDOF 7
ENDMDL