MODEL 5
REMARK VINA RESULT: -6.250655288      1.693      2.399
REMARK  8 active torsions:
REMARK  status: ('A' for Active; 'I' for Inactive)
REMARK    1  A    between atoms: C2_2  and  N1_4
REMARK    2  A    between atoms: N1_4  and  C4_6
REMARK    3  A    between atoms: C4_6  and  N2_8
REMARK    4  A    between atoms: N2_8  and  C5_9
REMARK    5  A    between atoms: C5_9  and  C6_10
REMARK    6  A    between atoms: C6_10  and  N3_11
REMARK    7  A    between atoms: C6_10  and  C7_15
REMARK    8  A    between atoms: C7_15  and  C8_16
ROOT
HETATM    1  C6  UNL     1      30.531  15.399  13.706  1.00  0.00     0.217 C
ENDROOT
BRANCH   1   2
HETATM    2  C5  UNL     1      31.345  16.330  14.609  1.00  0.00     0.254 C
BRANCH   2   3
HETATM    3  N2  UNL     1      32.216  17.126  13.884  1.00  0.00    -0.419 NA
BRANCH   3   4
HETATM    4  C4  UNL     1      33.045  17.882  13.193  1.00  0.00     0.240 C
HETATM    5  S1  UNL     1      33.397  19.409  13.835  1.00  0.00    -0.026 SA
BRANCH   4   6
HETATM    6  N1  UNL     1      33.668  17.566  11.955  1.00  0.00    -0.352 N
ATOM      7  H1  UNL     1      33.178  16.899  11.360  1.00  0.00     0.163 HD
BRANCH   6   8
HETATM    8  C2  UNL     1      34.894  18.073  11.453  1.00  0.00     0.076 C
HETATM    9  C1  UNL     1      36.007  17.074  11.798  1.00  0.00     0.032 C
HETATM   10  C3  UNL     1      34.826  18.245   9.940  1.00  0.00     0.032 C
ENDBRANCH   6   8
ENDBRANCH   4   6
ENDBRANCH   3   4
ENDBRANCH   2   3
ENDBRANCH   1   2
BRANCH   1  11
HETATM   11  N3  UNL     1      31.548  14.700  12.882  1.00  0.00    -0.072 N
ATOM     12  H33 UNL     1      32.434  15.199  12.802  1.00  0.00     0.274 HD
ATOM     13  H32 UNL     1      31.930  13.860  13.315  1.00  0.00     0.274 HD
ATOM     14  H31 UNL     1      31.082  14.533  11.991  1.00  0.00     0.274 HD
ENDBRANCH   1  11
BRANCH   1  15
HETATM   15  C7  UNL     1      29.662  16.147  12.756  1.00  0.00     0.075 C
BRANCH  15  16
HETATM   16  C8  UNL     1      28.723  15.259  12.056  1.00  0.00    -0.041 A
HETATM   17  C9  UNL     1      28.175  15.484  10.809  1.00  0.00     0.010 A
HETATM   18  C10 UNL     1      27.330  14.595  10.201  1.00  0.00     0.018 A
HETATM   19  C11 UNL     1      27.024  13.446  10.864  1.00  0.00     0.087 A
HETATM   20  N4  UNL     1      27.542  13.191  12.088  1.00  0.00    -0.375 N
HETATM   21  C12 UNL     1      28.365  14.048  12.689  1.00  0.00     0.094 A
ATOM     22  H4  UNL     1      27.297  12.322  12.562  1.00  0.00     0.164 HD
ENDBRANCH  15  16
ENDBRANCH   1  15
TORSDOF 8
ENDMDL