MODEL 5
REMARK VINA RESULT: -6.151253148      1.945      2.722
REMARK  8 active torsions:
REMARK  status: ('A' for Active; 'I' for Inactive)
REMARK    1  A    between atoms: C2_2  and  C3_3
REMARK    2  A    between atoms: C3_3  and  N1_4
REMARK    3  A    between atoms: N1_4  and  C4_6
REMARK    4  A    between atoms: C4_6  and  N2_8
REMARK    5  A    between atoms: N2_8  and  N3_10
REMARK    6  A    between atoms: N3_10  and  C5_11
REMARK    7  A    between atoms: C5_11  and  C6_12
REMARK    8  A    between atoms: C5_11  and  C7_14
ROOT
HETATM    1  N2  UNL     1      30.112  13.911  12.849  1.00  0.00    -0.279 N
ATOM      2  H2  UNL     1      30.431  13.596  13.765  1.00  0.00     0.184 HD
ENDROOT
BRANCH   1   3
HETATM    3  C4  UNL     1      29.300  13.070  12.042  1.00  0.00     0.183 C
HETATM    4  S1  UNL     1      28.488  11.828  12.712  1.00  0.00    -0.040 SA
BRANCH   3   5
HETATM    5  N1  UNL     1      29.180  13.290  10.650  1.00  0.00    -0.363 N
ATOM      6  H1  UNL     1      30.027  13.396  10.091  1.00  0.00     0.162 HD
BRANCH   5   7
HETATM    7  C3  UNL     1      27.893  13.369   9.998  1.00  0.00     0.148 C
BRANCH   7   8
HETATM    8  C2  UNL     1      27.144  14.585  10.377  1.00  0.00    -0.018 C
HETATM    9  C1  UNL     1      27.634  15.805  10.305  1.00  0.00     0.008 C
ENDBRANCH   7   8
ENDBRANCH   5   7
ENDBRANCH   3   5
ENDBRANCH   1   3
BRANCH   1  10
HETATM   10  N3  UNL     1      30.465  15.171  12.374  1.00  0.00    -0.120 NA
BRANCH  10  11
HETATM   11  C5  UNL     1      30.565  16.057  13.512  1.00  0.00     0.217 C
BRANCH  11  12
HETATM   12  C6  UNL     1      30.795  15.268  14.754  1.00  0.00     0.261 C
HETATM   13  O1  UNL     1      31.890  15.154  15.276  1.00  0.00    -0.305 OA
ENDBRANCH  11  12
BRANCH  11  14
HETATM   14  C7  UNL     1      31.663  17.064  13.315  1.00  0.00     0.080 A
HETATM   15  C8  UNL     1      31.725  18.334  13.853  1.00  0.00     0.037 A
HETATM   16  C9  UNL     1      32.899  18.943  13.432  1.00  0.00     0.027 A
HETATM   17  C10 UNL     1      33.507  17.973  12.634  1.00  0.00     0.142 A
HETATM   18  O2  UNL     1      32.752  16.909  12.600  1.00  0.00    -0.325 OA
ENDBRANCH  11  14
ENDBRANCH  10  11
ENDBRANCH   1  10
TORSDOF 8
ENDMDL