MODEL 2
REMARK VINA RESULT: -7.896771232      0.038      1.110
REMARK  5 active torsions:
REMARK  status: ('A' for Active; 'I' for Inactive)
REMARK       I    between atoms: C2_4  and  N2_5
REMARK       I    between atoms: C2_4  and  N4_9
REMARK    1  A    between atoms: N4_9  and  C4_11
REMARK    2  A    between atoms: C4_11  and  C5_12
REMARK    3  A    between atoms: C5_12  and  N5_13
REMARK    4  A    between atoms: N5_13  and  C6_16
REMARK    5  A    between atoms: C6_16  and  C8_18
ROOT
HETATM    1  C1  UNL     1      35.701  21.766  13.520  1.00  0.00     0.165 C
HETATM    2  N1  UNL     1      34.556  21.057  14.054  1.00  0.00    -0.230 N
ATOM      3  H1  UNL     1      34.243  21.285  14.998  1.00  0.00     0.177 HD
HETATM    4  C2  UNL     1      33.919  20.163  13.403  1.00  0.00     0.682 C
HETATM    5  N2  UNL     1      34.307  19.812  12.100  1.00  0.00    -0.126 N
ATOM      6  H2  UNL     1      35.089  19.172  11.968  1.00  0.00     0.197 HD
HETATM    7  C3  UNL     1      33.634  20.328  10.965  1.00  0.00     0.196 C
HETATM    8  N3  UNL     1      33.085  20.747  10.050  1.00  0.00    -0.171 NA
HETATM    9  N4  UNL     1      32.815  19.527  14.008  1.00  0.00    -0.224 N
ATOM     10  H4  UNL     1      32.081  20.073  14.459  1.00  0.00     0.177 HD
ENDROOT
BRANCH   9  11
HETATM   11  C4  UNL     1      32.751  18.104  13.976  1.00  0.00     0.165 C
BRANCH  11  12
HETATM   12  C5  UNL     1      31.368  17.544  13.859  1.00  0.00     0.253 C
BRANCH  12  13
HETATM   13  N5  UNL     1      31.215  16.529  12.867  1.00  0.00    -0.066 N
ATOM     14  H52 UNL     1      31.150  16.899  11.919  1.00  0.00     0.278 HD
ATOM     15  H51 UNL     1      32.058  15.971  12.729  1.00  0.00     0.278 HD
BRANCH  13  16
HETATM   16  C6  UNL     1      30.046  15.728  13.258  1.00  0.00     0.214 C
HETATM   17  C7  UNL     1      30.501  14.788  14.360  1.00  0.00     0.045 C
BRANCH  16  18
HETATM   18  C8  UNL     1      29.458  15.022  12.118  1.00  0.00    -0.028 A
HETATM   19  C9  UNL     1      28.515  15.597  11.301  1.00  0.00     0.009 A
HETATM   20  C10 UNL     1      27.976  14.896  10.222  1.00  0.00     0.001 A
HETATM   21  C11 UNL     1      28.369  13.606   9.939  1.00  0.00     0.000 A
HETATM   22  C12 UNL     1      29.315  13.028  10.757  1.00  0.00     0.001 A
HETATM   23  C13 UNL     1      29.840  13.731  11.820  1.00  0.00     0.009 A
ENDBRANCH  16  18
ENDBRANCH  13  16
ENDBRANCH  12  13
ENDBRANCH  11  12
ENDBRANCH   9  11
TORSDOF 5
ENDMDL