MODEL 2
REMARK VINA RESULT: -5.717243478      2.490      2.819
REMARK  6 active torsions:
REMARK  status: ('A' for Active; 'I' for Inactive)
REMARK    1  A    between atoms: C2_2  and  C3_3
REMARK    2  A    between atoms: C3_3  and  N1_4
REMARK    3  A    between atoms: N1_4  and  C4_6
REMARK    4  A    between atoms: N3_10  and  C6_12
REMARK    5  A    between atoms: C9_17  and  N5_18
REMARK    6  A    between atoms: N5_18  and  C10_20
ROOT
HETATM    1  C4  UNL     1      33.482  19.534  13.471  1.00  0.00     0.707 A
HETATM    2  N2  UNL     1      34.490  18.767  13.049  1.00  0.00    -0.021 N
ATOM      3  H2  UNL     1      34.339  17.767  12.916  1.00  0.00     0.203 HD
HETATM    4  C5  UNL     1      35.699  19.291  12.796  1.00  0.00     0.707 A
HETATM    5  N3  UNL     1      36.650  18.545  12.392  1.00  0.00    -0.221 N
ATOM      6  H3  UNL     1      37.551  18.987  12.210  1.00  0.00     0.178 HD
HETATM    7  N4  UNL     1      35.878  20.633  12.979  1.00  0.00    -0.021 N
ATOM      8  H4  UNL     1      36.795  21.037  12.787  1.00  0.00     0.203 HD
HETATM    9  C9  UNL     1      34.891  21.439  13.403  1.00  0.00     0.707 A
HETATM   10  N6  UNL     1      33.697  20.874  13.644  1.00  0.00    -0.021 N
ATOM     11  H6  UNL     1      32.927  21.461  13.966  1.00  0.00     0.203 HD
ENDROOT
BRANCH   1  12
HETATM   12  N1  UNL     1      32.321  19.040  13.717  1.00  0.00    -0.222 N
ATOM     13  H1  UNL     1      31.496  19.362  13.211  1.00  0.00     0.178 HD
BRANCH  12  14
HETATM   14  C3  UNL     1      32.220  18.013  14.733  1.00  0.00     0.164 C
BRANCH  14  15
HETATM   15  C2  UNL     1      31.216  17.020  14.278  1.00  0.00    -0.017 C
HETATM   16  C1  UNL     1      31.209  15.805  14.767  1.00  0.00     0.008 C
ENDBRANCH  14  15
ENDBRANCH  12  14
ENDBRANCH   1  12
BRANCH   9  17
HETATM   17  N5  UNL     1      35.120  22.696  13.558  1.00  0.00    -0.221 N
ATOM     18  H5  UNL     1      34.344  23.284  13.861  1.00  0.00     0.178 HD
BRANCH  17  19
HETATM   19  C10 UNL     1      36.384  23.330  13.337  1.00  0.00     0.091 C
HETATM   20  C11 UNL     1      36.472  24.085  12.055  1.00  0.00     0.032 C
HETATM   21  C12 UNL     1      36.814  24.195  14.501  1.00  0.00     0.032 C
ENDBRANCH  17  19
ENDBRANCH   9  17
BRANCH   5  22
HETATM   22  C6  UNL     1      36.549  17.123  12.172  1.00  0.00     0.091 C
HETATM   23  C7  UNL     1      36.523  16.819  10.682  1.00  0.00     0.032 C
HETATM   24  C8  UNL     1      37.784  16.447  12.773  1.00  0.00     0.032 C
ENDBRANCH   5  22
TORSDOF 6
ENDMDL