MODEL 1
REMARK VINA RESULT: -8.271989719      0.000      0.000
REMARK  5 active torsions:
REMARK  status: ('A' for Active; 'I' for Inactive)
REMARK    1  A    between atoms: C1_4  and  C2_6
REMARK    2  A    between atoms: C4_10  and  C5_11
REMARK    3  A    between atoms: C5_11  and  N4_12
REMARK    4  A    between atoms: N4_12  and  C6_14
REMARK    5  A    between atoms: C6_14  and  C7_15
ROOT
HETATM    1  C2  UNL     1      33.143  18.942  13.636  1.00  0.00     0.042 A
HETATM    2  C3  UNL     1      32.666  18.730  14.900  1.00  0.00     0.106 A
HETATM    3  N3  UNL     1      31.981  17.589  15.210  1.00  0.00    -0.348 N
ATOM      4  H3  UNL     1      31.640  17.461  16.163  1.00  0.00     0.167 HD
HETATM    5  C4  UNL     1      31.744  16.635  14.306  1.00  0.00     0.140 A
HETATM    6  O1  UNL     1      32.225  16.855  13.068  1.00  0.00    -0.307 OA
HETATM    7  C13 UNL     1      32.878  17.903  12.706  1.00  0.00     0.160 A
ENDROOT
BRANCH   5   8
HETATM    8  C5  UNL     1      30.998  15.379  14.500  1.00  0.00     0.203 C
BRANCH   8   9
HETATM    9  N4  UNL     1      30.912  14.669  13.214  1.00  0.00    -0.391 N
ATOM     10  H4  UNL     1      31.627  14.631  12.487  1.00  0.00     0.159 HD
BRANCH   9  11
HETATM   11  C6  UNL     1      29.622  14.040  13.188  1.00  0.00     0.094 C
BRANCH  11  12
HETATM   12  C7  UNL     1      28.687  14.173  12.112  1.00  0.00    -0.021 A
HETATM   13  C8  UNL     1      28.561  15.343  11.400  1.00  0.00     0.013 A
HETATM   14  C9  UNL     1      27.557  15.461  10.470  1.00  0.00     0.001 A
HETATM   15  C10 UNL     1      26.697  14.415  10.245  1.00  0.00     0.000 A
HETATM   16  C11 UNL     1      26.824  13.238  10.957  1.00  0.00     0.001 A
HETATM   17  C12 UNL     1      27.808  13.093  11.892  1.00  0.00     0.013 A
ENDBRANCH  11  12
ENDBRANCH   9  11
ENDBRANCH   8   9
ENDBRANCH   5   8
BRANCH   1  18
HETATM   18  C1  UNL     1      33.811  20.157  13.187  1.00  0.00     0.123 C
HETATM   19  N1  UNL     1      34.350  20.943  13.973  1.00  0.00    -0.387 N
ATOM     20  H12 UNL     1      34.817  21.793  13.659  1.00  0.00     0.157 HD
ATOM     21  H11 UNL     1      34.355  20.673  14.957  1.00  0.00     0.157 HD
HETATM   22  N2  UNL     1      33.804  20.537  11.803  1.00  0.00    -0.082 NA
ENDBRANCH   1  18
TORSDOF 5
ENDMDL