MODEL 2
REMARK VINA RESULT: -6.602528372      5.060      8.906
REMARK  5 active torsions:
REMARK  status: ('A' for Active; 'I' for Inactive)
REMARK    1  A    between atoms: C7_9  and  N3_10
REMARK    2  A    between atoms: N3_10  and  N4_12
REMARK    3  A    between atoms: N4_12  and  O1_14
REMARK    4  A    between atoms: C8_18  and  N6_19
REMARK    5  A    between atoms: N7_22  and  N8_23
ROOT
HETATM    1  C1  UNL     1       7.234   8.814  16.730  1.00  0.00     0.045 C
HETATM    2  C2  UNL     1       6.751   8.294  17.874  1.00  0.00     0.049 A
HETATM    3  C3  UNL     1       5.313   8.324  18.096  1.00  0.00     0.096 A
HETATM    4  C4  UNL     1       4.452   8.915  17.094  1.00  0.00     0.103 C
HETATM    5  N1  UNL     1       3.764   9.399  16.281  1.00  0.00    -0.191 NA
HETATM    6  C5  UNL     1       4.738   7.851  19.168  1.00  0.00     0.087 A
HETATM    7  N2  UNL     1       3.303   7.924  19.304  1.00  0.00    -0.100 NA
HETATM    8  C6  UNL     1       5.545   7.254  20.219  1.00  0.00     0.082 A
HETATM    9  C7  UNL     1       4.929   6.759  21.344  1.00  0.00     0.153 A
HETATM   10  N5  UNL     1       5.722   6.215  22.293  1.00  0.00    -0.173 N
ATOM     11  H5  UNL     1       5.297   5.837  23.140  1.00  0.00     0.186 HD
HETATM   12  C8  UNL     1       7.039   6.161  22.150  1.00  0.00     0.700 A
HETATM   13  N7  UNL     1       7.642   6.656  21.022  1.00  0.00    -0.075 N
HETATM   14  C9  UNL     1       6.948   7.206  20.039  1.00  0.00     0.163 A
HETATM   15  N9  UNL     1       7.594   7.724  18.863  1.00  0.00    -0.334 N
HETATM   16  C10 UNL     1       9.026   7.669  18.684  1.00  0.00     0.158 C
ENDROOT
BRANCH   9  17
HETATM   17  N3  UNL     1       3.538   6.769  21.552  1.00  0.00    -0.265 N
ATOM     18  H3  UNL     1       3.039   7.629  21.780  1.00  0.00     0.190 HD
BRANCH  17  19
HETATM   19  N4  UNL     1       2.860   5.527  21.431  1.00  0.00    -0.208 N
ATOM     20  H4  UNL     1       1.946   5.414  21.871  1.00  0.00     0.215 HD
BRANCH  19  21
HETATM   21  O1  UNL     1       3.353   4.568  20.799  1.00  0.00    -0.274 OA
ATOM     22  H1  UNL     1       3.206   3.667  21.064  1.00  0.00     0.246 HD
ENDBRANCH  19  21
ENDBRANCH  17  19
ENDBRANCH   9  17
BRANCH  13  23
HETATM   23  N8  UNL     1       9.029   6.559  20.938  1.00  0.00    -0.322 N
ATOM     24  H82 UNL     1       9.622   7.046  21.610  1.00  0.00     0.178 HD
ATOM     25  H81 UNL     1       9.416   5.991  20.185  1.00  0.00     0.178 HD
ENDBRANCH  13  23
BRANCH  12  26
HETATM   26  N6  UNL     1       7.805   5.648  23.040  1.00  0.00    -0.233 N
ATOM     27  H62 UNL     1       8.799   5.590  22.817  1.00  0.00     0.174 HD
ATOM     28  H61 UNL     1       7.450   5.308  23.933  1.00  0.00     0.174 HD
ENDBRANCH  12  26
TORSDOF 5
ENDMDL