MODEL 3
REMARK VINA RESULT: -6.291571098      2.394      4.714
REMARK  7 active torsions:
REMARK  status: ('A' for Active; 'I' for Inactive)
REMARK    1  A    between atoms: C2_4  and  O1_5
REMARK    2  A    between atoms: C2_4  and  C4_7
REMARK    3  A    between atoms: C5_8  and  O2_9
REMARK    4  A    between atoms: C8_15  and  C9_16
REMARK    5  A    between atoms: C9_16  and  O3_17
REMARK    6  A    between atoms: C9_16  and  N4_19
REMARK    7  A    between atoms: C11_23  and  N6_24
ROOT
HETATM    1  N4  UNL     1       1.996   9.536  11.525  1.00  0.00    -0.273 N
ATOM      2  H4  UNL     1       1.922  10.553  11.507  1.00  0.00     0.180 HD
HETATM    3  C10 UNL     1       2.907   8.869  10.654  1.00  0.00     0.183 C
HETATM    4  N5  UNL     1       3.638   8.314   9.958  1.00  0.00    -0.172 NA
ENDROOT
BRANCH   1   5
HETATM    5  C9  UNL     1       1.211   8.799  12.397  1.00  0.00     0.165 C
BRANCH   5   6
HETATM    6  C8  UNL     1       0.967   8.968  13.819  1.00  0.00     0.084 A
HETATM    7  C7  UNL     1       1.967   8.594  14.724  1.00  0.00     0.137 A
HETATM    8  N2  UNL     1       1.753   8.744  16.026  1.00  0.00    -0.319 N
HETATM    9  N3  UNL     1       3.190   8.063  14.252  1.00  0.00    -0.081 NA
HETATM   10  C5  UNL     1       0.607   9.243  16.505  1.00  0.00     0.160 A
HETATM   11  C6  UNL     1       2.777   8.363  16.990  1.00  0.00     0.159 C
HETATM   12  C4  UNL     1      -0.425   9.633  15.681  1.00  0.00     0.093 A
HETATM   13  C11 UNL     1      -0.241   9.493  14.312  1.00  0.00     0.062 A
BRANCH  10  14
HETATM   14  O2  UNL     1       0.410   9.389  17.885  1.00  0.00    -0.345 OA
ATOM     15  H2  UNL     1       0.135  10.245  18.192  1.00  0.00     0.219 HD
ENDBRANCH  10  14
BRANCH  12  16
HETATM   16  C2  UNL     1      -1.672  10.179  16.277  1.00  0.00     0.154 C
HETATM   17  N1  UNL     1      -2.403   9.515  17.030  1.00  0.00    -0.374 N
HETATM   18  C1  UNL     1      -3.588   9.679  17.742  1.00  0.00     0.148 C
ATOM     19  H1  UNL     1      -2.025   8.578  17.168  1.00  0.00     0.161 HD
BRANCH  16  20
HETATM   20  O1  UNL     1      -2.018  11.482  15.970  1.00  0.00    -0.340 OA
HETATM   21  C3  UNL     1      -1.345  12.652  16.320  1.00  0.00     0.211 C
ENDBRANCH  16  20
ENDBRANCH  12  16
BRANCH  13  22
HETATM   22  N6  UNL     1      -1.130   9.827  13.532  1.00  0.00    -0.397 N
ATOM     23  H62 UNL     1      -1.845  10.491  13.828  1.00  0.00     0.156 HD
ATOM     24  H61 UNL     1      -1.155   9.441  12.589  1.00  0.00     0.156 HD
ENDBRANCH  13  22
ENDBRANCH   5   6
BRANCH   5  25
HETATM   25  O3  UNL     1       0.598   7.789  11.823  1.00  0.00    -0.345 OA
ATOM     26  H3  UNL     1       0.633   7.765  10.875  1.00  0.00     0.219 HD
ENDBRANCH   5  25
ENDBRANCH   1   5
TORSDOF 7
ENDMDL