MODEL 2
REMARK VINA RESULT: -6.650962087      1.055      1.353
REMARK  4 active torsions:
REMARK  status: ('A' for Active; 'I' for Inactive)
REMARK    1  A    between atoms: N2_3  and  C2_4
REMARK    2  A    between atoms: N2_3  and  N9_19
REMARK    3  A    between atoms: C3_7  and  N4_8
REMARK    4  A    between atoms: N5_11  and  N6_12
ROOT
HETATM    1  N1  UNL     1       4.988   9.363  14.654  1.00  0.00    -0.170 NA
HETATM    2  C1  UNL     1       4.165   9.614  13.849  1.00  0.00     0.207 C
HETATM    3  N2  UNL     1       3.208   9.890  12.895  1.00  0.00    -0.166 N
ENDROOT
BRANCH   3   4
HETATM    4  C2  UNL     1       1.944  10.396  13.274  1.00  0.00     0.181 A
HETATM    5  N3  UNL     1       1.938  11.686  13.698  1.00  0.00    -0.171 N
HETATM    6  C3  UNL     1       0.775  12.248  14.118  1.00  0.00     0.700 A
ATOM      7  H3  UNL     1       2.801  12.229  13.702  1.00  0.00     0.186 HD
HETATM    8  N5  UNL     1      -0.363  11.544  14.121  1.00  0.00    -0.077 N
HETATM    9  C4  UNL     1      -0.396  10.256  13.705  1.00  0.00     0.183 A
HETATM   10  N7  UNL     1      -1.599   9.505  13.730  1.00  0.00    -0.078 NA
HETATM   11  C5  UNL     1       0.781   9.675  13.272  1.00  0.00     0.137 A
HETATM   12  N8  UNL     1       0.773   8.357  12.795  1.00  0.00    -0.095 NA
BRANCH   6  13
HETATM   13  N4  UNL     1       0.745  13.488  14.508  1.00  0.00    -0.233 N
ATOM     14  H42 UNL     1       1.429  14.140  14.124  1.00  0.00     0.174 HD
ATOM     15  H41 UNL     1       0.058  13.798  15.195  1.00  0.00     0.174 HD
ENDBRANCH   6  13
BRANCH   8  16
HETATM   16  N6  UNL     1      -1.549  12.137  14.555  1.00  0.00    -0.323 N
ATOM     17  H62 UNL     1      -1.556  13.141  14.734  1.00  0.00     0.178 HD
ATOM     18  H61 UNL     1      -2.385  11.568  14.689  1.00  0.00     0.178 HD
ENDBRANCH   8  16
ENDBRANCH   3   4
BRANCH   3  19
HETATM   19  N9  UNL     1       3.515   9.639  11.543  1.00  0.00    -0.244 N
HETATM   20  C6  UNL     1       4.157   8.504  10.946  1.00  0.00     0.154 C
HETATM   21  C7  UNL     1       4.486   8.953   9.530  1.00  0.00     0.031 C
HETATM   22  C8  UNL     1       4.286  10.428   9.489  1.00  0.00     0.106 C
HETATM   23  C9  UNL     1       3.184  10.589  10.504  1.00  0.00     0.239 C
HETATM   24  O1  UNL     1       2.199  11.363  10.473  1.00  0.00    -0.272 OA
ENDBRANCH   3  19
TORSDOF 4
ENDMDL