MODEL 5
REMARK VINA RESULT: -5.849825227      3.044      5.272
REMARK  5 active torsions:
REMARK  status: ('A' for Active; 'I' for Inactive)
REMARK    1  A    between atoms: O1_2  and  C2_3
REMARK    2  A    between atoms: C2_3  and  C3_5
REMARK    3  A    between atoms: N1_7  and  O3_8
REMARK    4  A    between atoms: C5_14  and  N4_15
REMARK    5  A    between atoms: N4_15  and  C6_17
ROOT
HETATM    1  C3  UNL     1       1.475   9.738  14.335  1.00  0.00     0.228 C
HETATM    2  C4  UNL     1       1.296  11.258  14.220  1.00  0.00     0.063 C
HETATM    3  N1  UNL     1       2.704   9.476  15.011  1.00  0.00    -0.060 NA
HETATM    4  N2  UNL     1       3.833   9.764  14.245  1.00  0.00    -0.235 N
ATOM      5  H2  UNL     1       4.433  10.536  14.536  1.00  0.00     0.204 HD
HETATM    6  N3  UNL     1       4.182   9.048  13.104  1.00  0.00    -0.266 N
ATOM      7  H3  UNL     1       5.159   8.827  12.910  1.00  0.00     0.190 HD
HETATM    8  C5  UNL     1       3.248   8.665  12.290  1.00  0.00     0.194 C
HETATM    9  S1  UNL     1       1.592   9.083  12.683  1.00  0.00     0.123 S
HETATM   10  O4  UNL     1       0.596   8.009  12.376  1.00  0.00    -0.247 OA
ENDROOT
BRANCH   8  11
HETATM   11  N4  UNL     1       3.588   7.927  11.112  1.00  0.00    -0.324 N
ATOM     12  H4  UNL     1       3.500   6.911  11.085  1.00  0.00     0.169 HD
BRANCH  11  13
HETATM   13  C6  UNL     1       4.050   8.650   9.985  1.00  0.00     0.072 C
HETATM   14  C7  UNL     1       3.187   9.583   9.216  1.00  0.00     0.088 C
HETATM   15  N5  UNL     1       5.271   8.496   9.605  1.00  0.00    -0.389 N
ATOM     16  H52 UNL     1       5.864   7.855  10.133  1.00  0.00     0.157 HD
ATOM     17  H51 UNL     1       5.604   9.016   8.793  1.00  0.00     0.157 HD
ENDBRANCH  11  13
ENDBRANCH   8  11
BRANCH   1  18
HETATM   18  C2  UNL     1       0.333   9.233  15.094  1.00  0.00     0.299 C
HETATM   19  O2  UNL     1      -0.816   9.382  14.614  1.00  0.00    -0.262 OA
BRANCH  18  20
HETATM   20  O1  UNL     1       0.421   8.593  16.318  1.00  0.00    -0.324 OA
HETATM   21  C1  UNL     1      -0.016   9.258  17.487  1.00  0.00     0.213 C
ENDBRANCH  18  20
ENDBRANCH   1  18
BRANCH   3  22
HETATM   22  O3  UNL     1       2.785   8.221  15.514  1.00  0.00    -0.291 OA
ATOM     23  H3  UNL     1       3.674   7.893  15.567  1.00  0.00     0.239 HD
ENDBRANCH   3  22
TORSDOF 5
ENDMDL