MODEL 4
REMARK VINA RESULT: -6.809303422      9.102     11.092
REMARK  5 active torsions:
REMARK  status: ('A' for Active; 'I' for Inactive)
REMARK    1  A    between atoms: C2_3  and  N2_4
REMARK    2  A    between atoms: C6_17  and  C7_18
REMARK    3  A    between atoms: C7_18  and  O2_20
REMARK    4  A    between atoms: O2_20  and  C8_21
REMARK    5  A    between atoms: N7_24  and  O3_25
ROOT
HETATM    1  C8  UNL     1      -1.831  10.317  15.789  1.00  0.00     0.302 C
HETATM    2  C9  UNL     1      -1.584   9.356  16.871  1.00  0.00     0.085 C
HETATM    3  N6  UNL     1      -1.372   8.598  17.737  1.00  0.00    -0.195 NA
ENDROOT
BRANCH   1   4
HETATM    4  O2  UNL     1      -1.512   9.669  14.572  1.00  0.00    -0.301 OA
BRANCH   4   5
HETATM    5  C7  UNL     1      -0.869  10.397  13.588  1.00  0.00     0.331 C
HETATM    6  O1  UNL     1      -1.385  11.466  13.193  1.00  0.00    -0.256 OA
BRANCH   5   7
HETATM    7  C6  UNL     1       0.393   9.964  12.990  1.00  0.00     0.211 A
HETATM    8  N5  UNL     1       0.874  10.256  11.771  1.00  0.00    -0.319 N
HETATM    9  C5  UNL     1       2.081   9.654  11.604  1.00  0.00     0.158 A
ATOM     10  H5  UNL     1       0.406  10.840  11.078  1.00  0.00     0.169 HD
HETATM   11  N1  UNL     1       2.961   9.628  10.588  1.00  0.00    -0.170 N
HETATM   12  C4  UNL     1       2.347   8.966  12.769  1.00  0.00     0.153 A
HETATM   13  C1  UNL     1       2.656  10.361   9.374  1.00  0.00     0.177 C
HETATM   14  C2  UNL     1       4.121   8.955  10.633  1.00  0.00     0.681 A
HETATM   15  N3  UNL     1       4.374   8.289  11.763  1.00  0.00    -0.175 N
HETATM   16  C3  UNL     1       3.533   8.267  12.836  1.00  0.00     0.148 A
ATOM     17  H3  UNL     1       5.248   7.766  11.827  1.00  0.00     0.186 HD
HETATM   18  N4  UNL     1       3.843   7.606  13.886  1.00  0.00    -0.383 N
ATOM     19  H42 UNL     1       4.721   7.089  13.937  1.00  0.00     0.157 HD
ATOM     20  H41 UNL     1       3.215   7.590  14.689  1.00  0.00     0.157 HD
HETATM   21  N7  UNL     1       1.306   9.175  13.582  1.00  0.00    -0.194 N
BRANCH  14  22
HETATM   22  N2  UNL     1       4.955   8.949   9.629  1.00  0.00    -0.234 N
ATOM     23  H22 UNL     1       4.840   9.573   8.831  1.00  0.00     0.174 HD
ATOM     24  H21 UNL     1       5.759   8.322   9.599  1.00  0.00     0.174 HD
ENDBRANCH  14  22
BRANCH  21  25
HETATM   25  O3  UNL     1       1.175   8.663  14.848  1.00  0.00    -0.280 OA
ATOM     26  H3  UNL     1       0.422   8.784  15.413  1.00  0.00     0.245 HD
ENDBRANCH  21  25
ENDBRANCH   5   7
ENDBRANCH   4   5
ENDBRANCH   1   4
TORSDOF 5
ENDMDL