MODEL 4
REMARK VINA RESULT: -7.889002842      3.501      7.418
REMARK  3 active torsions:
REMARK  status: ('A' for Active; 'I' for Inactive)
REMARK    1  A    between atoms: N1_1  and  C1_4
REMARK    2  A    between atoms: C4_12  and  C5_13
REMARK    3  A    between atoms: C6_22  and  N8_23
ROOT
HETATM    1  C1  UNL     1       2.006  10.321  11.482  1.00  0.00     0.680 A
HETATM    2  N2  UNL     1       1.187   9.420  12.049  1.00  0.00    -0.154 N
ATOM      3  H2  UNL     1       0.300   9.206  11.591  1.00  0.00     0.187 HD
HETATM    4  C2  UNL     1       1.489   8.792  13.195  1.00  0.00     0.290 A
HETATM    5  O1  UNL     1       0.721   7.955  13.719  1.00  0.00    -0.265 OA
HETATM    6  C3  UNL     1       2.689   9.074  13.831  1.00  0.00     0.147 A
HETATM    7  N3  UNL     1       3.046   8.486  14.970  1.00  0.00    -0.342 N
ATOM      8  H3  UNL     1       2.406   7.806  15.382  1.00  0.00     0.166 HD
HETATM    9  C4  UNL     1       4.235   8.744  15.630  1.00  0.00     0.131 A
HETATM   10  C6  UNL     1       5.064   9.653  15.055  1.00  0.00     0.206 A
HETATM   11  N9  UNL     1       4.669  10.250  13.871  1.00  0.00    -0.319 N
ATOM     12  H9  UNL     1       5.297  10.934  13.448  1.00  0.00     0.169 HD
HETATM   13  C7  UNL     1       3.526   9.991  13.253  1.00  0.00     0.155 A
HETATM   14  N10 UNL     1       3.180  10.594  12.105  1.00  0.00    -0.174 N
ATOM     15  H10 UNL     1       3.815  11.274  11.690  1.00  0.00     0.186 HD
ENDROOT
BRANCH   9  16
HETATM   16  C5  UNL     1       4.492   8.056  16.884  1.00  0.00     0.168 A
HETATM   17  N4  UNL     1       5.527   7.530  17.496  1.00  0.00    -0.267 N
HETATM   18  N5  UNL     1       5.177   7.014  18.654  1.00  0.00    -0.227 N
ATOM     19  H4  UNL     1       6.476   7.523  17.124  1.00  0.00     0.190 HD
HETATM   20  N6  UNL     1       3.872   7.199  18.821  1.00  0.00    -0.227 N
ATOM     21  H5  UNL     1       5.801   6.550  19.312  1.00  0.00     0.210 HD
HETATM   22  N7  UNL     1       3.444   7.831  17.753  1.00  0.00    -0.267 N
ATOM     23  H6  UNL     1       3.313   6.907  19.623  1.00  0.00     0.210 HD
ATOM     24  H7  UNL     1       2.479   8.113  17.589  1.00  0.00     0.190 HD
ENDBRANCH   9  16
BRANCH  10  25
HETATM   25  N8  UNL     1       6.304  10.031  15.597  1.00  0.00    -0.095 N
HETATM   26  O2  UNL     1       6.437  11.303  15.787  1.00  0.00    -0.530 OA
HETATM   27  O3  UNL     1       7.383   9.318  15.964  1.00  0.00    -0.530 OA
ENDBRANCH  10  25
BRANCH   1  28
HETATM   28  N1  UNL     1       1.686  10.912  10.375  1.00  0.00    -0.234 N
ATOM     29  H12 UNL     1       0.713  11.126  10.156  1.00  0.00     0.174 HD
ATOM     30  H11 UNL     1       2.398  11.176   9.695  1.00  0.00     0.174 HD
ENDBRANCH   1  28
TORSDOF 3
ENDMDL