MODEL 1
REMARK VINA RESULT: -6.698776711      0.000      0.000
REMARK  5 active torsions:
REMARK  status: ('A' for Active; 'I' for Inactive)
REMARK       I    between atoms: C2_2  and  N1_4
REMARK    1  A    between atoms: C4_7  and  C5_8
REMARK       I    between atoms: C5_8  and  N3_10
REMARK    2  A    between atoms: N3_10  and  N4_12
REMARK    3  A    between atoms: N6_18  and  N7_20
REMARK    4  A    between atoms: N7_20  and  C7_22
REMARK    5  A    between atoms: C7_22  and  N8_23
ROOT
HETATM    1  C1  UNL     1       3.853   7.330  12.215  1.00  0.00     0.119 C
HETATM    2  C2  UNL     1       3.662   8.467  11.237  1.00  0.00     0.240 C
HETATM    3  O1  UNL     1       4.453   8.562  10.271  1.00  0.00    -0.273 OA
HETATM    4  N1  UNL     1       2.607   9.403  11.418  1.00  0.00    -0.099 N
HETATM    5  C3  UNL     1       1.721   9.334  12.463  1.00  0.00     0.175 A
HETATM    6  N2  UNL     1       1.676   8.376  13.518  1.00  0.00    -0.079 NA
HETATM    7  C4  UNL     1       0.832  10.376  12.348  1.00  0.00     0.161 A
HETATM    8  N5  UNL     1       1.141  11.080  11.270  1.00  0.00    -0.181 N
ATOM      9  H5  UNL     1       0.658  11.911  10.931  1.00  0.00     0.184 HD
HETATM   10  C6  UNL     1       2.255  10.472  10.684  1.00  0.00     0.708 A
HETATM   11  N6  UNL     1       2.725  10.977   9.639  1.00  0.00    -0.123 N
ATOM     12  H6  UNL     1       2.199  11.803   9.353  1.00  0.00     0.206 HD
ENDROOT
BRANCH  11  13
HETATM   13  N7  UNL     1       3.716  10.725   8.812  1.00  0.00    -0.236 N
ATOM     14  H7  UNL     1       3.621   9.960   8.145  1.00  0.00     0.199 HD
BRANCH  13  15
HETATM   15  C7  UNL     1       4.804  11.416   8.820  1.00  0.00     0.061 C
BRANCH  15  16
HETATM   16  N8  UNL     1       5.805  12.200   8.840  1.00  0.00    -0.350 N
ATOM     17  H82 UNL     1       5.251  12.683   8.132  1.00  0.00     0.167 HD
ATOM     18  H81 UNL     1       6.648  12.769   8.926  1.00  0.00     0.167 HD
ENDBRANCH  15  16
ENDBRANCH  13  15
ENDBRANCH  11  13
BRANCH   7  19
HETATM   19  C5  UNL     1      -0.271  10.635  13.289  1.00  0.00     0.295 C
HETATM   20  O2  UNL     1      -1.469  10.512  12.937  1.00  0.00    -0.264 OA
HETATM   21  N3  UNL     1      -0.020  11.030  14.621  1.00  0.00    -0.204 N
ATOM     22  H3  UNL     1       0.949  11.134  14.920  1.00  0.00     0.196 HD
BRANCH  21  23
HETATM   23  N4  UNL     1      -1.026  11.285  15.545  1.00  0.00    -0.036 N
HETATM   24  O3  UNL     1      -1.552  10.413  16.261  1.00  0.00    -0.516 OA
HETATM   25  O4  UNL     1      -1.459  12.599  15.667  1.00  0.00    -0.516 OA
ENDBRANCH  21  23
ENDBRANCH   7  19
TORSDOF 5
ENDMDL