MODEL 4
REMARK VINA RESULT: -6.883072018      2.276      5.895
REMARK  3 active torsions:
REMARK  status: ('A' for Active; 'I' for Inactive)
REMARK    1  A    between atoms: N1_1  and  C1_4
REMARK    2  A    between atoms: C3_8  and  N3_9
REMARK    3  A    between atoms: N6_18  and  C6_19
ROOT
HETATM    1  C1  UNL     1      -0.359  10.069  13.103  1.00  0.00     0.684 A
HETATM    2  N2  UNL     1       0.667   9.760  12.261  1.00  0.00    -0.172 N
ATOM      3  H2  UNL     1       0.613  10.014  11.275  1.00  0.00     0.186 HD
HETATM    4  C2  UNL     1       1.742   9.124  12.727  1.00  0.00     0.181 A
HETATM    5  C3  UNL     1       2.908   8.700  12.079  1.00  0.00     0.166 A
HETATM    6  C4  UNL     1       3.638   8.109  13.085  1.00  0.00     0.148 A
HETATM    7  N4  UNL     1       2.944   8.185  14.233  1.00  0.00    -0.297 N
ATOM      8  H4  UNL     1       3.261   7.821  15.131  1.00  0.00     0.186 HD
HETATM    9  N5  UNL     1       1.786   8.801  14.029  1.00  0.00    -0.185 N
HETATM   10  C5  UNL     1       0.752   9.118  14.858  1.00  0.00     0.364 A
HETATM   11  O3  UNL     1       0.880   8.781  16.042  1.00  0.00    -0.244 OA
HETATM   12  N6  UNL     1      -0.343   9.762  14.396  1.00  0.00    -0.125 N
ENDROOT
BRANCH  12  13
HETATM   13  C6  UNL     1      -1.368  10.062  15.282  1.00  0.00     0.140 C
HETATM   14  C7  UNL     1      -1.348  11.480  15.851  1.00  0.00     0.055 C
HETATM   15  C8  UNL     1      -2.623  11.370  16.708  1.00  0.00     0.234 C
HETATM   16  N7  UNL     1      -2.752   9.993  17.081  1.00  0.00    -0.073 N
HETATM   17  C9  UNL     1      -1.556   9.302  16.527  1.00  0.00     0.258 C
ATOM     18  H72 UNL     1      -2.874   9.853  18.084  1.00  0.00     0.277 HD
ATOM     19  H71 UNL     1      -3.634   9.574  16.789  1.00  0.00     0.277 HD
ENDBRANCH  12  13
BRANCH   1  20
HETATM   20  N1  UNL     1      -1.348  10.671  12.610  1.00  0.00    -0.234 N
ATOM     21  H12 UNL     1      -1.213  11.346  11.858  1.00  0.00     0.174 HD
ATOM     22  H11 UNL     1      -2.267  10.452  12.994  1.00  0.00     0.174 HD
ENDBRANCH   1  20
BRANCH   5  23
HETATM   23  N3  UNL     1       3.230   8.860  10.706  1.00  0.00    -0.110 N
HETATM   24  O1  UNL     1       2.795   9.810  10.060  1.00  0.00    -0.532 OA
HETATM   25  O2  UNL     1       4.036   7.946  10.079  1.00  0.00    -0.532 OA
ENDBRANCH   5  23
TORSDOF 3
ENDMDL