MODEL 5
REMARK VINA RESULT: -6.203180958      5.044      5.761
REMARK  3 active torsions:
REMARK  status: ('A' for Active; 'I' for Inactive)
REMARK    1  A    between atoms: N1_1  and  C1_4
REMARK    2  A    between atoms: C2_6  and  C3_7
REMARK       I    between atoms: N5_17  and  C5_18
REMARK       I    between atoms: C5_18  and  N6_20
REMARK    3  A    between atoms: N6_20  and  N7_22
ROOT
HETATM    1  C1  UNL     1       5.964   5.765  20.515  1.00  0.00     0.171 A
HETATM    2  S1  UNL     1       5.338   7.312  20.039  1.00  0.00    -0.029 SA
HETATM    3  C2  UNL     1       6.300   8.266  21.059  1.00  0.00     0.138 A
HETATM    4  N4  UNL     1       7.008   7.378  21.673  1.00  0.00    -0.278 N
ATOM      5  H4  UNL     1       7.694   7.676  22.367  1.00  0.00     0.188 HD
HETATM    6  N5  UNL     1       6.866   6.116  21.425  1.00  0.00    -0.180 N
HETATM    7  C5  UNL     1       7.699   5.183  22.157  1.00  0.00     0.361 C
HETATM    8  O2  UNL     1       8.547   5.622  23.022  1.00  0.00    -0.243 OA
HETATM    9  N6  UNL     1       7.668   3.799  22.007  1.00  0.00    -0.256 N
ATOM     10  H6  UNL     1       7.020   3.381  21.339  1.00  0.00     0.191 HD
ENDROOT
BRANCH   3  11
HETATM   11  C3  UNL     1       6.327   9.756  21.214  1.00  0.00     0.150 A
HETATM   12  N2  UNL     1       5.237  10.461  21.296  1.00  0.00    -0.300 N
HETATM   13  C4  UNL     1       5.319  11.769  21.431  1.00  0.00     0.305 A
ATOM     14  H2  UNL     1       4.327  10.005  21.257  1.00  0.00     0.171 HD
HETATM   15  O1  UNL     1       4.364  12.622  21.527  1.00  0.00    -0.258 OA
HETATM   16  S2  UNL     1       7.009  12.011  21.443  1.00  0.00     0.049 SA
HETATM   17  N3  UNL     1       7.496  10.409  21.273  1.00  0.00    -0.306 N
ATOM     18  H3  UNL     1       8.442  10.031  21.226  1.00  0.00     0.176 HD
ENDBRANCH   3  11
BRANCH   1  19
HETATM   19  N1  UNL     1       5.597   4.598  20.056  1.00  0.00    -0.378 N
ATOM     20  H12 UNL     1       5.181   4.316  19.169  1.00  0.00     0.158 HD
ATOM     21  H11 UNL     1       5.666   3.702  20.541  1.00  0.00     0.158 HD
ENDBRANCH   1  19
BRANCH   9  22
HETATM   22  N7  UNL     1       8.526   2.958  22.771  1.00  0.00    -0.341 N
ATOM     23  H72 UNL     1       9.145   3.389  23.457  1.00  0.00     0.177 HD
ATOM     24  H71 UNL     1       8.525   1.946  22.640  1.00  0.00     0.177 HD
ENDBRANCH   9  22
TORSDOF 3
ENDMDL