MODEL 5
REMARK VINA RESULT: -6.343066896      1.465      1.639
REMARK  4 active torsions:
REMARK  status: ('A' for Active; 'I' for Inactive)
REMARK    1  A    between atoms: C2_2  and  N1_3
REMARK    2  A    between atoms: C3_4  and  N2_5
REMARK    3  A    between atoms: C5_10  and  N4_11
REMARK    4  A    between atoms: C7_23  and  N9_24
ROOT
HETATM    1  N2  UNL     1       1.163  10.251  12.625  1.00  0.00    -0.025 N
HETATM    2  N3  UNL     1       1.725   9.128  13.034  1.00  0.00    -0.252 N
ATOM      3  H3  UNL     1       1.478   8.577  13.856  1.00  0.00     0.190 HD
HETATM    4  C4  UNL     1       2.711   8.860  12.118  1.00  0.00     0.194 A
HETATM    5  S1  UNL     1       3.964   7.798  11.645  1.00  0.00    -0.013 SA
HETATM    6  C5  UNL     1       4.466   8.631  10.250  1.00  0.00     0.161 A
HETATM    7  N5  UNL     1       3.638   9.678  10.230  1.00  0.00    -0.267 N
ATOM      8  H5  UNL     1       3.698  10.375   9.489  1.00  0.00     0.190 HD
HETATM    9  N6  UNL     1       2.760   9.788  11.169  1.00  0.00    -0.177 N
HETATM   10  C6  UNL     1       1.760  10.677  11.506  1.00  0.00     0.384 A
HETATM   11  O1  UNL     1       1.402  11.727  10.925  1.00  0.00    -0.242 OA
ENDROOT
BRANCH   1  12
HETATM   12  C3  UNL     1       0.072  10.874  13.326  1.00  0.00     0.739 A
HETATM   13  N1  UNL     1       0.076  11.543  14.485  1.00  0.00    -0.010 N
HETATM   14  C7  UNL     1      -1.164  11.965  14.788  1.00  0.00     0.707 A
HETATM   15  N8  UNL     1      -1.948  11.544  13.789  1.00  0.00    -0.117 N
HETATM   16  N7  UNL     1      -1.203  10.883  12.902  1.00  0.00    -0.115 N
ATOM     17  H8  UNL     1      -2.953  11.703  13.717  1.00  0.00     0.206 HD
ATOM     18  H7  UNL     1      -1.546  10.454  12.042  1.00  0.00     0.206 HD
BRANCH  13  19
HETATM   19  C2  UNL     1       1.260  11.767  15.281  1.00  0.00     0.162 C
HETATM   20  C1  UNL     1       1.507  10.700  16.292  1.00  0.00     0.028 C
ENDBRANCH  13  19
BRANCH  14  21
HETATM   21  N9  UNL     1      -1.504  12.637  15.831  1.00  0.00    -0.233 N
ATOM     22  H92 UNL     1      -0.989  13.390  16.288  1.00  0.00     0.174 HD
ATOM     23  H91 UNL     1      -2.359  12.515  16.374  1.00  0.00     0.174 HD
ENDBRANCH  14  21
ENDBRANCH   1  12
BRANCH   6  24
HETATM   24  N4  UNL     1       5.423   8.326   9.403  1.00  0.00    -0.378 N
ATOM     25  H42 UNL     1       6.286   8.833   9.210  1.00  0.00     0.158 HD
ATOM     26  H41 UNL     1       5.493   7.528   8.771  1.00  0.00     0.158 HD
ENDBRANCH   6  24
TORSDOF 4
ENDMDL