MODEL 3
REMARK VINA RESULT: -7.021253499      3.523      5.942
REMARK  14 active torsions:
REMARK  status: ('A' for Active; 'I' for Inactive)
REMARK    1  A    between atoms: C2_2  and  C4_4
REMARK    2  A    between atoms: C4_4  and  C5_5
REMARK    3  A    between atoms: C5_5  and  S1_6
REMARK    4  A    between atoms: S1_6  and  C6_7
REMARK    5  A    between atoms: C6_7  and  C7_8
REMARK    6  A    between atoms: C9_11  and  C10_12
REMARK    7  A    between atoms: C13_15  and  O1_16
REMARK    8  A    between atoms: C14_18  and  O2_19
REMARK    9  A    between atoms: O2_19  and  C15_20
REMARK   10  A    between atoms: C16_22  and  C17_23
REMARK   11  A    between atoms: C17_23  and  O4_24
REMARK   12  A    between atoms: C18_26  and  O5_27
REMARK   13  A    between atoms: C19_29  and  O6_30
REMARK   14  A    between atoms: C20_32  and  O7_33
ROOT
HETATM    1  C7  UNL     1      21.775  65.532  46.253  1.00  0.00     0.088 C
HETATM    2  S2  UNL     1      22.322  66.592  47.639  1.00  0.00    -0.160 SA
HETATM    3  C8  UNL     1      23.178  65.436  48.788  1.00  0.00     0.082 C
HETATM    4  C9  UNL     1      24.157  64.694  47.943  1.00  0.00     0.029 C
HETATM    5  C13 UNL     1      23.457  63.832  46.896  1.00  0.00     0.153 C
HETATM    6  C14 UNL     1      22.958  64.729  45.814  1.00  0.00     0.168 C
ENDROOT
BRANCH   6   7
HETATM    7  O2  UNL     1      22.796  64.132  44.582  1.00  0.00    -0.349 OA
BRANCH   7   8
HETATM    8  C15 UNL     1      22.779  64.951  43.505  1.00  0.00     0.292 C
HETATM    9  O3  UNL     1      22.309  64.246  42.371  1.00  0.00    -0.348 OA
HETATM   10  C16 UNL     1      22.869  62.967  42.307  1.00  0.00     0.179 C
HETATM   11  C18 UNL     1      24.359  63.043  42.317  1.00  0.00     0.180 C
HETATM   12  C19 UNL     1      24.798  64.466  42.083  1.00  0.00     0.183 C
HETATM   13  C20 UNL     1      24.197  65.360  43.164  1.00  0.00     0.204 C
BRANCH  10  14
HETATM   14  C17 UNL     1      22.388  62.377  40.984  1.00  0.00     0.198 C
BRANCH  14  15
HETATM   15  O4  UNL     1      23.430  61.697  40.341  1.00  0.00    -0.398 OA
ATOM     16  H4  UNL     1      23.771  61.007  40.897  1.00  0.00     0.209 HD
ENDBRANCH  14  15
ENDBRANCH  10  14
BRANCH  11  17
HETATM   17  O5  UNL     1      24.933  62.528  43.484  1.00  0.00    -0.390 OA
ATOM     18  H5  UNL     1      25.167  63.198  44.116  1.00  0.00     0.210 HD
ENDBRANCH  11  17
BRANCH  12  19
HETATM   19  O6  UNL     1      26.186  64.533  42.156  1.00  0.00    -0.390 OA
ATOM     20  H6  UNL     1      26.433  65.265  42.709  1.00  0.00     0.210 HD
ENDBRANCH  12  19
BRANCH  13  21
HETATM   21  O7  UNL     1      24.252  66.700  42.771  1.00  0.00    -0.388 OA
ATOM     22  H7  UNL     1      23.509  67.185  43.112  1.00  0.00     0.210 HD
ENDBRANCH  13  21
ENDBRANCH   7   8
ENDBRANCH   6   7
BRANCH   1  23
HETATM   23  C6  UNL     1      20.626  64.721  46.790  1.00  0.00     0.091 C
BRANCH  23  24
HETATM   24  S1  UNL     1      19.531  65.917  47.650  1.00  0.00    -0.168 SA
BRANCH  24  25
HETATM   25  C5  UNL     1      18.002  66.169  46.729  1.00  0.00     0.074 C
BRANCH  25  26
HETATM   26  C4  UNL     1      16.810  65.942  47.638  1.00  0.00     0.014 C
BRANCH  26  27
HETATM   27  C2  UNL     1      15.681  65.223  46.937  1.00  0.00    -0.022 C
HETATM   28  C1  UNL     1      15.925  65.430  45.436  1.00  0.00     0.009 C
HETATM   29  C3  UNL     1      14.345  65.880  47.226  1.00  0.00     0.009 C
ENDBRANCH  26  27
ENDBRANCH  25  26
ENDBRANCH  24  25
ENDBRANCH  23  24
ENDBRANCH   1  23
BRANCH   5  30
HETATM   30  O1  UNL     1      24.423  62.933  46.463  1.00  0.00    -0.393 OA
ATOM     31  H1  UNL     1      25.161  63.471  46.200  1.00  0.00     0.210 HD
ENDBRANCH   5  30
BRANCH   4  32
HETATM   32  C10 UNL     1      25.186  63.932  48.717  1.00  0.00    -0.015 C
HETATM   33  C11 UNL     1      26.474  64.721  48.677  1.00  0.00     0.010 C
HETATM   34  C12 UNL     1      24.761  63.540  50.088  1.00  0.00     0.010 C
ENDBRANCH   4  32
TORSDOF 14
ENDMDL