MODEL 3
REMARK VINA RESULT: -7.788971399      1.833      2.975
REMARK  15 active torsions:
REMARK  status: ('A' for Active; 'I' for Inactive)
REMARK    1  A    between atoms: C2_2  and  C3_3
REMARK    2  A    between atoms: C3_3  and  O1_4
REMARK    3  A    between atoms: O1_4  and  O2_5
REMARK    4  A    between atoms: C4_7  and  C5_8
REMARK    5  A    between atoms: C5_8  and  C6_9
REMARK    6  A    between atoms: C11_14  and  O3_15
REMARK    7  A    between atoms: O3_15  and  C12_16
REMARK    8  A    between atoms: C15_20  and  O5_21
REMARK    9  A    between atoms: O5_21  and  C16_22
REMARK   10  A    between atoms: C16_22  and  C17_23
REMARK   11  A    between atoms: C18_25  and  C19_26
REMARK   12  A    between atoms: C19_26  and  O7_27
REMARK   13  A    between atoms: C20_29  and  O8_30
REMARK   14  A    between atoms: C21_32  and  O9_33
REMARK   15  A    between atoms: C22_35  and  O10_36
ROOT
HETATM    1  C12 UNL     1      22.675  66.349  48.410  1.00  0.00     0.202 C
HETATM    2  C13 UNL     1      22.797  65.810  49.798  1.00  0.00     0.034 C
HETATM    3  C14 UNL     1      23.434  64.664  49.737  1.00  0.00     0.137 C
HETATM    4  O4  UNL     1      23.762  64.372  48.400  1.00  0.00    -0.330 OA
HETATM    5  C15 UNL     1      23.717  65.621  47.688  1.00  0.00     0.297 C
ENDROOT
BRANCH   5   6
HETATM    6  O5  UNL     1      24.951  66.122  47.601  1.00  0.00    -0.355 OA
BRANCH   6   7
HETATM    7  C16 UNL     1      25.856  65.528  46.775  1.00  0.00     0.205 C
BRANCH   7   8
HETATM    8  C17 UNL     1      27.161  65.238  47.486  1.00  0.00     0.177 C
HETATM    9  O6  UNL     1      27.092  65.873  48.726  1.00  0.00    -0.371 OA
HETATM   10  C18 UNL     1      28.283  65.741  49.439  1.00  0.00     0.177 C
HETATM   11  C20 UNL     1      28.854  64.362  49.364  1.00  0.00     0.180 C
HETATM   12  C21 UNL     1      27.769  63.390  48.989  1.00  0.00     0.180 C
HETATM   13  C22 UNL     1      27.261  63.733  47.624  1.00  0.00     0.180 C
BRANCH  10  14
HETATM   14  C19 UNL     1      27.966  66.057  50.884  1.00  0.00     0.198 C
BRANCH  14  15
HETATM   15  O7  UNL     1      27.958  67.408  51.136  1.00  0.00    -0.398 OA
ATOM     16  H7  UNL     1      27.328  67.648  51.805  1.00  0.00     0.209 HD
ENDBRANCH  14  15
ENDBRANCH  10  14
BRANCH  11  17
HETATM   17  O8  UNL     1      29.449  63.925  50.530  1.00  0.00    -0.390 OA
ATOM     18  H8  UNL     1      30.355  63.655  50.433  1.00  0.00     0.210 HD
ENDBRANCH  11  17
BRANCH  12  19
HETATM   19  O9  UNL     1      26.758  63.309  49.927  1.00  0.00    -0.390 OA
ATOM     20  H9  UNL     1      25.894  63.466  49.565  1.00  0.00     0.210 HD
ENDBRANCH  12  19
BRANCH  13  21
HETATM   21  O10 UNL     1      25.993  63.136  47.493  1.00  0.00    -0.390 OA
ATOM     22  H10 UNL     1      25.949  62.609  46.704  1.00  0.00     0.210 HD
ENDBRANCH  13  21
ENDBRANCH   7   8
ENDBRANCH   6   7
ENDBRANCH   5   6
BRANCH   1  23
HETATM   23  O3  UNL     1      21.403  65.977  47.985  1.00  0.00    -0.364 OA
BRANCH  23  24
HETATM   24  C11 UNL     1      21.296  65.596  46.698  1.00  0.00     0.188 C
HETATM   25  C3  UNL     1      19.965  64.716  46.551  1.00  0.00     0.152 C
HETATM   26  C4  UNL     1      19.067  65.774  46.962  1.00  0.00    -0.018 C
HETATM   27  C9  UNL     1      19.469  66.841  45.949  1.00  0.00     0.009 C
HETATM   28  C10 UNL     1      20.776  66.723  45.809  1.00  0.00     0.009 C
BRANCH  25  29
HETATM   29  C2  UNL     1      20.097  64.348  45.104  1.00  0.00     0.045 C
HETATM   30  C1  UNL     1      19.283  63.304  44.500  1.00  0.00     0.009 C
ENDBRANCH  25  29
BRANCH  25  31
HETATM   31  O1  UNL     1      20.105  63.652  47.397  1.00  0.00    -0.224 OA
BRANCH  31  32
HETATM   32  O2  UNL     1      21.305  63.110  47.360  1.00  0.00    -0.249 OA
ATOM     33  H2  UNL     1      21.447  62.462  48.039  1.00  0.00     0.253 HD
ENDBRANCH  31  32
ENDBRANCH  25  31
BRANCH  26  34
HETATM   34  C5  UNL     1      17.703  65.778  47.279  1.00  0.00     0.012 C
BRANCH  34  35
HETATM   35  C6  UNL     1      16.564  65.647  46.695  1.00  0.00    -0.087 C
HETATM   36  C7  UNL     1      15.287  65.752  47.592  1.00  0.00     0.043 C
HETATM   37  C8  UNL     1      16.214  65.383  45.299  1.00  0.00     0.043 C
ENDBRANCH  34  35
ENDBRANCH  26  34
ENDBRANCH  23  24
ENDBRANCH   1  23
TORSDOF 15
ENDMDL