MODEL 4
REMARK VINA RESULT: -7.286381101      1.152      1.385
REMARK  15 active torsions:
REMARK  status: ('A' for Active; 'I' for Inactive)
REMARK    1  A    between atoms: C2_2  and  C3_3
REMARK    2  A    between atoms: C3_3  and  C4_4
REMARK    3  A    between atoms: C4_4  and  C5_5
REMARK    4  A    between atoms: C5_5  and  C6_6
REMARK    5  A    between atoms: C6_6  and  C7_7
REMARK    6  A    between atoms: C7_7  and  O2_9
REMARK    7  A    between atoms: O2_9  and  C8_10
REMARK    8  A    between atoms: C9_12  and  C10_13
REMARK    9  A    between atoms: C10_13  and  O4_14
REMARK   10  A    between atoms: C14_19  and  O5_20
REMARK   11  A    between atoms: C15_22  and  O6_23
REMARK   12  A    between atoms: O6_23  and  C16_24
REMARK   13  A    between atoms: C19_28  and  O8_29
REMARK   14  A    between atoms: C20_31  and  O9_32
REMARK   15  A    between atoms: C21_34  and  O10_35
ROOT
HETATM    1  C8  UNL     1      20.852  65.283  46.236  1.00  0.00     0.301 C
HETATM    2  O3  UNL     1      20.388  65.239  47.493  1.00  0.00    -0.350 OA
HETATM    3  C9  UNL     1      21.115  64.813  48.528  1.00  0.00     0.158 C
HETATM    4  C11 UNL     1      22.586  64.810  48.340  1.00  0.00     0.009 C
HETATM    5  C12 UNL     1      23.061  66.259  48.342  1.00  0.00     0.020 C
HETATM    6  C13 UNL     1      23.332  64.119  49.458  1.00  0.00     0.020 C
HETATM    7  C14 UNL     1      22.927  64.126  47.065  1.00  0.00     0.162 C
HETATM    8  C15 UNL     1      22.108  64.588  45.895  1.00  0.00     0.209 C
ENDROOT
BRANCH   8   9
HETATM    9  O6  UNL     1      21.927  63.449  45.080  1.00  0.00    -0.346 OA
BRANCH   9  10
HETATM   10  C16 UNL     1      22.643  63.502  43.909  1.00  0.00     0.292 C
HETATM   11  O7  UNL     1      22.612  64.800  43.462  1.00  0.00    -0.351 OA
HETATM   12  C17 UNL     1      23.263  65.004  42.258  1.00  0.00     0.152 C
HETATM   13  C18 UNL     1      23.132  66.490  41.932  1.00  0.00     0.042 C
HETATM   14  C19 UNL     1      22.493  64.267  41.180  1.00  0.00     0.178 C
HETATM   15  C20 UNL     1      22.645  62.781  41.523  1.00  0.00     0.183 C
HETATM   16  C21 UNL     1      21.979  62.615  42.874  1.00  0.00     0.204 C
BRANCH  14  17
HETATM   17  O8  UNL     1      22.953  64.548  39.909  1.00  0.00    -0.390 OA
ATOM     18  H8  UNL     1      22.878  63.807  39.319  1.00  0.00     0.210 HD
ENDBRANCH  14  17
BRANCH  15  19
HETATM   19  O9  UNL     1      24.007  62.470  41.587  1.00  0.00    -0.390 OA
ATOM     20  H9  UNL     1      24.316  62.624  42.471  1.00  0.00     0.210 HD
ENDBRANCH  15  19
BRANCH  16  21
HETATM   21  O10 UNL     1      20.668  63.119  42.722  1.00  0.00    -0.388 OA
ATOM     22  H10 UNL     1      20.769  64.042  42.525  1.00  0.00     0.210 HD
ENDBRANCH  16  21
ENDBRANCH   9  10
ENDBRANCH   8   9
BRANCH   1  23
HETATM   23  O2  UNL     1      19.830  64.791  45.377  1.00  0.00    -0.287 OA
BRANCH  23  24
HETATM   24  C7  UNL     1      19.158  65.610  44.467  1.00  0.00     0.261 C
HETATM   25  O1  UNL     1      19.523  65.677  43.275  1.00  0.00    -0.265 OA
BRANCH  24  26
HETATM   26  C6  UNL     1      18.003  66.403  44.931  1.00  0.00     0.111 C
BRANCH  26  27
HETATM   27  C5  UNL     1      16.710  65.797  44.485  1.00  0.00     0.010 C
BRANCH  27  28
HETATM   28  C4  UNL     1      15.965  65.232  45.658  1.00  0.00     0.000 C
BRANCH  28  29
HETATM   29  C3  UNL     1      16.612  65.653  46.933  1.00  0.00    -0.000 C
BRANCH  29  30
HETATM   30  C2  UNL     1      15.502  65.959  47.940  1.00  0.00    -0.005 C
HETATM   31  C1  UNL     1      14.146  65.696  47.314  1.00  0.00     0.005 C
ENDBRANCH  29  30
ENDBRANCH  28  29
ENDBRANCH  27  28
ENDBRANCH  26  27
ENDBRANCH  24  26
ENDBRANCH  23  24
ENDBRANCH   1  23
BRANCH   7  32
HETATM   32  O5  UNL     1      24.305  64.337  46.844  1.00  0.00    -0.392 OA
ATOM     33  H5  UNL     1      24.482  64.079  45.946  1.00  0.00     0.210 HD
ENDBRANCH   7  32
BRANCH   3  34
HETATM   34  C10 UNL     1      20.567  63.492  49.030  1.00  0.00     0.197 C
BRANCH  34  35
HETATM   35  O4  UNL     1      20.005  63.588  50.301  1.00  0.00    -0.398 OA
ATOM     36  H4  UNL     1      19.185  63.114  50.379  1.00  0.00     0.209 HD
ENDBRANCH  34  35
ENDBRANCH   3  34
TORSDOF 15
ENDMDL