MODEL 3
REMARK VINA RESULT: -8.542728514      2.324      3.396
REMARK  14 active torsions:
REMARK  status: ('A' for Active; 'I' for Inactive)
REMARK    1  A    between atoms: C2_2  and  C3_3
REMARK    2  A    between atoms: C3_3  and  C4_4
REMARK    3  A    between atoms: C5_5  and  C6_6
REMARK    4  A    between atoms: C10_10  and  O1_11
REMARK    5  A    between atoms: O1_11  and  C11_12
REMARK    6  A    between atoms: C14_16  and  O3_17
REMARK    7  A    between atoms: C15_19  and  O4_20
REMARK    8  A    between atoms: O4_20  and  C16_21
REMARK    9  A    between atoms: C17_23  and  C18_24
REMARK   10  A    between atoms: C18_24  and  O6_25
REMARK   11  A    between atoms: C19_27  and  O7_28
REMARK   12  A    between atoms: C20_30  and  C21_31
REMARK   13  A    between atoms: C21_31  and  O8_32
REMARK   14  A    between atoms: C22_35  and  O10_36
ROOT
HETATM    1  C11 UNL     1      20.237  65.835  47.639  1.00  0.00     0.291 C
HETATM    2  O2  UNL     1      20.577  64.493  47.553  1.00  0.00    -0.351 OA
HETATM    3  C12 UNL     1      21.281  64.031  48.646  1.00  0.00     0.152 C
HETATM    4  C13 UNL     1      20.285  63.725  49.748  1.00  0.00     0.042 C
HETATM    5  C14 UNL     1      22.329  64.971  49.148  1.00  0.00     0.178 C
HETATM    6  C15 UNL     1      22.691  66.063  48.181  1.00  0.00     0.191 C
HETATM    7  C22 UNL     1      21.531  66.617  47.428  1.00  0.00     0.205 C
ENDROOT
BRANCH   6   8
HETATM    8  O4  UNL     1      23.677  65.682  47.288  1.00  0.00    -0.328 OA
BRANCH   8   9
HETATM    9  C16 UNL     1      24.739  64.997  47.864  1.00  0.00     0.414 C
HETATM   10  O5  UNL     1      24.705  63.712  47.388  1.00  0.00    -0.329 OA
HETATM   11  C17 UNL     1      25.741  63.342  46.565  1.00  0.00     0.181 C
HETATM   12  C19 UNL     1      27.095  63.735  47.118  1.00  0.00     0.180 C
HETATM   13  C20 UNL     1      26.956  64.823  48.171  1.00  0.00     0.181 C
HETATM   14  O9  UNL     1      25.935  65.653  47.767  1.00  0.00    -0.329 OA
BRANCH  11  15
HETATM   15  C18 UNL     1      25.534  63.895  45.169  1.00  0.00     0.199 C
BRANCH  15  16
HETATM   16  O6  UNL     1      26.661  64.640  44.831  1.00  0.00    -0.398 OA
ATOM     17  H6  UNL     1      26.371  65.501  44.556  1.00  0.00     0.209 HD
ENDBRANCH  15  16
ENDBRANCH  11  15
BRANCH  12  18
HETATM   18  O7  UNL     1      27.794  62.632  47.594  1.00  0.00    -0.390 OA
ATOM     19  H7  UNL     1      28.732  62.738  47.486  1.00  0.00     0.210 HD
ENDBRANCH  12  18
BRANCH  13  20
HETATM   20  C21 UNL     1      28.242  65.610  48.275  1.00  0.00     0.199 C
BRANCH  20  21
HETATM   21  O8  UNL     1      28.832  65.647  47.009  1.00  0.00    -0.398 OA
ATOM     22  H8  UNL     1      28.586  66.465  46.592  1.00  0.00     0.209 HD
ENDBRANCH  20  21
ENDBRANCH  13  20
ENDBRANCH   8   9
ENDBRANCH   6   8
BRANCH   5  23
HETATM   23  O3  UNL     1      21.940  65.499  50.379  1.00  0.00    -0.390 OA
ATOM     24  H3  UNL     1      22.487  65.142  51.069  1.00  0.00     0.210 HD
ENDBRANCH   5  23
BRANCH   7  25
HETATM   25  O10 UNL     1      21.788  66.579  46.057  1.00  0.00    -0.388 OA
ATOM     26  H10 UNL     1      22.705  66.806  45.953  1.00  0.00     0.210 HD
ENDBRANCH   7  25
BRANCH   1  27
HETATM   27  O1  UNL     1      19.441  66.133  46.545  1.00  0.00    -0.353 OA
BRANCH  27  28
HETATM   28  C10 UNL     1      18.207  65.530  46.517  1.00  0.00     0.132 C
HETATM   29  C6  UNL     1      17.432  65.730  45.277  1.00  0.00     0.037 C
HETATM   30  C7  UNL     1      15.961  65.765  45.708  1.00  0.00     0.011 C
HETATM   31  C8  UNL     1      15.972  65.409  47.179  1.00  0.00     0.003 C
HETATM   32  C9  UNL     1      17.287  66.028  47.611  1.00  0.00     0.033 C
BRANCH  29  33
HETATM   33  C5  UNL     1      17.536  64.691  44.249  1.00  0.00    -0.024 C
HETATM   34  C4  UNL     1      16.629  64.261  43.420  1.00  0.00    -0.030 C
BRANCH  34  35
HETATM   35  C3  UNL     1      16.883  63.188  42.419  1.00  0.00     0.026 C
BRANCH  35  36
HETATM   36  C2  UNL     1      18.119  63.463  41.599  1.00  0.00    -0.001 C
HETATM   37  C1  UNL     1      17.792  63.030  40.167  1.00  0.00     0.005 C
ENDBRANCH  35  36
ENDBRANCH  34  35
ENDBRANCH  29  33
ENDBRANCH  27  28
ENDBRANCH   1  27
TORSDOF 14
ENDMDL