MODEL 4
REMARK VINA RESULT: -8.067679805      1.097      1.297
REMARK  14 active torsions:
REMARK  status: ('A' for Active; 'I' for Inactive)
REMARK    1  A    between atoms: C2_2  and  C3_3
REMARK    2  A    between atoms: C5_5  and  O1_6
REMARK    3  A    between atoms: C10_14  and  O4_15
REMARK    4  A    between atoms: O4_15  and  C11_16
REMARK    5  A    between atoms: C11_16  and  C12_17
REMARK    6  A    between atoms: C12_17  and  C13_18
REMARK    7  A    between atoms: C13_18  and  O5_19
REMARK    8  A    between atoms: O5_19  and  C14_20
REMARK    9  A    between atoms: C14_20  and  O6_21
REMARK   10  A    between atoms: O6_21  and  C15_22
REMARK   11  A    between atoms: C15_22  and  C16_23
REMARK   12  A    between atoms: C20_29  and  O7_30
REMARK   13  A    between atoms: C21_32  and  O8_33
REMARK   14  A    between atoms: C22_35  and  O9_36
ROOT
HETATM    1  C3  UNL     1      21.135  67.424  47.170  1.00  0.00     0.081 C
HETATM    2  C4  UNL     1      22.434  67.537  46.534  1.00  0.00     0.065 C
HETATM    3  C5  UNL     1      23.088  66.472  45.758  1.00  0.00     0.088 C
HETATM    4  C6  UNL     1      22.255  65.750  44.746  1.00  0.00     0.044 C
HETATM    5  C7  UNL     1      21.996  64.306  45.089  1.00  0.00     0.051 C
HETATM    6  C8  UNL     1      22.173  63.953  46.503  1.00  0.00     0.169 A
HETATM    7  O2  UNL     1      21.538  62.713  46.806  1.00  0.00    -0.222 OA
HETATM    8  O3  UNL     1      20.379  63.243  47.216  1.00  0.00    -0.227 OA
HETATM    9  C9  UNL     1      20.855  64.222  48.065  1.00  0.00     0.249 C
HETATM   10  C10 UNL     1      19.967  65.467  48.039  1.00  0.00     0.252 C
HETATM   11  N1  UNL     1      20.313  66.293  46.929  1.00  0.00    -0.390 N
ATOM     12  H1  UNL     1      19.980  66.078  45.990  1.00  0.00     0.156 HD
HETATM   13  C20 UNL     1      22.173  64.669  47.705  1.00  0.00     0.165 A
HETATM   14  C21 UNL     1      23.349  64.262  47.011  1.00  0.00     0.160 A
HETATM   15  C22 UNL     1      24.013  65.556  46.525  1.00  0.00     0.193 C
ENDROOT
BRANCH  10  16
HETATM   16  O4  UNL     1      18.668  65.025  47.863  1.00  0.00    -0.364 OA
BRANCH  16  17
HETATM   17  C11 UNL     1      17.731  66.045  47.965  1.00  0.00     0.172 C
BRANCH  17  18
HETATM   18  C12 UNL     1      16.996  66.083  46.617  1.00  0.00     0.052 C
BRANCH  18  19
HETATM   19  C13 UNL     1      15.679  65.352  46.753  1.00  0.00     0.172 C
BRANCH  19  20
HETATM   20  O5  UNL     1      15.311  64.891  45.498  1.00  0.00    -0.367 OA
BRANCH  20  21
HETATM   21  C14 UNL     1      16.140  65.386  44.493  1.00  0.00     0.337 C
BRANCH  21  22
HETATM   22  O6  UNL     1      15.931  64.619  43.353  1.00  0.00    -0.363 OA
BRANCH  22  23
HETATM   23  C15 UNL     1      16.791  63.536  43.281  1.00  0.00     0.198 C
BRANCH  23  24
HETATM   24  C16 UNL     1      16.925  63.169  41.847  1.00  0.00     0.001 C
HETATM   25  C17 UNL     1      18.045  63.417  41.184  1.00  0.00    -0.089 C
HETATM   26  C18 UNL     1      18.174  63.049  39.752  1.00  0.00     0.042 C
HETATM   27  C19 UNL     1      19.177  64.072  41.884  1.00  0.00     0.042 C
ENDBRANCH  23  24
ENDBRANCH  22  23
ENDBRANCH  21  22
ENDBRANCH  20  21
ENDBRANCH  19  20
ENDBRANCH  18  19
ENDBRANCH  17  18
ENDBRANCH  16  17
ENDBRANCH  10  16
BRANCH  13  28
HETATM   28  O7  UNL     1      22.800  65.127  48.805  1.00  0.00    -0.380 OA
ATOM     29  H7  UNL     1      23.444  65.031  49.496  1.00  0.00     0.211 HD
ENDBRANCH  13  28
BRANCH   1  30
HETATM   30  C2  UNL     1      20.249  68.653  46.944  1.00  0.00     0.020 C
HETATM   31  C1  UNL     1      20.414  69.312  45.632  1.00  0.00     0.007 C
ENDBRANCH   1  30
BRANCH  14  32
HETATM   32  O8  UNL     1      24.280  63.306  47.424  1.00  0.00    -0.380 OA
ATOM     33  H8  UNL     1      24.084  62.631  48.063  1.00  0.00     0.211 HD
ENDBRANCH  14  32
BRANCH  15  34
HETATM   34  O9  UNL     1      24.520  66.249  47.602  1.00  0.00    -0.389 OA
ATOM     35  H9  UNL     1      25.462  66.127  47.622  1.00  0.00     0.210 HD
ENDBRANCH  15  34
BRANCH   3  36
HETATM   36  O1  UNL     1      24.053  67.182  44.957  1.00  0.00    -0.387 OA
ATOM     37  H1  UNL     1      24.769  67.340  45.560  1.00  0.00     0.210 HD
ENDBRANCH   3  36
TORSDOF 14
ENDMDL