MODEL 2
REMARK VINA RESULT: -8.287216149      1.273      1.525
REMARK  13 active torsions:
REMARK  status: ('A' for Active; 'I' for Inactive)
REMARK    1  A    between atoms: C3_3  and  C5_5
REMARK    2  A    between atoms: C5_5  and  C6_6
REMARK    3  A    between atoms: C5_5  and  C8_10
REMARK    4  A    between atoms: C6_6  and  S1_7
REMARK    5  A    between atoms: S1_7  and  C7_8
REMARK    6  A    between atoms: C8_10  and  O2_11
REMARK    7  A    between atoms: C8_10  and  N1_13
REMARK    8  A    between atoms: N1_13  and  C9_15
REMARK    9  A    between atoms: C11_17  and  N2_18
REMARK   10  A    between atoms: C13_24  and  O4_25
REMARK   11  A    between atoms: O4_25  and  C14_26
REMARK   12  A    between atoms: C20_33  and  O6_34
REMARK   13  A    between atoms: C21_36  and  O7_37
ROOT
HETATM    1  C9  UNL     1      22.233  65.490  48.263  1.00  0.00     0.018 C
HETATM    2  C10 UNL     1      22.876  65.790  46.963  1.00  0.00     0.090 C
HETATM    3  C11 UNL     1      23.827  64.709  46.462  1.00  0.00     0.220 C
HETATM    4  C12 UNL     1      25.159  64.676  47.089  1.00  0.00     0.187 C
HETATM    5  O3  UNL     1      25.547  63.358  47.302  1.00  0.00    -0.348 OA
HETATM    6  C13 UNL     1      26.810  63.206  47.830  1.00  0.00     0.293 C
HETATM    7  C16 UNL     1      27.400  64.422  48.438  1.00  0.00     0.104 C
HETATM    8  C17 UNL     1      28.233  63.965  49.648  1.00  0.00     0.051 C
HETATM    9  C18 UNL     1      28.414  65.097  47.504  1.00  0.00     0.051 C
HETATM   10  O5  UNL     1      26.544  65.370  48.886  1.00  0.00    -0.365 OA
HETATM   11  C19 UNL     1      25.285  65.420  48.382  1.00  0.00     0.185 C
HETATM   12  C20 UNL     1      24.311  64.938  49.428  1.00  0.00     0.184 C
HETATM   13  C21 UNL     1      23.122  65.868  49.462  1.00  0.00     0.194 C
ENDROOT
BRANCH   1  14
HETATM   14  N1  UNL     1      20.891  65.834  48.482  1.00  0.00    -0.368 N
ATOM     15  H1  UNL     1      20.670  66.395  49.305  1.00  0.00     0.161 HD
BRANCH  14  16
HETATM   16  C8  UNL     1      19.840  65.458  47.644  1.00  0.00     0.226 C
BRANCH  16  17
HETATM   17  C5  UNL     1      18.810  66.456  47.246  1.00  0.00     0.072 C
BRANCH  17  18
HETATM   18  C3  UNL     1      19.163  67.421  46.215  1.00  0.00    -0.079 C
HETATM   19  C2  UNL     1      20.063  68.361  46.333  1.00  0.00    -0.028 C
HETATM   20  C1  UNL     1      20.355  69.308  45.228  1.00  0.00     0.036 C
HETATM   21  C4  UNL     1      18.417  67.320  44.912  1.00  0.00     0.043 C
ENDBRANCH  17  18
BRANCH  17  22
HETATM   22  C6  UNL     1      17.620  65.649  46.698  1.00  0.00     0.095 C
BRANCH  22  23
HETATM   23  S1  UNL     1      16.128  66.007  47.670  1.00  0.00    -0.101 SA
BRANCH  23  24
HETATM   24  C7  UNL     1      14.684  65.585  46.733  1.00  0.00     0.304 C
HETATM   25  O1  UNL     1      14.389  64.434  46.528  1.00  0.00    -0.295 OA
ENDBRANCH  23  24
ENDBRANCH  22  23
ENDBRANCH  17  22
ENDBRANCH  16  17
BRANCH  16  26
HETATM   26  O2  UNL     1      19.064  64.418  48.261  1.00  0.00    -0.376 OA
ATOM     27  H2  UNL     1      19.620  63.652  48.169  1.00  0.00     0.212 HD
ENDBRANCH  16  26
ENDBRANCH  14  16
ENDBRANCH   1  14
BRANCH  13  28
HETATM   28  O7  UNL     1      22.373  65.689  50.628  1.00  0.00    -0.387 OA
ATOM     29  H7  UNL     1      22.128  66.547  50.954  1.00  0.00     0.210 HD
ENDBRANCH  13  28
BRANCH   3  30
HETATM   30  N2  UNL     1      23.122  63.417  46.480  1.00  0.00    -0.072 N
ATOM     31  H23 UNL     1      23.313  62.879  47.326  1.00  0.00     0.274 HD
ATOM     32  H22 UNL     1      22.116  63.523  46.605  1.00  0.00     0.274 HD
ATOM     33  H21 UNL     1      23.359  62.905  45.631  1.00  0.00     0.274 HD
ENDBRANCH   3  30
BRANCH  12  34
HETATM   34  O6  UNL     1      23.989  63.609  49.352  1.00  0.00    -0.390 OA
ATOM     35  H6  UNL     1      23.199  63.414  48.861  1.00  0.00     0.210 HD
ENDBRANCH  12  34
BRANCH   6  36
HETATM   36  O4  UNL     1      27.717  62.706  46.897  1.00  0.00    -0.359 OA
BRANCH  36  37
HETATM   37  C14 UNL     1      27.076  62.086  45.829  1.00  0.00     0.166 C
HETATM   38  C15 UNL     1      27.426  62.693  44.510  1.00  0.00     0.033 C
ENDBRANCH  36  37
ENDBRANCH   6  36
TORSDOF 13
ENDMDL