MODEL 3
REMARK VINA RESULT: -7.562010264      2.228      2.802
REMARK  15 active torsions:
REMARK  status: ('A' for Active; 'I' for Inactive)
REMARK    1  A    between atoms: C2_2  and  C3_3
REMARK    2  A    between atoms: C3_3  and  C4_4
REMARK    3  A    between atoms: C4_4  and  C5_5
REMARK    4  A    between atoms: C5_5  and  C6_6
REMARK    5  A    between atoms: C7_7  and  C8_8
REMARK    6  A    between atoms: C8_8  and  C9_9
REMARK    7  A    between atoms: C10_11  and  C11_12
REMARK    8  A    between atoms: C11_12  and  O2_13
REMARK    9  A    between atoms: O2_13  and  C12_14
REMARK   10  A    between atoms: C13_17  and  N1_18
REMARK   11  A    between atoms: C18_23  and  O5_24
REMARK   12  A    between atoms: C19_26  and  O6_27
REMARK   13  A    between atoms: C20_29  and  O7_30
REMARK   14  A    between atoms: C21_32  and  O8_33
REMARK   15  A    between atoms: C22_35  and  O9_36
ROOT
HETATM    1  C9  UNL     1      19.702  64.725  47.623  1.00  0.00     0.157 C
HETATM    2  O1  UNL     1      20.105  64.096  46.447  1.00  0.00    -0.373 OA
HETATM    3  C10 UNL     1      21.164  63.237  46.736  1.00  0.00     0.177 C
HETATM    4  C20 UNL     1      22.239  63.963  47.552  1.00  0.00     0.180 C
HETATM    5  C21 UNL     1      22.063  65.462  47.434  1.00  0.00     0.180 C
HETATM    6  C22 UNL     1      20.707  65.778  48.074  1.00  0.00     0.178 C
ENDROOT
BRANCH   3   7
HETATM    7  C11 UNL     1      21.822  62.831  45.416  1.00  0.00     0.205 C
BRANCH   7   8
HETATM    8  O2  UNL     1      20.870  63.037  44.419  1.00  0.00    -0.353 OA
BRANCH   8   9
HETATM    9  C12 UNL     1      21.384  63.636  43.297  1.00  0.00     0.328 C
HETATM   10  O3  UNL     1      22.247  64.707  43.595  1.00  0.00    -0.203 OA
HETATM   11  O4  UNL     1      22.610  65.189  42.402  1.00  0.00    -0.209 OA
HETATM   12  C13 UNL     1      23.740  64.449  42.030  1.00  0.00     0.296 C
HETATM   13  C18 UNL     1      23.404  62.993  41.949  1.00  0.00     0.204 C
HETATM   14  C19 UNL     1      22.010  62.656  42.364  1.00  0.00     0.209 C
BRANCH  12  15
HETATM   15  N1  UNL     1      24.179  64.924  40.747  1.00  0.00    -0.335 N
HETATM   16  C14 UNL     1      23.397  65.515  39.843  1.00  0.00     0.093 A
HETATM   17  C15 UNL     1      24.124  65.845  38.731  1.00  0.00     0.019 A
HETATM   18  C16 UNL     1      25.429  65.421  38.989  1.00  0.00     0.019 A
HETATM   19  C17 UNL     1      25.412  64.852  40.262  1.00  0.00     0.093 A
ENDBRANCH  12  15
BRANCH  13  20
HETATM   20  O5  UNL     1      23.578  62.537  40.637  1.00  0.00    -0.388 OA
ATOM     21  H5  UNL     1      23.104  61.723  40.513  1.00  0.00     0.210 HD
ENDBRANCH  13  20
BRANCH  14  22
HETATM   22  O6  UNL     1      21.179  62.433  41.242  1.00  0.00    -0.388 OA
ATOM     23  H6  UNL     1      21.518  62.885  40.478  1.00  0.00     0.210 HD
ENDBRANCH  14  22
ENDBRANCH   8   9
ENDBRANCH   7   8
ENDBRANCH   3   7
BRANCH   4  24
HETATM   24  O7  UNL     1      22.012  63.631  48.889  1.00  0.00    -0.390 OA
ATOM     25  H7  UNL     1      22.032  64.447  49.376  1.00  0.00     0.210 HD
ENDBRANCH   4  24
BRANCH   1  26
HETATM   26  C8  UNL     1      18.415  65.461  47.324  1.00  0.00     0.061 C
BRANCH  26  27
HETATM   27  C7  UNL     1      18.663  66.693  46.519  1.00  0.00    -0.028 C
HETATM   28  C6  UNL     1      18.320  66.802  45.253  1.00  0.00    -0.031 C
BRANCH  28  29
HETATM   29  C5  UNL     1      18.612  68.084  44.527  1.00  0.00     0.027 C
BRANCH  29  30
HETATM   30  C4  UNL     1      19.907  68.666  44.936  1.00  0.00     0.004 C
BRANCH  30  31
HETATM   31  C3  UNL     1      20.209  69.981  44.332  1.00  0.00    -0.000 C
BRANCH  31  32
HETATM   32  C2  UNL     1      19.749  70.251  42.963  1.00  0.00    -0.005 C
HETATM   33  C1  UNL     1      20.743  70.546  41.905  1.00  0.00     0.005 C
ENDBRANCH  31  32
ENDBRANCH  30  31
ENDBRANCH  29  30
ENDBRANCH  28  29
ENDBRANCH  26  27
ENDBRANCH   1  26
BRANCH   5  34
HETATM   34  O8  UNL     1      22.075  65.908  46.130  1.00  0.00    -0.390 OA
ATOM     35  H8  UNL     1      22.808  66.481  45.938  1.00  0.00     0.210 HD
ENDBRANCH   5  34
BRANCH   6  36
HETATM   36  O9  UNL     1      20.921  65.690  49.461  1.00  0.00    -0.390 OA
ATOM     37  H9  UNL     1      21.851  65.682  49.652  1.00  0.00     0.210 HD
ENDBRANCH   6  36
TORSDOF 15
ENDMDL