MODEL 4
REMARK VINA RESULT: -7.708744766      1.573      3.012
REMARK  15 active torsions:
REMARK  status: ('A' for Active; 'I' for Inactive)
REMARK    1  A    between atoms: C4_4  and  C5_5
REMARK    2  A    between atoms: C5_5  and  C6_6
REMARK    3  A    between atoms: C6_6  and  C7_7
REMARK    4  A    between atoms: C7_7  and  O1_10
REMARK    5  A    between atoms: O1_10  and  C10_11
REMARK    6  A    between atoms: C10_11  and  C11_12
REMARK    7  A    between atoms: C11_12  and  C12_13
REMARK    8  A    between atoms: C11_12  and  C21_31
REMARK    9  A    between atoms: C16_19  and  O3_20
REMARK   10  A    between atoms: C18_22  and  O4_23
REMARK   11  A    between atoms: C19_25  and  O5_26
REMARK   12  A    between atoms: C20_28  and  O6_29
REMARK   13  A    between atoms: C21_31  and  O7_32
REMARK   14  A    between atoms: C21_31  and  C22_34
REMARK   15  A    between atoms: C22_34  and  O8_35
ROOT
HETATM    1  C1  UNL     1      20.266  70.721  42.473  1.00  0.00     0.017 C
HETATM    2  C2  UNL     1      20.042  69.997  43.426  1.00  0.00    -0.090 C
HETATM    3  C3  UNL     1      19.790  69.126  44.536  1.00  0.00     0.059 C
HETATM    4  C4  UNL     1      18.921  68.159  44.445  1.00  0.00    -0.018 C
ENDROOT
BRANCH   4   5
HETATM    5  C5  UNL     1      18.637  67.243  45.568  1.00  0.00     0.030 C
BRANCH   5   6
HETATM    6  C6  UNL     1      19.480  67.566  46.782  1.00  0.00     0.041 C
BRANCH   6   7
HETATM    7  C7  UNL     1      19.153  66.580  47.878  1.00  0.00     0.054 C
HETATM    8  C8  UNL     1      18.291  67.243  48.935  1.00  0.00     0.045 C
HETATM    9  C9  UNL     1      18.290  65.493  47.234  1.00  0.00     0.045 C
BRANCH   7  10
HETATM   10  O1  UNL     1      20.259  65.957  48.399  1.00  0.00    -0.380 OA
BRANCH  10  11
HETATM   11  C10 UNL     1      20.776  64.968  47.569  1.00  0.00     0.181 C
BRANCH  11  12
HETATM   12  C11 UNL     1      21.864  65.553  46.742  1.00  0.00     0.080 C
BRANCH  12  13
HETATM   13  C12 UNL     1      21.819  65.002  45.351  1.00  0.00    -0.005 A
HETATM   14  C13 UNL     1      22.759  65.136  44.362  1.00  0.00     0.028 A
HETATM   15  C14 UNL     1      22.510  64.572  43.163  1.00  0.00     0.015 A
HETATM   16  C15 UNL     1      21.318  63.900  43.033  1.00  0.00     0.122 A
HETATM   17  C20 UNL     1      23.472  64.649  41.980  1.00  0.00     0.185 C
HETATM   18  S1  UNL     1      20.606  64.085  44.574  1.00  0.00    -0.069 SA
HETATM   19  O2  UNL     1      20.765  63.211  41.927  1.00  0.00    -0.310 OA
HETATM   20  C16 UNL     1      21.507  62.825  40.775  1.00  0.00     0.297 C
HETATM   21  C18 UNL     1      22.872  62.327  41.154  1.00  0.00     0.205 C
HETATM   22  C19 UNL     1      23.883  63.315  41.514  1.00  0.00     0.185 C
BRANCH  20  23
HETATM   23  O3  UNL     1      21.512  63.790  39.803  1.00  0.00    -0.363 OA
HETATM   24  C17 UNL     1      20.241  63.995  39.275  1.00  0.00     0.204 C
ENDBRANCH  20  23
BRANCH  21  25
HETATM   25  O4  UNL     1      23.334  61.561  40.070  1.00  0.00    -0.388 OA
ATOM     26  H4  UNL     1      22.644  60.942  39.861  1.00  0.00     0.210 HD
ENDBRANCH  21  25
BRANCH  22  27
HETATM   27  O5  UNL     1      24.719  62.753  42.511  1.00  0.00    -0.390 OA
ATOM     28  H5  UNL     1      24.200  62.618  43.294  1.00  0.00     0.210 HD
ENDBRANCH  22  27
BRANCH  17  29
HETATM   29  O6  UNL     1      24.607  65.370  42.345  1.00  0.00    -0.388 OA
ATOM     30  H6  UNL     1      25.068  65.659  41.565  1.00  0.00     0.210 HD
ENDBRANCH  17  29
ENDBRANCH  12  13
BRANCH  12  31
HETATM   31  C21 UNL     1      23.227  65.538  47.363  1.00  0.00     0.152 C
BRANCH  31  32
HETATM   32  O7  UNL     1      23.190  66.570  48.342  1.00  0.00    -0.393 OA
ATOM     33  H7  UNL     1      23.989  66.457  48.843  1.00  0.00     0.210 HD
ENDBRANCH  31  32
BRANCH  31  34
HETATM   34  C22 UNL     1      23.612  64.298  48.083  1.00  0.00     0.196 C
BRANCH  34  35
HETATM   35  O8  UNL     1      24.325  63.365  47.394  1.00  0.00    -0.398 OA
ATOM     36  H8  UNL     1      24.369  63.455  46.449  1.00  0.00     0.209 HD
ENDBRANCH  34  35
ENDBRANCH  31  34
ENDBRANCH  12  31
ENDBRANCH  11  12
ENDBRANCH  10  11
ENDBRANCH   7  10
ENDBRANCH   6   7
ENDBRANCH   5   6
ENDBRANCH   4   5
TORSDOF 15
ENDMDL