MODEL 5
REMARK VINA RESULT: -7.823720743      2.062      3.448
REMARK  14 active torsions:
REMARK  status: ('A' for Active; 'I' for Inactive)
REMARK    1  A    between atoms: C2_4  and  C3_5
REMARK    2  A    between atoms: C3_5  and  O1_7
REMARK    3  A    between atoms: C3_5  and  C5_9
REMARK    4  A    between atoms: C6_10  and  C7_11
REMARK    5  A    between atoms: C8_12  and  C9_13
REMARK    6  A    between atoms: C11_15  and  O2_16
REMARK    7  A    between atoms: C14_19  and  O3_20
REMARK    8  A    between atoms: O3_20  and  C15_21
REMARK    9  A    between atoms: C16_23  and  C17_24
REMARK   10  A    between atoms: C17_24  and  O5_25
REMARK   11  A    between atoms: C18_27  and  O6_28
REMARK   12  A    between atoms: C19_30  and  O7_31
REMARK   13  A    between atoms: C20_33  and  O8_34
REMARK   14  A    between atoms: C21_36  and  O9_37
ROOT
HETATM    1  C9  UNL     1      20.145  64.841  46.029  1.00  0.00     0.003 A
HETATM    2  C10 UNL     1      19.761  64.088  44.939  1.00  0.00     0.051 A
HETATM    3  C11 UNL     1      20.646  63.746  43.931  1.00  0.00     0.071 A
HETATM    4  C13 UNL     1      21.970  64.174  44.015  1.00  0.00     0.076 A
HETATM    5  C14 UNL     1      22.404  64.929  45.084  1.00  0.00     0.109 A
HETATM    6  C21 UNL     1      21.477  65.236  46.054  1.00  0.00     0.112 A
ENDROOT
BRANCH   5   7
HETATM    7  O3  UNL     1      23.701  65.387  45.234  1.00  0.00    -0.315 OA
BRANCH   7   8
HETATM    8  C15 UNL     1      24.816  64.690  45.646  1.00  0.00     0.298 C
HETATM    9  O4  UNL     1      25.672  64.338  44.586  1.00  0.00    -0.348 OA
HETATM   10  C16 UNL     1      26.592  63.412  45.005  1.00  0.00     0.179 C
HETATM   11  C18 UNL     1      27.351  63.743  46.237  1.00  0.00     0.180 C
HETATM   12  C19 UNL     1      26.605  64.515  47.274  1.00  0.00     0.183 C
HETATM   13  C20 UNL     1      25.707  65.508  46.587  1.00  0.00     0.205 C
BRANCH  10  14
HETATM   14  C17 UNL     1      27.611  63.259  43.868  1.00  0.00     0.198 C
BRANCH  14  15
HETATM   15  O5  UNL     1      27.629  64.444  43.135  1.00  0.00    -0.398 OA
ATOM     16  H5  UNL     1      28.289  64.364  42.457  1.00  0.00     0.209 HD
ENDBRANCH  14  15
ENDBRANCH  10  14
BRANCH  11  17
HETATM   17  O6  UNL     1      28.551  64.406  45.994  1.00  0.00    -0.390 OA
ATOM     18  H6  UNL     1      29.231  64.209  46.627  1.00  0.00     0.210 HD
ENDBRANCH  11  17
BRANCH  12  19
HETATM   19  O7  UNL     1      25.806  63.652  48.029  1.00  0.00    -0.390 OA
ATOM     20  H7  UNL     1      24.994  63.476  47.569  1.00  0.00     0.210 HD
ENDBRANCH  12  19
BRANCH  13  21
HETATM   21  O8  UNL     1      24.975  66.287  47.451  1.00  0.00    -0.388 OA
ATOM     22  H8  UNL     1      25.354  67.151  47.566  1.00  0.00     0.210 HD
ENDBRANCH  13  21
ENDBRANCH   7   8
ENDBRANCH   5   7
BRANCH   6  23
HETATM   23  O9  UNL     1      21.906  66.006  47.151  1.00  0.00    -0.352 OA
HETATM   24  C22 UNL     1      21.792  67.402  47.171  1.00  0.00     0.210 C
ENDBRANCH   6  23
BRANCH   3  25
HETATM   25  O2  UNL     1      20.212  62.989  42.857  1.00  0.00    -0.356 OA
HETATM   26  C12 UNL     1      19.650  63.630  41.746  1.00  0.00     0.210 C
ENDBRANCH   3  25
BRANCH   1  27
HETATM   27  C8  UNL     1      19.255  65.227  47.114  1.00  0.00     0.014 C
HETATM   28  C7  UNL     1      18.148  65.896  46.900  1.00  0.00     0.001 C
BRANCH  28  29
HETATM   29  C6  UNL     1      17.299  66.254  48.020  1.00  0.00    -0.001 C
HETATM   30  C5  UNL     1      16.008  66.041  48.045  1.00  0.00     0.016 C
BRANCH  30  31
HETATM   31  C3  UNL     1      15.165  65.432  47.018  1.00  0.00     0.103 C
HETATM   32  C4  UNL     1      13.847  66.123  46.911  1.00  0.00     0.056 C
BRANCH  31  33
HETATM   33  C2  UNL     1      15.872  65.482  45.705  1.00  0.00     0.096 C
HETATM   34  N1  UNL     1      15.704  64.597  44.810  1.00  0.00    -0.404 N
HETATM   35  C1  UNL     1      16.405  64.687  43.565  1.00  0.00     0.145 C
ATOM     36  H1  UNL     1      15.067  63.819  44.978  1.00  0.00     0.158 HD
ENDBRANCH  31  33
BRANCH  31  37
HETATM   37  O1  UNL     1      14.955  64.064  47.268  1.00  0.00    -0.381 OA
ATOM     38  H1  UNL     1      14.362  64.036  48.009  1.00  0.00     0.211 HD
ENDBRANCH  31  37
ENDBRANCH  30  31
ENDBRANCH  28  29
ENDBRANCH   1  27
TORSDOF 14
ENDMDL