MODEL 2
REMARK VINA RESULT: -7.759733301      2.485      3.422
REMARK  16 active torsions:
REMARK  status: ('A' for Active; 'I' for Inactive)
REMARK    1  A    between atoms: C2_2  and  O1_3
REMARK    2  A    between atoms: O1_3  and  C3_4
REMARK    3  A    between atoms: C5_7  and  O3_8
REMARK    4  A    between atoms: C6_10  and  O4_11
REMARK    5  A    between atoms: C7_13  and  O5_14
REMARK    6  A    between atoms: C10_18  and  C11_19
REMARK    7  A    between atoms: C13_22  and  O7_23
REMARK    8  A    between atoms: C14_25  and  C15_26
REMARK    9  A    between atoms: C15_26  and  C16_27
REMARK   10  A    between atoms: C16_27  and  C17_28
REMARK   11  A    between atoms: C17_28  and  C18_29
REMARK   12  A    between atoms: C18_29  and  N1_30
REMARK   13  A    between atoms: N1_30  and  N2_32
REMARK   14  A    between atoms: N2_32  and  N3_33
REMARK   15  A    between atoms: C19_37  and  C20_38
REMARK   16  A    between atoms: C20_38  and  O9_39
ROOT
HETATM    1  C1  UNL     1      23.959  67.691  45.112  1.00  0.00     0.049 C
HETATM    2  C2  UNL     1      23.784  66.225  44.801  1.00  0.00     0.088 C
HETATM    3  C8  UNL     1      22.238  66.095  44.604  1.00  0.00     0.043 C
HETATM    4  C9  UNL     1      21.497  66.224  45.884  1.00  0.00     0.037 C
HETATM    5  C10 UNL     1      22.084  65.331  46.980  1.00  0.00     0.151 C
HETATM    6  O8  UNL     1      23.392  65.723  47.113  1.00  0.00    -0.373 OA
HETATM    7  C19 UNL     1      24.165  65.391  45.977  1.00  0.00     0.179 C
ENDROOT
BRANCH   5   8
HETATM    8  C11 UNL     1      21.363  65.731  48.262  1.00  0.00     0.157 C
HETATM    9  O6  UNL     1      22.216  65.445  49.321  1.00  0.00    -0.380 OA
HETATM   10  C12 UNL     1      21.839  64.256  49.886  1.00  0.00     0.200 C
HETATM   11  C13 UNL     1      20.356  64.156  49.731  1.00  0.00     0.148 C
HETATM   12  C14 UNL     1      20.101  64.970  48.479  1.00  0.00     0.048 C
BRANCH  11  13
HETATM   13  O7  UNL     1      19.927  62.836  49.580  1.00  0.00    -0.393 OA
ATOM     14  H7  UNL     1      19.562  62.672  48.718  1.00  0.00     0.210 HD
ENDBRANCH  11  13
BRANCH  12  15
HETATM   15  C15 UNL     1      18.910  65.846  48.752  1.00  0.00     0.010 C
BRANCH  15  16
HETATM   16  C16 UNL     1      18.133  66.244  47.549  1.00  0.00     0.002 C
BRANCH  16  17
HETATM   17  C17 UNL     1      16.687  65.893  47.585  1.00  0.00     0.022 C
BRANCH  17  18
HETATM   18  C18 UNL     1      16.127  65.513  46.235  1.00  0.00     0.155 C
BRANCH  18  19
HETATM   19  N1  UNL     1      14.809  64.967  46.313  1.00  0.00    -0.253 N
ATOM     20  H1  UNL     1      14.350  64.726  45.434  1.00  0.00     0.196 HD
BRANCH  19  21
HETATM   21  N2  UNL     1      14.188  64.765  47.338  1.00  0.00    -0.249 NA
BRANCH  21  22
HETATM   22  N3  UNL     1      13.612  64.906  48.419  1.00  0.00    -0.261 N
ATOM     23  H32 UNL     1      13.902  63.996  48.779  1.00  0.00     0.193 HD
ATOM     24  H31 UNL     1      13.062  65.277  49.193  1.00  0.00     0.193 HD
ENDBRANCH  21  22
ENDBRANCH  19  21
ENDBRANCH  18  19
ENDBRANCH  17  18
ENDBRANCH  16  17
ENDBRANCH  15  16
ENDBRANCH  12  15
ENDBRANCH   5   8
BRANCH   7  25
HETATM   25  C20 UNL     1      25.579  65.518  46.422  1.00  0.00     0.199 C
BRANCH  25  26
HETATM   26  O9  UNL     1      26.485  64.868  45.597  1.00  0.00    -0.398 OA
ATOM     27  H9  UNL     1      26.308  63.941  45.490  1.00  0.00     0.209 HD
ENDBRANCH  25  26
ENDBRANCH   7  25
BRANCH   2  28
HETATM   28  O1  UNL     1      24.292  65.809  43.637  1.00  0.00    -0.345 OA
BRANCH  28  29
HETATM   29  C3  UNL     1      23.670  64.974  42.795  1.00  0.00     0.292 C
HETATM   30  O2  UNL     1      23.366  65.689  41.608  1.00  0.00    -0.356 OA
HETATM   31  C4  UNL     1      24.485  66.461  41.265  1.00  0.00     0.205 C
HETATM   32  C5  UNL     1      25.670  65.579  40.931  1.00  0.00     0.173 C
HETATM   33  C6  UNL     1      25.187  64.146  40.951  1.00  0.00     0.182 C
HETATM   34  C7  UNL     1      24.587  63.838  42.305  1.00  0.00     0.204 C
BRANCH  32  35
HETATM   35  O3  UNL     1      26.163  65.893  39.661  1.00  0.00    -0.391 OA
ATOM     36  H3  UNL     1      27.111  65.938  39.679  1.00  0.00     0.210 HD
ENDBRANCH  32  35
BRANCH  33  37
HETATM   37  O4  UNL     1      24.253  64.006  39.922  1.00  0.00    -0.390 OA
ATOM     38  H4  UNL     1      24.601  63.370  39.308  1.00  0.00     0.210 HD
ENDBRANCH  33  37
BRANCH  34  39
HETATM   39  O5  UNL     1      25.645  63.673  43.193  1.00  0.00    -0.388 OA
ATOM     40  H5  UNL     1      25.720  62.759  43.436  1.00  0.00     0.210 HD
ENDBRANCH  34  39
ENDBRANCH  28  29
ENDBRANCH   2  28
TORSDOF 16
ENDMDL