MODEL 2
REMARK VINA RESULT: -7.772505888      0.973      1.704
REMARK  16 active torsions:
REMARK  status: ('A' for Active; 'I' for Inactive)
REMARK    1  A    between atoms: O1_2  and  C2_3
REMARK    2  A    between atoms: C2_3  and  C3_5
REMARK    3  A    between atoms: C3_5  and  C4_6
REMARK    4  A    between atoms: C4_6  and  C5_7
REMARK    5  A    between atoms: C5_7  and  C6_8
REMARK    6  A    between atoms: C7_9  and  C8_10
REMARK    7  A    between atoms: C8_10  and  C9_11
REMARK    8  A    between atoms: C10_12  and  O3_13
REMARK    9  A    between atoms: C12_16  and  O4_17
REMARK   10  A    between atoms: C12_16  and  C13_19
REMARK   11  A    between atoms: C13_19  and  O6_21
REMARK   12  A    between atoms: O6_21  and  C14_22
REMARK   13  A    between atoms: C16_24  and  O7_25
REMARK   14  A    between atoms: C17_27  and  O8_28
REMARK   15  A    between atoms: C20_33  and  C21_34
REMARK   16  A    between atoms: C22_35  and  O10_36
ROOT
HETATM    1  C9  UNL     1      18.951  65.270  47.963  1.00  0.00     0.029 C
HETATM    2  C10 UNL     1      19.992  64.614  48.798  1.00  0.00     0.126 C
HETATM    3  C11 UNL     1      20.968  64.062  47.777  1.00  0.00     0.081 C
HETATM    4  C12 UNL     1      20.503  64.550  46.417  1.00  0.00     0.155 C
HETATM    5  C20 UNL     1      19.767  65.812  46.810  1.00  0.00     0.061 C
ENDROOT
BRANCH   4   6
HETATM    6  O4  UNL     1      19.634  63.613  45.883  1.00  0.00    -0.379 OA
ATOM      7  H4  UNL     1      18.942  64.070  45.420  1.00  0.00     0.211 HD
ENDBRANCH   4   6
BRANCH   4   8
HETATM    8  C13 UNL     1      21.620  64.778  45.497  1.00  0.00     0.296 C
HETATM    9  O5  UNL     1      22.755  65.023  45.976  1.00  0.00    -0.262 OA
BRANCH   8  10
HETATM   10  O6  UNL     1      21.521  64.744  44.122  1.00  0.00    -0.287 OA
BRANCH  10  11
HETATM   11  C14 UNL     1      22.436  64.130  43.262  1.00  0.00     0.272 C
HETATM   12  C15 UNL     1      21.780  63.328  42.158  1.00  0.00     0.095 C
HETATM   13  C16 UNL     1      22.848  62.341  41.676  1.00  0.00     0.154 C
HETATM   14  C17 UNL     1      24.082  63.097  41.305  1.00  0.00     0.175 C
HETATM   15  C18 UNL     1      24.414  64.263  42.169  1.00  0.00     0.151 C
HETATM   16  C19 UNL     1      25.414  63.863  43.239  1.00  0.00     0.042 C
HETATM   17  O9  UNL     1      23.348  64.965  42.678  1.00  0.00    -0.353 OA
BRANCH  13  18
HETATM   18  O7  UNL     1      22.372  61.631  40.560  1.00  0.00    -0.393 OA
ATOM     19  H7  UNL     1      22.487  60.698  40.699  1.00  0.00     0.210 HD
ENDBRANCH  13  18
BRANCH  14  20
HETATM   20  O8  UNL     1      24.080  63.466  39.957  1.00  0.00    -0.390 OA
ATOM     21  H8  UNL     1      24.549  64.280  39.813  1.00  0.00     0.210 HD
ENDBRANCH  14  20
ENDBRANCH  10  11
ENDBRANCH   8  10
ENDBRANCH   4   8
BRANCH   5  22
HETATM   22  C21 UNL     1      18.957  66.372  45.736  1.00  0.00     0.006 C
HETATM   23  C22 UNL     1      19.176  67.609  45.328  1.00  0.00     0.127 C
BRANCH  23  24
HETATM   24  O10 UNL     1      18.415  68.181  44.296  1.00  0.00    -0.373 OA
ATOM     25  H10 UNL     1      18.778  68.306  43.427  1.00  0.00     0.216 HD
ENDBRANCH  23  24
ENDBRANCH   5  22
BRANCH   2  26
HETATM   26  O3  UNL     1      20.722  65.477  49.611  1.00  0.00    -0.395 OA
ATOM     27  H3  UNL     1      21.663  65.451  49.479  1.00  0.00     0.210 HD
ENDBRANCH   2  26
BRANCH   1  28
HETATM   28  C8  UNL     1      18.093  66.283  48.640  1.00  0.00     0.035 C
BRANCH  28  29
HETATM   29  C7  UNL     1      16.649  66.168  48.316  1.00  0.00    -0.030 C
HETATM   30  C6  UNL     1      16.186  65.320  47.434  1.00  0.00    -0.031 C
BRANCH  30  31
HETATM   31  C5  UNL     1      14.823  65.074  46.993  1.00  0.00     0.027 C
BRANCH  31  32
HETATM   32  C4  UNL     1      14.573  64.719  45.584  1.00  0.00     0.013 C
BRANCH  32  33
HETATM   33  C3  UNL     1      15.514  65.237  44.560  1.00  0.00     0.111 C
BRANCH  33  34
HETATM   34  C2  UNL     1      16.194  64.147  43.806  1.00  0.00     0.258 C
HETATM   35  O2  UNL     1      17.223  63.607  44.318  1.00  0.00    -0.265 OA
BRANCH  34  36
HETATM   36  O1  UNL     1      15.781  63.694  42.595  1.00  0.00    -0.326 OA
HETATM   37  C1  UNL     1      16.560  63.023  41.634  1.00  0.00     0.213 C
ENDBRANCH  34  36
ENDBRANCH  33  34
ENDBRANCH  32  33
ENDBRANCH  31  32
ENDBRANCH  30  31
ENDBRANCH  28  29
ENDBRANCH   1  28
TORSDOF 16
ENDMDL