MODEL 4
REMARK VINA RESULT: -7.516965627      4.456      6.939
REMARK  14 active torsions:
REMARK  status: ('A' for Active; 'I' for Inactive)
REMARK    1  A    between atoms: C4_4  and  O1_5
REMARK    2  A    between atoms: C5_8  and  O3_9
REMARK    3  A    between atoms: C7_12  and  O4_13
REMARK    4  A    between atoms: O4_13  and  C8_14
REMARK    5  A    between atoms: C11_17  and  C12_18
REMARK    6  A    between atoms: C11_17  and  C15_26
REMARK    7  A    between atoms: C12_18  and  O5_19
REMARK    8  A    between atoms: O5_19  and  C13_20
REMARK    9  A    between atoms: C13_20  and  C14_21
REMARK   10  A    between atoms: C14_21  and  N1_22
REMARK   11  A    between atoms: C15_26  and  N2_27
REMARK   12  A    between atoms: C18_32  and  C19_33
REMARK   13  A    between atoms: C19_33  and  O8_34
REMARK   14  A    between atoms: C20_37  and  O10_38
ROOT
HETATM    1  C1  UNL     1      21.483  63.600  49.867  1.00  0.00     0.025 C
HETATM    2  C2  UNL     1      22.392  64.375  49.306  1.00  0.00     0.003 C
HETATM    3  C3  UNL     1      21.899  65.293  48.289  1.00  0.00     0.046 A
HETATM    4  C4  UNL     1      20.673  65.940  48.316  1.00  0.00     0.197 A
HETATM    5  O2  UNL     1      20.596  66.683  47.242  1.00  0.00    -0.263 OA
HETATM    6  C5  UNL     1      21.707  66.557  46.518  1.00  0.00     0.195 A
HETATM    7  C6  UNL     1      22.571  65.677  47.148  1.00  0.00     0.047 A
HETATM    8  C7  UNL     1      23.903  65.257  46.686  1.00  0.00     0.192 C
HETATM    9  C18 UNL     1      24.833  64.760  47.733  1.00  0.00     0.182 C
HETATM   10  O9  UNL     1      24.606  65.106  49.028  1.00  0.00    -0.347 OA
HETATM   11  C20 UNL     1      23.822  64.218  49.767  1.00  0.00     0.292 C
ENDROOT
BRANCH   8  12
HETATM   12  O4  UNL     1      23.700  64.163  45.805  1.00  0.00    -0.373 OA
BRANCH  12  13
HETATM   13  C8  UNL     1      24.342  64.289  44.607  1.00  0.00     0.122 C
HETATM   14  C9  UNL     1      24.463  62.940  43.880  1.00  0.00     0.033 C
HETATM   15  C10 UNL     1      24.562  63.188  42.368  1.00  0.00     0.016 C
HETATM   16  C11 UNL     1      23.185  63.430  41.870  1.00  0.00     0.003 C
HETATM   17  C16 UNL     1      22.457  64.213  42.978  1.00  0.00     0.016 C
HETATM   18  C17 UNL     1      23.428  65.117  43.691  1.00  0.00     0.033 C
BRANCH  16  19
HETATM   19  C12 UNL     1      23.250  64.386  40.690  1.00  0.00     0.179 C
BRANCH  19  20
HETATM   20  O5  UNL     1      24.218  64.018  39.799  1.00  0.00    -0.389 OA
BRANCH  20  21
HETATM   21  C13 UNL     1      24.945  65.019  39.217  1.00  0.00     0.194 C
BRANCH  21  22
HETATM   22  C14 UNL     1      24.178  65.799  38.183  1.00  0.00     0.255 C
BRANCH  22  23
HETATM   23  N1  UNL     1      24.567  65.341  36.837  1.00  0.00    -0.077 N
ATOM     24  H13 UNL     1      25.012  64.422  36.855  1.00  0.00     0.274 HD
ATOM     25  H12 UNL     1      23.759  65.099  36.263  1.00  0.00     0.274 HD
ATOM     26  H11 UNL     1      25.157  66.046  36.397  1.00  0.00     0.274 HD
ENDBRANCH  22  23
ENDBRANCH  21  22
ENDBRANCH  20  21
ENDBRANCH  19  20
ENDBRANCH  16  19
BRANCH  16  27
HETATM   27  C15 UNL     1      22.374  62.218  41.576  1.00  0.00     0.213 C
BRANCH  27  28
HETATM   28  N2  UNL     1      21.063  62.455  41.040  1.00  0.00    -0.155 N
HETATM   29  O6  UNL     1      20.111  62.828  41.735  1.00  0.00    -0.537 OA
HETATM   30  O7  UNL     1      20.846  62.254  39.701  1.00  0.00    -0.537 OA
ENDBRANCH  27  28
ENDBRANCH  16  27
ENDBRANCH  12  13
ENDBRANCH   8  12
BRANCH   9  31
HETATM   31  C19 UNL     1      26.257  65.251  47.412  1.00  0.00     0.199 C
BRANCH  31  32
HETATM   32  O8  UNL     1      26.845  65.580  48.633  1.00  0.00    -0.398 OA
ATOM     33  H8  UNL     1      26.965  66.523  48.628  1.00  0.00     0.209 HD
ENDBRANCH  31  32
ENDBRANCH   9  31
BRANCH   6  34
HETATM   34  O3  UNL     1      21.981  67.188  45.328  1.00  0.00    -0.340 OA
ATOM     35  H3  UNL     1      22.753  67.063  44.788  1.00  0.00     0.220 HD
ENDBRANCH   6  34
BRANCH   4  36
HETATM   36  O1  UNL     1      19.735  65.796  49.312  1.00  0.00    -0.340 OA
ATOM     37  H1  UNL     1      18.971  65.234  49.258  1.00  0.00     0.220 HD
ENDBRANCH   4  36
BRANCH  11  38
HETATM   38  O10 UNL     1      24.244  62.901  49.629  1.00  0.00    -0.367 OA
ATOM     39  H10 UNL     1      25.159  62.811  49.872  1.00  0.00     0.213 HD
ENDBRANCH  11  38
TORSDOF 14
ENDMDL