MODEL 3
REMARK VINA RESULT: -7.705931450      2.658      6.714
REMARK  14 active torsions:
REMARK  status: ('A' for Active; 'I' for Inactive)
REMARK    1  A    between atoms: C2_2  and  C3_3
REMARK    2  A    between atoms: C3_3  and  C4_4
REMARK    3  A    between atoms: C4_4  and  C5_5
REMARK    4  A    between atoms: C8_8  and  O1_9
REMARK    5  A    between atoms: C9_11  and  S1_12
REMARK    6  A    between atoms: S1_12  and  C10_13
REMARK    7  A    between atoms: C10_13  and  C11_14
REMARK    8  A    between atoms: C12_16  and  C13_17
REMARK    9  A    between atoms: C13_17  and  N1_18
REMARK   10  A    between atoms: C15_20  and  O3_21
REMARK   11  A    between atoms: C16_23  and  O4_24
REMARK   12  A    between atoms: C17_26  and  O5_27
REMARK   13  A    between atoms: C18_29  and  C19_30
REMARK   14  A    between atoms: C19_30  and  O6_31
ROOT
HETATM    1  C11 UNL     1      24.020  63.857  43.917  1.00  0.00     0.087 A
HETATM    2  O2  UNL     1      23.191  64.763  44.379  1.00  0.00    -0.294 OA
HETATM    3  C12 UNL     1      23.625  65.271  45.490  1.00  0.00     0.163 A
HETATM    4  N2  UNL     1      24.783  64.685  45.777  1.00  0.00    -0.337 N
ATOM      5  H2  UNL     1      25.364  64.879  46.593  1.00  0.00     0.168 HD
HETATM    6  C20 UNL     1      25.058  63.799  44.817  1.00  0.00     0.038 A
HETATM    7  C21 UNL     1      26.275  62.904  44.738  1.00  0.00     0.071 C
ENDROOT
BRANCH   3   8
HETATM    8  C13 UNL     1      22.974  66.306  46.299  1.00  0.00     0.143 C
BRANCH   8   9
HETATM    9  N1  UNL     1      21.719  66.009  46.842  1.00  0.00    -0.374 N
HETATM   10  C14 UNL     1      21.571  64.804  47.571  1.00  0.00     0.157 C
HETATM   11  C15 UNL     1      20.617  64.990  48.702  1.00  0.00     0.167 C
HETATM   12  C16 UNL     1      19.322  65.643  48.283  1.00  0.00     0.179 C
HETATM   13  C17 UNL     1      19.508  66.737  47.291  1.00  0.00     0.174 C
HETATM   14  C18 UNL     1      20.536  66.387  46.201  1.00  0.00     0.138 C
BRANCH  11  15
HETATM   15  O3  UNL     1      21.239  65.630  49.744  1.00  0.00    -0.391 OA
ATOM     16  H3  UNL     1      21.442  66.526  49.502  1.00  0.00     0.210 HD
ENDBRANCH  11  15
BRANCH  12  17
HETATM   17  O4  UNL     1      18.724  66.177  49.422  1.00  0.00    -0.390 OA
ATOM     18  H4  UNL     1      18.692  67.121  49.320  1.00  0.00     0.210 HD
ENDBRANCH  12  17
BRANCH  13  19
HETATM   19  O5  UNL     1      19.867  67.949  47.911  1.00  0.00    -0.391 OA
ATOM     20  H5  UNL     1      20.655  67.858  48.434  1.00  0.00     0.210 HD
ENDBRANCH  13  19
BRANCH  14  21
HETATM   21  C19 UNL     1      20.623  67.570  45.275  1.00  0.00     0.192 C
BRANCH  21  22
HETATM   22  O6  UNL     1      19.309  68.029  45.082  1.00  0.00    -0.399 OA
ATOM     23  H6  UNL     1      18.904  67.438  44.457  1.00  0.00     0.209 HD
ENDBRANCH  21  22
ENDBRANCH  14  21
ENDBRANCH   8   9
ENDBRANCH   3   8
BRANCH   1  24
HETATM   24  C10 UNL     1      23.915  63.037  42.688  1.00  0.00     0.143 C
BRANCH  24  25
HETATM   25  S1  UNL     1      22.756  63.681  41.490  1.00  0.00    -0.128 SA
BRANCH  25  26
HETATM   26  C9  UNL     1      21.237  62.708  41.391  1.00  0.00     0.212 C
HETATM   27  C8  UNL     1      20.207  63.350  40.490  1.00  0.00     0.157 C
HETATM   28  C7  UNL     1      19.857  64.681  41.066  1.00  0.00     0.037 C
HETATM   29  C6  UNL     1      20.015  64.776  42.543  1.00  0.00     0.034 C
HETATM   30  C5  UNL     1      20.128  63.503  43.277  1.00  0.00     0.123 C
HETATM   31  O7  UNL     1      20.669  62.446  42.592  1.00  0.00    -0.368 OA
BRANCH  27  32
HETATM   32  O1  UNL     1      19.094  62.536  40.447  1.00  0.00    -0.392 OA
ATOM     33  H1  UNL     1      19.142  61.871  41.125  1.00  0.00     0.210 HD
ENDBRANCH  27  32
BRANCH  30  34
HETATM   34  C4  UNL     1      18.849  63.031  43.932  1.00  0.00     0.032 C
BRANCH  34  35
HETATM   35  C3  UNL     1      17.727  63.994  43.893  1.00  0.00     0.002 C
BRANCH  35  36
HETATM   36  C2  UNL     1      16.534  63.509  43.095  1.00  0.00    -0.004 C
HETATM   37  C1  UNL     1      16.523  62.031  42.899  1.00  0.00     0.005 C
ENDBRANCH  35  36
ENDBRANCH  34  35
ENDBRANCH  30  34
ENDBRANCH  25  26
ENDBRANCH  24  25
ENDBRANCH   1  24
TORSDOF 14
ENDMDL