MODEL 4
REMARK VINA RESULT: -7.714835879      1.998      3.685
REMARK  14 active torsions:
REMARK  status: ('A' for Active; 'I' for Inactive)
REMARK    1  A    between atoms: C2_2  and  C3_3
REMARK    2  A    between atoms: C3_3  and  O1_4
REMARK    3  A    between atoms: C3_3  and  C20_35
REMARK    4  A    between atoms: O1_4  and  C4_5
REMARK    5  A    between atoms: C4_5  and  C5_7
REMARK    6  A    between atoms: C5_7  and  O3_8
REMARK    7  A    between atoms: O3_8  and  C6_9
REMARK    8  A    between atoms: C9_13  and  O5_14
REMARK    9  A    between atoms: C10_17  and  C11_18
REMARK   10  A    between atoms: C11_18  and  O7_19
REMARK   11  A    between atoms: C13_22  and  O8_23
REMARK   12  A    between atoms: C14_25  and  O9_26
REMARK   13  A    between atoms: C15_28  and  O10_29
REMARK   14  A    between atoms: C16_31  and  C17_32
ROOT
HETATM    1  C6  UNL     1      21.105  64.252  48.080  1.00  0.00     0.161 C
HETATM    2  C7  UNL     1      21.374  63.583  46.716  1.00  0.00     0.189 C
HETATM    3  O4  UNL     1      20.523  63.954  45.722  1.00  0.00    -0.369 OA
HETATM    4  C8  UNL     1      21.002  64.122  44.468  1.00  0.00     0.186 C
HETATM    5  C9  UNL     1      20.035  63.621  43.373  1.00  0.00     0.286 C
HETATM    6  O6  UNL     1      20.933  63.737  42.279  1.00  0.00    -0.351 OA
HETATM    7  C10 UNL     1      21.937  62.845  42.731  1.00  0.00     0.157 C
HETATM    8  C12 UNL     1      22.191  63.246  44.125  1.00  0.00     0.082 C
HETATM    9  C13 UNL     1      23.486  63.823  44.502  1.00  0.00     0.159 C
HETATM   10  C14 UNL     1      23.672  63.570  46.021  1.00  0.00     0.184 C
HETATM   11  C15 UNL     1      22.689  64.365  46.746  1.00  0.00     0.121 C
HETATM   12  C16 UNL     1      22.587  64.509  48.192  1.00  0.00     0.060 C
ENDROOT
BRANCH   1  13
HETATM   13  O3  UNL     1      20.256  65.323  47.970  1.00  0.00    -0.373 OA
BRANCH  13  14
HETATM   14  C5  UNL     1      19.272  65.421  48.921  1.00  0.00     0.279 C
BRANCH  14  15
HETATM   15  C4  UNL     1      17.939  65.806  48.439  1.00  0.00     0.283 C
HETATM   16  O2  UNL     1      17.446  66.902  48.774  1.00  0.00    -0.263 OA
BRANCH  15  17
HETATM   17  O1  UNL     1      17.191  64.968  47.601  1.00  0.00    -0.310 OA
BRANCH  17  18
HETATM   18  C3  UNL     1      16.283  65.477  46.655  1.00  0.00     0.157 C
BRANCH  18  19
HETATM   19  C2  UNL     1      14.993  64.784  46.834  1.00  0.00    -0.005 C
HETATM   20  C1  UNL     1      14.071  65.308  47.622  1.00  0.00     0.009 C
ENDBRANCH  18  19
BRANCH  18  21
HETATM   21  C20 UNL     1      16.835  65.295  45.257  1.00  0.00     0.011 C
HETATM   22  C21 UNL     1      17.672  66.457  44.822  1.00  0.00     0.012 C
HETATM   23  C22 UNL     1      15.721  65.109  44.256  1.00  0.00     0.012 C
ENDBRANCH  18  21
ENDBRANCH  17  18
ENDBRANCH  15  17
ENDBRANCH  14  15
ENDBRANCH  13  14
ENDBRANCH   1  13
BRANCH  12  24
HETATM   24  C17 UNL     1      23.388  63.778  49.168  1.00  0.00    -0.013 C
HETATM   25  C18 UNL     1      24.819  63.982  49.345  1.00  0.00     0.010 C
HETATM   26  C19 UNL     1      22.690  63.949  50.533  1.00  0.00     0.010 C
ENDBRANCH  12  24
BRANCH  11  27
HETATM   27  O10 UNL     1      22.558  65.628  46.112  1.00  0.00    -0.384 OA
ATOM     28  H10 UNL     1      23.401  66.057  46.012  1.00  0.00     0.210 HD
ENDBRANCH  11  27
BRANCH  10  29
HETATM   29  O9  UNL     1      23.530  62.180  46.085  1.00  0.00    -0.390 OA
ATOM     30  H9  UNL     1      22.751  62.098  46.622  1.00  0.00     0.210 HD
ENDBRANCH  10  29
BRANCH   5  31
HETATM   31  O5  UNL     1      19.661  62.318  43.597  1.00  0.00    -0.369 OA
ATOM     32  H5  UNL     1      18.771  62.160  43.305  1.00  0.00     0.212 HD
ENDBRANCH   5  31
BRANCH   9  33
HETATM   33  O8  UNL     1      23.769  65.096  44.145  1.00  0.00    -0.392 OA
ATOM     34  H8  UNL     1      24.188  65.671  44.776  1.00  0.00     0.210 HD
ENDBRANCH   9  33
BRANCH   7  35
HETATM   35  C11 UNL     1      23.082  62.731  41.807  1.00  0.00     0.196 C
BRANCH  35  36
HETATM   36  O7  UNL     1      23.007  61.772  40.829  1.00  0.00    -0.398 OA
ATOM     37  H7  UNL     1      23.791  61.264  40.657  1.00  0.00     0.209 HD
ENDBRANCH  35  36
ENDBRANCH   7  35
TORSDOF 14
ENDMDL