MODEL 2
REMARK VINA RESULT: -7.542943054      3.884      7.161
REMARK  14 active torsions:
REMARK  status: ('A' for Active; 'I' for Inactive)
REMARK    1  A    between atoms: C2_2  and  C3_3
REMARK    2  A    between atoms: C3_3  and  O1_4
REMARK    3  A    between atoms: O1_4  and  C4_5
REMARK    4  A    between atoms: C6_7  and  O2_8
REMARK    5  A    between atoms: C8_10  and  O3_11
REMARK    6  A    between atoms: C10_13  and  O4_14
REMARK    7  A    between atoms: C11_16  and  C12_17
REMARK    8  A    between atoms: C14_19  and  C15_20
REMARK    9  A    between atoms: C15_20  and  O5_21
REMARK   10  A    between atoms: O5_21  and  C16_22
REMARK   11  A    between atoms: C18_24  and  O6_25
REMARK   12  A    between atoms: C19_27  and  O7_28
REMARK   13  A    between atoms: C20_30  and  O8_31
REMARK   14  A    between atoms: C21_33  and  O9_34
ROOT
HETATM    1  C12 UNL     1      20.149  63.428  42.152  1.00  0.00     0.062 C
HETATM    2  C13 UNL     1      20.097  64.826  42.718  1.00  0.00     0.074 C
HETATM    3  C14 UNL     1      21.215  64.720  43.821  1.00  0.00     0.040 C
HETATM    4  C22 UNL     1      21.444  63.288  43.842  1.00  0.00     0.182 C
HETATM    5  O10 UNL     1      21.382  62.959  42.405  1.00  0.00    -0.354 OA
ENDROOT
BRANCH   1   6
HETATM    6  C11 UNL     1      19.476  63.238  40.896  1.00  0.00     0.063 A
HETATM    7  C4  UNL     1      18.135  62.853  40.740  1.00  0.00     0.087 A
HETATM    8  C5  UNL     1      17.528  62.856  39.479  1.00  0.00     0.077 A
HETATM    9  C6  UNL     1      18.223  63.236  38.359  1.00  0.00     0.107 A
HETATM   10  C8  UNL     1      19.550  63.619  38.487  1.00  0.00     0.136 A
HETATM   11  C10 UNL     1      20.138  63.612  39.721  1.00  0.00     0.117 A
BRANCH   7  12
HETATM   12  O1  UNL     1      17.514  62.482  41.891  1.00  0.00    -0.350 OA
BRANCH  12  13
HETATM   13  C3  UNL     1      16.471  62.988  42.611  1.00  0.00     0.175 C
BRANCH  13  14
HETATM   14  C2  UNL     1      16.725  63.727  43.869  1.00  0.00     0.022 C
HETATM   15  C1  UNL     1      15.657  64.736  44.221  1.00  0.00     0.007 C
ENDBRANCH  13  14
ENDBRANCH  12  13
ENDBRANCH   7  12
BRANCH   9  16
HETATM   16  O2  UNL     1      17.668  63.259  37.105  1.00  0.00    -0.353 OA
HETATM   17  C7  UNL     1      16.991  64.344  36.582  1.00  0.00     0.210 C
ENDBRANCH   9  16
BRANCH  10  18
HETATM   18  O3  UNL     1      20.256  64.012  37.322  1.00  0.00    -0.351 OA
HETATM   19  C9  UNL     1      20.373  65.441  37.199  1.00  0.00     0.210 C
ENDBRANCH  10  18
BRANCH  11  20
HETATM   20  O4  UNL     1      21.459  64.007  39.763  1.00  0.00    -0.357 OA
ATOM     21  H4  UNL     1      21.981  63.637  40.465  1.00  0.00     0.217 HD
ENDBRANCH  11  20
ENDBRANCH   1   6
BRANCH   3  22
HETATM   22  C15 UNL     1      20.817  65.574  44.929  1.00  0.00     0.175 C
BRANCH  22  23
HETATM   23  O5  UNL     1      20.427  65.236  46.111  1.00  0.00    -0.383 OA
BRANCH  23  24
HETATM   24  C16 UNL     1      20.132  65.900  47.205  1.00  0.00     0.155 C
HETATM   25  C17 UNL     1      21.421  66.439  47.805  1.00  0.00     0.069 C
HETATM   26  C18 UNL     1      22.033  65.470  48.780  1.00  0.00     0.152 C
HETATM   27  C19 UNL     1      21.629  64.039  48.618  1.00  0.00     0.178 C
HETATM   28  C20 UNL     1      20.154  63.815  48.626  1.00  0.00     0.180 C
HETATM   29  C21 UNL     1      19.421  65.070  48.301  1.00  0.00     0.178 C
BRANCH  26  30
HETATM   30  O6  UNL     1      23.434  65.488  48.573  1.00  0.00    -0.393 OA
ATOM     31  H6  UNL     1      23.746  64.595  48.659  1.00  0.00     0.210 HD
ENDBRANCH  26  30
BRANCH  27  32
HETATM   32  O7  UNL     1      22.220  63.495  47.497  1.00  0.00    -0.390 OA
ATOM     33  H7  UNL     1      22.831  62.810  47.743  1.00  0.00     0.210 HD
ENDBRANCH  27  32
BRANCH  28  34
HETATM   34  O8  UNL     1      19.769  63.427  49.906  1.00  0.00    -0.390 OA
ATOM     35  H8  UNL     1      19.105  64.030  50.220  1.00  0.00     0.210 HD
ENDBRANCH  28  34
BRANCH  29  36
HETATM   36  O9  UNL     1      19.477  65.880  49.426  1.00  0.00    -0.390 OA
ATOM     37  H9  UNL     1      18.737  66.468  49.324  1.00  0.00     0.210 HD
ENDBRANCH  29  36
ENDBRANCH  23  24
ENDBRANCH  22  23
ENDBRANCH   3  22
TORSDOF 14
ENDMDL