MODEL 5
REMARK VINA RESULT: -7.768293915      3.001      5.959
REMARK  13 active torsions:
REMARK  status: ('A' for Active; 'I' for Inactive)
REMARK    1  A    between atoms: C2_2  and  C3_3
REMARK    2  A    between atoms: C3_3  and  C4_4
REMARK    3  A    between atoms: C4_4  and  C5_5
REMARK    4  A    between atoms: C5_5  and  O1_6
REMARK    5  A    between atoms: O1_6  and  C6_7
REMARK    6  A    between atoms: C6_7  and  O2_9
REMARK    7  A    between atoms: O2_9  and  C8_10
REMARK    8  A    between atoms: C13_15  and  N1_16
REMARK       I    between atoms: N1_16  and  C14_18
REMARK    9  A    between atoms: C15_21  and  O4_22
REMARK   10  A    between atoms: O4_22  and  C16_23
REMARK   11  A    between atoms: C19_27  and  O6_28
REMARK   12  A    between atoms: C20_30  and  O7_31
REMARK   13  A    between atoms: C21_33  and  O8_34
ROOT
HETATM    1  C8  UNL     1      19.783  64.847  42.208  1.00  0.00     0.267 C
HETATM    2  C9  UNL     1      21.027  65.569  41.621  1.00  0.00     0.072 C
HETATM    3  C10 UNL     1      21.746  66.363  42.661  1.00  0.00    -0.018 C
HETATM    4  C11 UNL     1      23.103  66.778  42.094  1.00  0.00     0.017 C
HETATM    5  C12 UNL     1      20.990  67.634  42.954  1.00  0.00     0.017 C
HETATM    6  C13 UNL     1      22.011  65.583  43.921  1.00  0.00     0.149 C
HETATM    7  C15 UNL     1      20.795  64.762  44.328  1.00  0.00     0.289 C
HETATM    8  O9  UNL     1      20.214  64.072  43.298  1.00  0.00    -0.329 OA
ENDROOT
BRANCH   7   9
HETATM    9  O4  UNL     1      21.309  63.769  45.188  1.00  0.00    -0.327 OA
BRANCH   9  10
HETATM   10  C16 UNL     1      20.624  63.646  46.376  1.00  0.00     0.294 C
HETATM   11  O5  UNL     1      19.681  64.642  46.427  1.00  0.00    -0.351 OA
HETATM   12  C17 UNL     1      18.881  64.691  47.538  1.00  0.00     0.152 C
HETATM   13  C18 UNL     1      18.252  66.092  47.543  1.00  0.00     0.042 C
HETATM   14  C19 UNL     1      19.623  64.585  48.849  1.00  0.00     0.178 C
HETATM   15  C20 UNL     1      20.698  63.524  48.802  1.00  0.00     0.183 C
HETATM   16  C21 UNL     1      21.543  63.827  47.578  1.00  0.00     0.204 C
BRANCH  14  17
HETATM   17  O6  UNL     1      20.195  65.776  49.238  1.00  0.00    -0.390 OA
ATOM     18  H6  UNL     1      21.124  65.698  49.416  1.00  0.00     0.210 HD
ENDBRANCH  14  17
BRANCH  15  19
HETATM   19  O7  UNL     1      20.186  62.233  48.795  1.00  0.00    -0.390 OA
ATOM     20  H7  UNL     1      20.862  61.565  48.774  1.00  0.00     0.210 HD
ENDBRANCH  15  19
BRANCH  16  21
HETATM   21  O8  UNL     1      21.981  65.153  47.704  1.00  0.00    -0.388 OA
ATOM     22  H8  UNL     1      22.126  65.392  48.612  1.00  0.00     0.210 HD
ENDBRANCH  16  21
ENDBRANCH   9  10
ENDBRANCH   7   9
BRANCH   6  23
HETATM   23  N1  UNL     1      23.184  64.732  43.787  1.00  0.00    -0.335 N
HETATM   24  C14 UNL     1      24.247  64.767  44.732  1.00  0.00     0.329 C
HETATM   25  N2  UNL     1      25.384  63.937  44.595  1.00  0.00    -0.040 NA
HETATM   26  O3  UNL     1      24.152  65.556  45.700  1.00  0.00    -0.251 OA
ATOM     27  H1  UNL     1      23.245  64.093  42.995  1.00  0.00     0.164 HD
ENDBRANCH   6  23
BRANCH   1  28
HETATM   28  O2  UNL     1      19.266  64.117  41.311  1.00  0.00    -0.332 OA
BRANCH  28  29
HETATM   29  C6  UNL     1      18.765  63.411  40.439  1.00  0.00     0.258 C
HETATM   30  C7  UNL     1      19.766  62.716  39.473  1.00  0.00     0.071 C
BRANCH  29  31
HETATM   31  O1  UNL     1      17.860  62.428  40.892  1.00  0.00    -0.362 OA
BRANCH  31  32
HETATM   32  C5  UNL     1      16.769  62.858  41.552  1.00  0.00     0.171 C
BRANCH  32  33
HETATM   33  C4  UNL     1      16.658  62.274  42.916  1.00  0.00     0.026 C
BRANCH  33  34
HETATM   34  C3  UNL     1      16.921  63.307  44.008  1.00  0.00     0.002 C
BRANCH  34  35
HETATM   35  C2  UNL     1      15.951  64.460  43.744  1.00  0.00    -0.004 C
HETATM   36  C1  UNL     1      15.394  64.905  45.086  1.00  0.00     0.005 C
ENDBRANCH  34  35
ENDBRANCH  33  34
ENDBRANCH  32  33
ENDBRANCH  31  32
ENDBRANCH  29  31
ENDBRANCH  28  29
ENDBRANCH   1  28
TORSDOF 13
ENDMDL