MODEL 4
REMARK VINA RESULT: -7.510555997      3.234      5.638
REMARK  13 active torsions:
REMARK  status: ('A' for Active; 'I' for Inactive)
REMARK    1  A    between atoms: C2_2  and  C3_3
REMARK    2  A    between atoms: C3_3  and  C4_4
REMARK    3  A    between atoms: C4_4  and  C5_5
REMARK    4  A    between atoms: C5_5  and  C6_6
REMARK    5  A    between atoms: C8_9  and  N1_10
REMARK    6  A    between atoms: C9_11  and  C10_12
REMARK    7  A    between atoms: C10_12  and  O1_13
REMARK    8  A    between atoms: C11_15  and  O2_16
REMARK    9  A    between atoms: C12_18  and  O3_19
REMARK   10  A    between atoms: C13_21  and  O4_22
REMARK   11  A    between atoms: C14_24  and  C15_25
REMARK   12  A    between atoms: C15_25  and  O5_26
REMARK   13  A    between atoms: O5_26  and  S2_27
ROOT
HETATM    1  C6  UNL     1      17.334  65.387  44.700  1.00  0.00    -0.028 A
HETATM    2  C7  UNL     1      17.802  66.558  45.241  1.00  0.00     0.060 A
HETATM    3  S1  UNL     1      19.475  66.296  45.345  1.00  0.00    -0.082 SA
HETATM    4  C8  UNL     1      19.549  64.704  44.703  1.00  0.00     0.094 A
HETATM    5  C16 UNL     1      18.245  64.425  44.423  1.00  0.00     0.085 A
HETATM    6  C17 UNL     1      17.916  63.098  43.852  1.00  0.00     0.103 C
HETATM    7  N2  UNL     1      17.675  62.060  43.394  1.00  0.00    -0.191 NA
ENDROOT
BRANCH   1   8
HETATM    8  C5  UNL     1      15.849  65.201  44.376  1.00  0.00     0.041 C
BRANCH   8   9
HETATM    9  C4  UNL     1      15.205  64.445  45.503  1.00  0.00     0.005 C
BRANCH   9  10
HETATM   10  C3  UNL     1      14.147  65.241  46.212  1.00  0.00    -0.000 C
BRANCH  10  11
HETATM   11  C2  UNL     1      14.288  65.120  47.736  1.00  0.00    -0.005 C
HETATM   12  C1  UNL     1      15.629  65.756  48.060  1.00  0.00     0.005 C
ENDBRANCH  10  11
ENDBRANCH   9  10
ENDBRANCH   8   9
ENDBRANCH   1   8
BRANCH   4  13
HETATM   13  N1  UNL     1      20.752  63.933  44.550  1.00  0.00    -0.355 N
HETATM   14  C9  UNL     1      21.450  64.173  43.277  1.00  0.00     0.140 C
HETATM   15  C11 UNL     1      22.903  64.399  43.490  1.00  0.00     0.174 C
HETATM   16  C12 UNL     1      23.552  63.507  44.502  1.00  0.00     0.179 C
HETATM   17  C13 UNL     1      22.744  63.369  45.766  1.00  0.00     0.174 C
HETATM   18  C14 UNL     1      21.305  62.994  45.447  1.00  0.00     0.142 C
BRANCH  14  19
HETATM   19  C10 UNL     1      21.173  62.938  42.430  1.00  0.00     0.192 C
BRANCH  19  20
HETATM   20  O1  UNL     1      21.782  63.058  41.177  1.00  0.00    -0.399 OA
ATOM     21  H1  UNL     1      22.552  62.504  41.126  1.00  0.00     0.209 HD
ENDBRANCH  19  20
ENDBRANCH  14  19
BRANCH  15  22
HETATM   22  O2  UNL     1      23.177  65.761  43.698  1.00  0.00    -0.391 OA
ATOM     23  H2  UNL     1      22.923  66.279  42.944  1.00  0.00     0.210 HD
ENDBRANCH  15  22
BRANCH  16  24
HETATM   24  O3  UNL     1      24.789  64.079  44.830  1.00  0.00    -0.390 OA
ATOM     25  H3  UNL     1      24.730  64.382  45.728  1.00  0.00     0.210 HD
ENDBRANCH  16  24
BRANCH  17  26
HETATM   26  O4  UNL     1      23.376  62.371  46.524  1.00  0.00    -0.391 OA
ATOM     27  H4  UNL     1      24.265  62.672  46.667  1.00  0.00     0.210 HD
ENDBRANCH  17  26
BRANCH  18  28
HETATM   28  C15 UNL     1      20.560  62.687  46.694  1.00  0.00     0.221 C
BRANCH  28  29
HETATM   29  O5  UNL     1      21.177  63.331  47.766  1.00  0.00    -0.255 OA
BRANCH  29  30
HETATM   30  S2  UNL     1      20.048  64.056  48.774  1.00  0.00     0.251 S
HETATM   31  O6  UNL     1      18.728  64.260  48.092  1.00  0.00    -0.572 OA
HETATM   32  O7  UNL     1      20.508  65.440  49.215  1.00  0.00    -0.572 OA
HETATM   33  O8  UNL     1      19.827  63.147  50.167  1.00  0.00    -0.572 OA
ENDBRANCH  29  30
ENDBRANCH  28  29
ENDBRANCH  18  28
ENDBRANCH   4  13
TORSDOF 13
ENDMDL