MODEL 5
REMARK VINA RESULT: -8.217877658      2.248      3.213
REMARK  14 active torsions:
REMARK  status: ('A' for Active; 'I' for Inactive)
REMARK    1  A    between atoms: O1_2  and  N1_3
REMARK    2  A    between atoms: C2_5  and  O2_6
REMARK    3  A    between atoms: C2_5  and  C3_8
REMARK    4  A    between atoms: C4_9  and  C5_10
REMARK    5  A    between atoms: C5_10  and  C6_11
REMARK    6  A    between atoms: C6_11  and  C7_12
REMARK    7  A    between atoms: C7_12  and  C8_13
REMARK    8  A    between atoms: C15_21  and  O4_22
REMARK    9  A    between atoms: O4_22  and  C16_23
REMARK   10  A    between atoms: C17_25  and  C18_26
REMARK   11  A    between atoms: C18_26  and  O6_27
REMARK   12  A    between atoms: C19_29  and  O7_30
REMARK   13  A    between atoms: C20_32  and  O8_33
REMARK   14  A    between atoms: C21_35  and  O9_36
ROOT
HETATM    1  C3  UNL     1      22.870  66.173  47.500  1.00  0.00     0.123 C
HETATM    2  C4  UNL     1      21.920  66.711  46.387  1.00  0.00     0.026 C
HETATM    3  C14 UNL     1      22.920  67.262  45.433  1.00  0.00     0.176 C
HETATM    4  O3  UNL     1      24.189  66.776  45.714  1.00  0.00    -0.360 OA
HETATM    5  C15 UNL     1      24.026  65.752  46.644  1.00  0.00     0.275 C
ENDROOT
BRANCH   5   6
HETATM    6  O4  UNL     1      25.207  65.628  47.329  1.00  0.00    -0.328 OA
BRANCH   6   7
HETATM    7  C16 UNL     1      25.647  64.307  47.236  1.00  0.00     0.294 C
HETATM    8  O5  UNL     1      26.857  64.322  46.597  1.00  0.00    -0.348 OA
HETATM    9  C17 UNL     1      27.540  63.153  46.517  1.00  0.00     0.179 C
HETATM   10  C19 UNL     1      27.454  62.281  47.747  1.00  0.00     0.180 C
HETATM   11  C20 UNL     1      26.963  63.025  48.952  1.00  0.00     0.183 C
HETATM   12  C21 UNL     1      25.677  63.746  48.628  1.00  0.00     0.204 C
BRANCH   9  13
HETATM   13  C18 UNL     1      27.241  62.335  45.274  1.00  0.00     0.198 C
BRANCH  13  14
HETATM   14  O6  UNL     1      27.178  60.986  45.505  1.00  0.00    -0.398 OA
ATOM     15  H6  UNL     1      27.869  60.493  45.079  1.00  0.00     0.209 HD
ENDBRANCH  13  14
ENDBRANCH   9  13
BRANCH  10  16
HETATM   16  O7  UNL     1      28.718  61.748  48.091  1.00  0.00    -0.390 OA
ATOM     17  H7  UNL     1      28.691  60.800  48.148  1.00  0.00     0.210 HD
ENDBRANCH  10  16
BRANCH  11  18
HETATM   18  O8  UNL     1      27.949  63.902  49.386  1.00  0.00    -0.390 OA
ATOM     19  H8  UNL     1      28.468  64.188  48.643  1.00  0.00     0.210 HD
ENDBRANCH  11  18
BRANCH  12  20
HETATM   20  O9  UNL     1      25.546  64.762  49.604  1.00  0.00    -0.388 OA
ATOM     21  H9  UNL     1      24.721  64.697  50.070  1.00  0.00     0.210 HD
ENDBRANCH  12  20
ENDBRANCH   6   7
ENDBRANCH   5   6
BRANCH   1  22
HETATM   22  C2  UNL     1      22.232  65.037  48.204  1.00  0.00     0.144 C
HETATM   23  N1  UNL     1      21.792  65.189  49.385  1.00  0.00    -0.249 N
ATOM     24  H1  UNL     1      21.909  66.119  49.790  1.00  0.00     0.196 HD
BRANCH  23  25
HETATM   25  O1  UNL     1      21.187  64.273  50.171  1.00  0.00    -0.284 OA
HETATM   26  C1  UNL     1      20.084  63.478  49.766  1.00  0.00     0.237 C
ENDBRANCH  23  25
BRANCH  22  27
HETATM   27  O2  UNL     1      22.142  63.838  47.539  1.00  0.00    -0.348 OA
ATOM     28  H2  UNL     1      22.350  63.755  46.616  1.00  0.00     0.219 HD
ENDBRANCH  22  27
ENDBRANCH   1  22
BRANCH   2  29
HETATM   29  C5  UNL     1      20.959  67.660  46.993  1.00  0.00     0.007 C
BRANCH  29  30
HETATM   30  C6  UNL     1      20.116  68.493  46.121  1.00  0.00     0.001 C
BRANCH  30  31
HETATM   31  C7  UNL     1      19.078  67.754  45.376  1.00  0.00     0.005 C
BRANCH  31  32
HETATM   32  C8  UNL     1      19.028  68.238  43.894  1.00  0.00    -0.014 C
HETATM   33  C9  UNL     1      19.409  69.667  43.911  1.00  0.00     0.004 C
HETATM   34  C10 UNL     1      20.004  70.199  42.655  1.00  0.00     0.000 C
HETATM   35  C11 UNL     1      20.508  69.186  41.694  1.00  0.00     0.000 C
HETATM   36  C12 UNL     1      21.098  68.028  42.502  1.00  0.00     0.000 C
HETATM   37  C13 UNL     1      19.936  67.326  43.144  1.00  0.00     0.004 C
ENDBRANCH  31  32
ENDBRANCH  30  31
ENDBRANCH  29  30
ENDBRANCH   2  29
TORSDOF 14
ENDMDL