MODEL 2
REMARK VINA RESULT: -7.412825616      1.637      2.250
REMARK  14 active torsions:
REMARK  status: ('A' for Active; 'I' for Inactive)
REMARK    1  A    between atoms: O1_1  and  C1_3
REMARK    2  A    between atoms: C1_3  and  C2_4
REMARK    3  A    between atoms: C4_6  and  C5_7
REMARK    4  A    between atoms: C5_7  and  S1_8
REMARK    5  A    between atoms: S1_8  and  C6_9
REMARK    6  A    between atoms: C6_9  and  C7_10
REMARK    7  A    between atoms: C8_12  and  C9_13
REMARK    8  A    between atoms: C9_13  and  O3_14
REMARK    9  A    between atoms: C10_16  and  O4_17
REMARK   10  A    between atoms: C11_19  and  O5_20
REMARK   11  A    between atoms: C12_22  and  O6_23
REMARK   12  A    between atoms: C13_26  and  C14_27
REMARK   13  A    between atoms: C14_27  and  S2_28
REMARK   14  A    between atoms: S2_28  and  C15_29
ROOT
HETATM    1  S1  UNL     1      25.030  64.273  46.017  1.00  0.00    -0.164 SA
ENDROOT
BRANCH   1   2
HETATM    2  C5  UNL     1      23.637  65.382  46.126  1.00  0.00     0.105 C
BRANCH   2   3
HETATM    3  C4  UNL     1      22.910  65.314  47.427  1.00  0.00     0.131 C
HETATM    4  C3  UNL     1      22.502  63.950  47.862  1.00  0.00     0.042 C
HETATM    5  C2  UNL     1      21.313  64.334  48.809  1.00  0.00     0.041 C
HETATM    6  C13 UNL     1      20.719  65.392  47.965  1.00  0.00     0.137 C
HETATM    7  O7  UNL     1      21.777  66.129  47.432  1.00  0.00    -0.379 OA
BRANCH   5   8
HETATM    8  C1  UNL     1      20.536  63.132  49.138  1.00  0.00     0.171 C
BRANCH   8   9
HETATM    9  O1  UNL     1      19.752  63.293  50.256  1.00  0.00    -0.400 OA
ATOM     10  H1  UNL     1      18.984  63.826  50.094  1.00  0.00     0.209 HD
ENDBRANCH   8   9
ENDBRANCH   5   8
BRANCH   6  11
HETATM   11  C14 UNL     1      19.844  64.992  46.846  1.00  0.00     0.112 C
BRANCH  11  12
HETATM   12  S2  UNL     1      18.692  66.185  46.207  1.00  0.00    -0.120 SA
BRANCH  12  13
HETATM   13  C15 UNL     1      16.993  65.583  46.239  1.00  0.00     0.041 A
HETATM   14  C16 UNL     1      16.248  65.449  47.382  1.00  0.00     0.026 A
HETATM   15  C17 UNL     1      14.987  64.984  47.243  1.00  0.00     0.009 A
HETATM   16  C18 UNL     1      14.572  64.691  45.969  1.00  0.00     0.051 A
HETATM   17  S3  UNL     1      15.936  65.068  45.024  1.00  0.00    -0.095 SA
ENDBRANCH  12  13
ENDBRANCH  11  12
ENDBRANCH   6  11
ENDBRANCH   2   3
ENDBRANCH   1   2
BRANCH   1  18
HETATM   18  C6  UNL     1      24.933  63.005  44.774  1.00  0.00     0.108 C
BRANCH  18  19
HETATM   19  C7  UNL     1      24.305  63.506  43.463  1.00  0.00     0.162 C
HETATM   20  O2  UNL     1      23.759  62.441  42.816  1.00  0.00    -0.372 OA
HETATM   21  C8  UNL     1      23.371  62.634  41.518  1.00  0.00     0.176 C
HETATM   22  C10 UNL     1      23.659  64.032  41.017  1.00  0.00     0.180 C
HETATM   23  C11 UNL     1      25.124  64.315  41.256  1.00  0.00     0.180 C
HETATM   24  C12 UNL     1      25.387  64.231  42.737  1.00  0.00     0.179 C
BRANCH  21  25
HETATM   25  C9  UNL     1      21.949  62.217  41.229  1.00  0.00     0.198 C
BRANCH  25  26
HETATM   26  O3  UNL     1      22.016  61.259  40.205  1.00  0.00    -0.398 OA
ATOM     27  H3  UNL     1      21.129  61.144  39.886  1.00  0.00     0.209 HD
ENDBRANCH  25  26
ENDBRANCH  21  25
BRANCH  22  28
HETATM   28  O4  UNL     1      22.831  64.991  41.571  1.00  0.00    -0.390 OA
ATOM     29  H4  UNL     1      22.754  64.919  42.515  1.00  0.00     0.210 HD
ENDBRANCH  22  28
BRANCH  23  30
HETATM   30  O5  UNL     1      25.477  65.580  40.763  1.00  0.00    -0.390 OA
ATOM     31  H5  UNL     1      25.880  65.511  39.905  1.00  0.00     0.210 HD
ENDBRANCH  23  30
BRANCH  24  32
HETATM   32  O6  UNL     1      26.651  63.650  42.958  1.00  0.00    -0.390 OA
ATOM     33  H6  UNL     1      26.991  63.229  42.177  1.00  0.00     0.210 HD
ENDBRANCH  24  32
ENDBRANCH  18  19
ENDBRANCH   1  18
TORSDOF 14
ENDMDL