MODEL 2
REMARK VINA RESULT: -8.464787727      1.861      2.493
REMARK  14 active torsions:
REMARK  status: ('A' for Active; 'I' for Inactive)
REMARK    1  A    between atoms: O1_2  and  C2_3
REMARK    2  A    between atoms: C2_3  and  C3_5
REMARK    3  A    between atoms: C3_5  and  C4_6
REMARK    4  A    between atoms: C4_6  and  C5_7
REMARK    5  A    between atoms: C5_7  and  C6_8
REMARK    6  A    between atoms: C6_8  and  C7_9
REMARK    7  A    between atoms: C7_9  and  C8_10
REMARK    8  A    between atoms: C8_10  and  C9_11
REMARK    9  A    between atoms: C9_11  and  C10_12
REMARK   10  A    between atoms: C10_12  and  N1_13
REMARK   11  A    between atoms: C17_24  and  O5_25
REMARK   12  A    between atoms: C18_27  and  O6_28
REMARK   13  A    between atoms: C19_30  and  O7_31
REMARK   14  A    between atoms: C20_33  and  O8_34
ROOT
HETATM    1  N1  UNL     1      21.686  67.492  46.051  1.00  0.00    -0.387 N
ATOM      2  H1  UNL     1      22.309  67.994  45.419  1.00  0.00     0.159 HD
HETATM    3  C11 UNL     1      22.141  66.417  46.507  1.00  0.00     0.052 C
HETATM    4  S1  UNL     1      23.807  65.962  45.955  1.00  0.00    -0.107 SA
HETATM    5  C12 UNL     1      23.616  64.433  45.004  1.00  0.00     0.108 C
HETATM    6  C13 UNL     1      24.993  63.955  44.553  1.00  0.00     0.185 C
HETATM    7  O3  UNL     1      25.473  63.342  45.692  1.00  0.00    -0.387 OA
HETATM    8  C14 UNL     1      24.442  62.595  46.220  1.00  0.00     0.200 C
HETATM    9  C15 UNL     1      23.138  63.273  45.822  1.00  0.00     0.162 C
HETATM   10  O4  UNL     1      22.464  63.593  46.966  1.00  0.00    -0.374 OA
HETATM   11  C16 UNL     1      21.247  64.200  46.819  1.00  0.00     0.166 C
HETATM   12  C17 UNL     1      20.239  63.476  47.687  1.00  0.00     0.179 C
HETATM   13  C18 UNL     1      20.326  63.838  49.130  1.00  0.00     0.180 C
HETATM   14  C19 UNL     1      21.672  64.334  49.590  1.00  0.00     0.179 C
HETATM   15  C20 UNL     1      22.268  65.364  48.673  1.00  0.00     0.162 C
HETATM   16  C21 UNL     1      21.357  65.598  47.453  1.00  0.00     0.105 C
ENDROOT
BRANCH   1  17
HETATM   17  C10 UNL     1      20.439  68.110  46.283  1.00  0.00     0.120 C
BRANCH  17  18
HETATM   18  C9  UNL     1      19.731  68.425  45.006  1.00  0.00     0.020 C
BRANCH  18  19
HETATM   19  C8  UNL     1      18.653  67.384  44.708  1.00  0.00     0.002 C
BRANCH  19  20
HETATM   20  C7  UNL     1      18.206  66.693  45.952  1.00  0.00     0.000 C
BRANCH  20  21
HETATM   21  C6  UNL     1      17.602  65.324  45.701  1.00  0.00     0.000 C
BRANCH  21  22
HETATM   22  C5  UNL     1      16.178  65.466  45.217  1.00  0.00     0.000 C
BRANCH  22  23
HETATM   23  C4  UNL     1      15.881  64.559  44.070  1.00  0.00     0.010 C
BRANCH  23  24
HETATM   24  C3  UNL     1      17.015  63.675  43.655  1.00  0.00     0.111 C
BRANCH  24  25
HETATM   25  C2  UNL     1      16.624  62.412  43.024  1.00  0.00     0.258 C
HETATM   26  O2  UNL     1      15.764  61.674  43.541  1.00  0.00    -0.265 OA
BRANCH  25  27
HETATM   27  O1  UNL     1      17.178  61.958  41.825  1.00  0.00    -0.326 OA
HETATM   28  C1  UNL     1      17.435  62.847  40.745  1.00  0.00     0.213 C
ENDBRANCH  25  27
ENDBRANCH  24  25
ENDBRANCH  23  24
ENDBRANCH  22  23
ENDBRANCH  21  22
ENDBRANCH  20  21
ENDBRANCH  19  20
ENDBRANCH  18  19
ENDBRANCH  17  18
ENDBRANCH   1  17
BRANCH  15  29
HETATM   29  O8  UNL     1      22.451  66.610  49.263  1.00  0.00    -0.392 OA
ATOM     30  H8  UNL     1      22.972  67.212  48.743  1.00  0.00     0.210 HD
ENDBRANCH  15  29
BRANCH  12  31
HETATM   31  O5  UNL     1      20.255  62.102  47.457  1.00  0.00    -0.390 OA
ATOM     32  H5  UNL     1      21.112  61.804  47.173  1.00  0.00     0.210 HD
ENDBRANCH  12  31
BRANCH  14  33
HETATM   33  O7  UNL     1      22.551  63.264  49.839  1.00  0.00    -0.390 OA
ATOM     34  H7  UNL     1      23.451  63.562  49.885  1.00  0.00     0.210 HD
ENDBRANCH  14  33
BRANCH  13  35
HETATM   35  O6  UNL     1      20.033  62.689  49.884  1.00  0.00    -0.390 OA
ATOM     36  H6  UNL     1      19.860  62.960  50.778  1.00  0.00     0.210 HD
ENDBRANCH  13  35
TORSDOF 14
ENDMDL