MODEL 5
REMARK VINA RESULT: -8.434951304      1.045      1.674
REMARK  8 active torsions:
REMARK  status: ('A' for Active; 'I' for Inactive)
REMARK    1  A    between atoms: C4_8  and  O1_9
REMARK    2  A    between atoms: C4_8  and  C5_11
REMARK       I    between atoms: C5_11  and  N3_13
REMARK    3  A    between atoms: N3_13  and  C6_14
REMARK    4  A    between atoms: C6_14  and  C7_15
REMARK    5  A    between atoms: C7_15  and  C8_16
REMARK    6  A    between atoms: C8_16  and  N4_17
REMARK    7  A    between atoms: C12_24  and  C13_25
REMARK    8  A    between atoms: C15_30  and  N8_31
ROOT
HETATM    1  N4  UNL     1     127.003  41.998  19.239  1.00  0.00    -0.226 N
ATOM      2  H4  UNL     1     126.035  42.316  19.217  1.00  0.00     0.177 HD
HETATM    3  C9  UNL     1     127.064  40.855  18.756  1.00  0.00     0.678 A
HETATM    4  N5  UNL     1     125.904  40.267  18.311  1.00  0.00    -0.202 N
ATOM      5  H5  UNL     1     125.040  40.802  18.400  1.00  0.00     0.183 HD
HETATM    6  C10 UNL     1     125.823  39.078  17.785  1.00  0.00     0.108 A
HETATM    7  C11 UNL     1     126.974  38.323  17.647  1.00  0.00     0.049 A
HETATM    8  C12 UNL     1     128.177  38.846  18.073  1.00  0.00     0.067 A
HETATM    9  N11 UNL     1     128.174  40.085  18.608  1.00  0.00    -0.191 N
ATOM     10  H11 UNL     1     129.065  40.469  18.922  1.00  0.00     0.184 HD
ENDROOT
BRANCH   1  11
HETATM   11  C8  UNL     1     127.788  42.989  19.796  1.00  0.00     0.144 C
BRANCH  11  12
HETATM   12  C7  UNL     1     126.897  43.937  20.622  1.00  0.00     0.080 C
BRANCH  12  13
HETATM   13  C6  UNL     1     126.144  43.043  21.636  1.00  0.00     0.161 C
BRANCH  13  14
HETATM   14  N3  UNL     1     125.037  42.453  21.308  1.00  0.00    -0.384 NA
HETATM   15  C5  UNL     1     123.841  41.814  20.954  1.00  0.00     0.356 C
HETATM   16  O2  UNL     1     123.650  40.606  20.784  1.00  0.00    -0.251 OA
BRANCH  15  17
HETATM   17  C4  UNL     1     122.671  42.777  20.762  1.00  0.00     0.334 C
HETATM   18  N2  UNL     1     121.596  42.236  21.612  1.00  0.00    -0.029 N
HETATM   19  C3  UNL     1     120.430  43.097  21.462  1.00  0.00     0.256 C
ATOM     20  H22 UNL     1     121.881  42.123  22.584  1.00  0.00     0.281 HD
ATOM     21  H21 UNL     1     121.392  41.256  21.415  1.00  0.00     0.281 HD
HETATM   22  C2  UNL     1     120.715  44.527  21.763  1.00  0.00     0.144 C
HETATM   23  N1  UNL     1     122.038  44.993  21.610  1.00  0.00    -0.410 N
HETATM   24  C1  UNL     1     122.055  46.256  20.888  1.00  0.00     0.143 C
HETATM   25  C17 UNL     1     123.080  44.112  21.249  1.00  0.00     0.197 C
BRANCH  17  26
HETATM   26  O1  UNL     1     122.279  42.776  19.456  1.00  0.00    -0.356 OA
ATOM     27  H1  UNL     1     123.029  42.635  18.890  1.00  0.00     0.213 HD
ENDBRANCH  17  26
ENDBRANCH  15  17
ENDBRANCH  13  14
ENDBRANCH  12  13
ENDBRANCH  11  12
ENDBRANCH   1  11
BRANCH   8  28
HETATM   28  C13 UNL     1     129.432  38.077  17.870  1.00  0.00     0.077 A
HETATM   29  C14 UNL     1     130.473  38.635  17.185  1.00  0.00     0.148 A
HETATM   30  N6  UNL     1     130.417  39.881  16.476  1.00  0.00    -0.081 NA
HETATM   31  N7  UNL     1     131.661  37.967  17.094  1.00  0.00    -0.178 N
HETATM   32  C15 UNL     1     131.859  36.780  17.644  1.00  0.00     0.678 A
ATOM     33  H7  UNL     1     132.428  38.401  16.580  1.00  0.00     0.185 HD
HETATM   34  N9  UNL     1     130.849  36.224  18.314  1.00  0.00    -0.176 N
HETATM   35  C16 UNL     1     129.638  36.843  18.441  1.00  0.00     0.130 A
ATOM     36  H9  UNL     1     130.985  35.309  18.744  1.00  0.00     0.186 HD
HETATM   37  N10 UNL     1     128.730  36.269  19.133  1.00  0.00    -0.384 N
ATOM     38 2H10 UNL     1     127.826  36.732  19.229  1.00  0.00     0.157 HD
ATOM     39 1H10 UNL     1     128.883  35.354  19.557  1.00  0.00     0.157 HD
BRANCH  32  40
HETATM   40  N8  UNL     1     133.015  36.186  17.528  1.00  0.00    -0.234 N
ATOM     41  H82 UNL     1     133.716  36.228  18.268  1.00  0.00     0.174 HD
ATOM     42  H81 UNL     1     133.244  35.665  16.681  1.00  0.00     0.174 HD
ENDBRANCH  32  40
ENDBRANCH   8  28
TORSDOF 8
ENDMDL