MODEL 1
REMARK VINA RESULT: -7.559173773      0.000      0.000
REMARK  10 active torsions:
REMARK  status: ('A' for Active; 'I' for Inactive)
REMARK       I    between atoms: C2_2  and  N1_4
REMARK    1  A    between atoms: C3_7  and  N3_8
REMARK    2  A    between atoms: C5_12  and  N4_13
REMARK    3  A    between atoms: N4_13  and  C6_15
REMARK    4  A    between atoms: C6_15  and  C7_16
REMARK    5  A    between atoms: C9_21  and  N7_22
REMARK    6  A    between atoms: C10_27  and  N9_28
REMARK    7  A    between atoms: N9_28  and  C11_29
REMARK    8  A    between atoms: C11_29  and  C12_30
REMARK    9  A    between atoms: C12_30  and  N10_31
REMARK   10  A    between atoms: C15_36  and  N12_37
ROOT
HETATM    1  C1  UNL     1     130.381  37.703  17.029  1.00  0.00     0.119 C
HETATM    2  C2  UNL     1     129.127  37.445  17.729  1.00  0.00     0.240 C
HETATM    3  O1  UNL     1     129.003  36.245  18.199  1.00  0.00    -0.272 OA
HETATM    4  N1  UNL     1     128.062  38.306  17.953  1.00  0.00    -0.204 N
HETATM    5  N2  UNL     1     126.928  37.988  18.635  1.00  0.00    -0.274 N
ATOM      6  H2  UNL     1     126.729  37.082  19.059  1.00  0.00     0.189 HD
HETATM    7  C3  UNL     1     126.119  39.049  18.660  1.00  0.00     0.132 A
HETATM    8  C4  UNL     1     126.730  40.073  17.989  1.00  0.00     0.100 A
HETATM    9  C5  UNL     1     126.316  41.399  17.763  1.00  0.00     0.135 A
HETATM   10  N11 UNL     1     127.152  42.180  17.090  1.00  0.00    -0.176 N
ATOM     11  H11 UNL     1     126.890  43.148  16.901  1.00  0.00     0.186 HD
HETATM   12  C15 UNL     1     128.350  41.713  16.649  1.00  0.00     0.679 A
HETATM   13  N13 UNL     1     128.770  40.458  16.856  1.00  0.00    -0.174 N
ATOM     14  H13 UNL     1     129.677  40.144  16.512  1.00  0.00     0.186 HD
HETATM   15  C16 UNL     1     127.945  39.609  17.544  1.00  0.00     0.163 A
ENDROOT
BRANCH   9  16
HETATM   16  N4  UNL     1     125.175  41.728  18.182  1.00  0.00    -0.370 N
ATOM     17  H4  UNL     1     124.470  40.993  18.239  1.00  0.00     0.161 HD
BRANCH  16  18
HETATM   18  C6  UNL     1     124.769  43.095  18.602  1.00  0.00     0.168 C
BRANCH  18  19
HETATM   19  C7  UNL     1     123.522  42.874  19.409  1.00  0.00     0.060 A
HETATM   20  C8  UNL     1     122.349  43.236  18.722  1.00  0.00     0.144 A
HETATM   21  N5  UNL     1     122.432  43.807  17.437  1.00  0.00    -0.081 NA
HETATM   22  N6  UNL     1     121.187  43.039  19.368  1.00  0.00    -0.178 N
HETATM   23  C9  UNL     1     121.168  42.518  20.623  1.00  0.00     0.679 A
ATOM     24  H6  UNL     1     120.309  43.283  18.911  1.00  0.00     0.185 HD
HETATM   25  N8  UNL     1     122.263  42.174  21.270  1.00  0.00    -0.164 N
HETATM   26  C10 UNL     1     123.539  42.340  20.662  1.00  0.00     0.203 A
ATOM     27  H8  UNL     1     122.195  41.787  22.211  1.00  0.00     0.187 HD
BRANCH  23  28
HETATM   28  N7  UNL     1     120.009  42.357  21.215  1.00  0.00    -0.234 N
ATOM     29  H72 UNL     1     119.942  42.532  22.218  1.00  0.00     0.174 HD
ATOM     30  H71 UNL     1     119.212  42.065  20.651  1.00  0.00     0.174 HD
ENDBRANCH  23  28
BRANCH  26  31
HETATM   31  N9  UNL     1     124.490  41.857  21.227  1.00  0.00    -0.401 NA
BRANCH  31  32
HETATM   32  C11 UNL     1     125.710  41.679  21.746  1.00  0.00     0.187 C
BRANCH  32  33
HETATM   33  C12 UNL     1     126.718  42.854  21.693  1.00  0.00     0.330 C
BRANCH  33  34
HETATM   34  N10 UNL     1     126.691  43.674  22.864  1.00  0.00     0.085 N
HETATM   35  C13 UNL     1     127.759  43.606  23.789  1.00  0.00     0.309 C
HETATM   36  C14 UNL     1     126.346  45.054  22.641  1.00  0.00     0.309 C
ENDBRANCH  33  34
ENDBRANCH  32  33
ENDBRANCH  31  32
ENDBRANCH  26  31
ENDBRANCH  18  19
ENDBRANCH  16  18
ENDBRANCH   9  16
BRANCH   7  37
HETATM   37  N3  UNL     1     124.952  39.140  19.232  1.00  0.00    -0.384 N
ATOM     38  H32 UNL     1     124.647  38.558  20.012  1.00  0.00     0.157 HD
ATOM     39  H31 UNL     1     124.189  39.772  18.985  1.00  0.00     0.157 HD
ENDBRANCH   7  37
BRANCH  12  40
HETATM   40  N12 UNL     1     129.124  42.542  15.974  1.00  0.00    -0.234 N
ATOM     41 2H12 UNL     1     128.690  43.251  15.383  1.00  0.00     0.174 HD
ATOM     42 1H12 UNL     1     130.134  42.444  16.080  1.00  0.00     0.174 HD
ENDBRANCH  12  40
TORSDOF 10
ENDMDL