MODEL 5
REMARK VINA RESULT: -8.111526566      1.421      2.541
REMARK  10 active torsions:
REMARK  status: ('A' for Active; 'I' for Inactive)
REMARK    1  A    between atoms: N1_1  and  C1_4
REMARK    2  A    between atoms: C4_9  and  N3_10
REMARK    3  A    between atoms: N3_10  and  C5_12
REMARK    4  A    between atoms: C6_15  and  C7_16
REMARK    5  A    between atoms: C7_16  and  N5_17
REMARK    6  A    between atoms: C7_16  and  C8_21
REMARK    7  A    between atoms: C8_21  and  N6_22
REMARK    8  A    between atoms: C10_29  and  N10_30
REMARK    9  A    between atoms: N10_30  and  C11_32
REMARK   10  A    between atoms: C14_35  and  C15_36
ROOT
HETATM    1  C5  UNL     1     123.932  42.243  19.298  1.00  0.00     0.712 A
HETATM    2  N4  UNL     1     124.683  42.979  20.127  1.00  0.00    -0.177 N
ATOM      3  H4  UNL     1     124.359  43.908  20.395  1.00  0.00     0.185 HD
HETATM    4  C6  UNL     1     125.853  42.527  20.617  1.00  0.00     0.145 A
HETATM    5  N9  UNL     1     126.259  41.282  20.241  1.00  0.00    -0.177 N
ATOM      6  H9  UNL     1     127.143  40.921  20.600  1.00  0.00     0.185 HD
HETATM    7  C10 UNL     1     125.535  40.521  19.416  1.00  0.00     0.698 A
HETATM    8  N12 UNL     1     124.380  41.001  18.949  1.00  0.00    -0.021 N
ATOM      9  H12 UNL     1     123.820  40.428  18.318  1.00  0.00     0.203 HD
ENDROOT
BRANCH   1  10
HETATM   10  N3  UNL     1     122.812  42.714  18.848  1.00  0.00    -0.021 N
ATOM     11  H3  UNL     1     122.712  42.909  17.851  1.00  0.00     0.203 HD
BRANCH  10  12
HETATM   12  C4  UNL     1     121.716  42.963  19.727  1.00  0.00     0.698 A
HETATM   13  N2  UNL     1     121.885  43.796  20.769  1.00  0.00    -0.201 N
HETATM   14  C3  UNL     1     120.922  44.084  21.633  1.00  0.00     0.110 A
ATOM     15  H2  UNL     1     122.799  44.228  20.900  1.00  0.00     0.183 HD
HETATM   16  C2  UNL     1     119.682  43.488  21.441  1.00  0.00     0.066 A
HETATM   17  C1  UNL     1     119.529  42.635  20.363  1.00  0.00     0.116 A
HETATM   18  N13 UNL     1     120.528  42.377  19.521  1.00  0.00    -0.176 N
ATOM     19  H13 UNL     1     120.393  41.744  18.733  1.00  0.00     0.186 HD
BRANCH  17  20
HETATM   20  N1  UNL     1     118.392  42.081  20.176  1.00  0.00    -0.385 N
ATOM     21  H12 UNL     1     117.898  42.234  19.298  1.00  0.00     0.157 HD
ATOM     22  H11 UNL     1     118.007  41.495  20.917  1.00  0.00     0.157 HD
ENDBRANCH  17  20
ENDBRANCH  10  12
ENDBRANCH   1  10
BRANCH   4  23
HETATM   23  C7  UNL     1     126.654  43.377  21.535  1.00  0.00     0.269 C
BRANCH  23  24
HETATM   24  N5  UNL     1     125.806  44.344  22.193  1.00  0.00    -0.067 N
ATOM     25  H53 UNL     1     126.000  45.295  21.879  1.00  0.00     0.275 HD
ATOM     26  H52 UNL     1     124.837  44.275  21.880  1.00  0.00     0.275 HD
ATOM     27  H51 UNL     1     125.886  44.255  23.206  1.00  0.00     0.275 HD
ENDBRANCH  23  24
BRANCH  23  28
HETATM   28  C8  UNL     1     127.702  44.086  20.675  1.00  0.00     0.162 C
BRANCH  28  29
HETATM   29  N6  UNL     1     129.001  43.518  20.850  1.00  0.00    -0.364 N
HETATM   30  C9  UNL     1     129.567  42.855  19.904  1.00  0.00     0.197 C
HETATM   31  N7  UNL     1     130.854  42.324  20.156  1.00  0.00    -0.067 NA
HETATM   32  N8  UNL     1     128.885  42.692  18.679  1.00  0.00    -0.067 NA
ATOM     33  H6  UNL     1     129.487  43.640  21.738  1.00  0.00     0.161 HD
ENDBRANCH  28  29
ENDBRANCH  23  28
ENDBRANCH   4  23
BRANCH   7  34
HETATM   34  N10 UNL     1     125.940  39.373  19.088  1.00  0.00    -0.191 N
ATOM     35  H10 UNL     1     125.507  38.581  19.564  1.00  0.00     0.184 HD
BRANCH  34  36
HETATM   36  C11 UNL     1     126.929  39.074  18.132  1.00  0.00     0.049 A
HETATM   37  C12 UNL     1     127.219  39.887  17.056  1.00  0.00     0.031 A
HETATM   38  C13 UNL     1     128.207  39.555  16.129  1.00  0.00     0.019 A
HETATM   39  C14 UNL     1     128.924  38.395  16.271  1.00  0.00     0.029 A
HETATM   40  C16 UNL     1     128.651  37.564  17.342  1.00  0.00     0.019 A
HETATM   41  C17 UNL     1     127.668  37.908  18.250  1.00  0.00     0.031 A
BRANCH  39  42
HETATM   42  C15 UNL     1     129.963  38.019  15.321  1.00  0.00     0.264 C
HETATM   43  N11 UNL     1     130.394  36.670  15.219  1.00  0.00    -0.057 NA
HETATM   44  O1  UNL     1     130.491  38.880  14.580  1.00  0.00    -0.271 OA
ENDBRANCH  39  42
ENDBRANCH  34  36
ENDBRANCH   7  34
TORSDOF 10
ENDMDL