MODEL 1
REMARK VINA RESULT: -9.249863394      0.000      0.000
REMARK  10 active torsions:
REMARK  status: ('A' for Active; 'I' for Inactive)
REMARK    1  A    between atoms: C2_3  and  C3_4
REMARK    2  A    between atoms: C2_3  and  N7_22
REMARK    3  A    between atoms: C3_4  and  C4_5
REMARK    4  A    between atoms: C4_5  and  C5_6
REMARK    5  A    between atoms: C5_6  and  N2_7
REMARK    6  A    between atoms: N2_7  and  C6_9
REMARK    7  A    between atoms: C7_14  and  N5_15
REMARK    8  A    between atoms: N7_22  and  C9_24
REMARK    9  A    between atoms: C9_24  and  C10_26
REMARK   10  A    between atoms: C14_34  and  N11_35
ROOT
HETATM    1  N1  UNL     1     125.145  40.836  22.335  1.00  0.00    -0.195 NA
HETATM    2  C1  UNL     1     124.854  41.239  21.266  1.00  0.00     0.084 C
HETATM    3  C2  UNL     1     124.474  41.712  19.949  1.00  0.00     0.190 C
ENDROOT
BRANCH   3   4
HETATM    4  C3  UNL     1     125.318  41.076  18.898  1.00  0.00     0.042 C
BRANCH   4   5
HETATM    5  C4  UNL     1     125.004  39.617  18.720  1.00  0.00     0.023 C
BRANCH   5   6
HETATM    6  C5  UNL     1     126.024  38.896  17.887  1.00  0.00     0.121 C
BRANCH   6   7
HETATM    7  N2  UNL     1     126.988  38.176  18.655  1.00  0.00    -0.371 N
ATOM      8  H2  UNL     1     126.706  37.667  19.493  1.00  0.00     0.161 HD
BRANCH   7   9
HETATM    9  C6  UNL     1     128.217  38.178  18.278  1.00  0.00     0.186 A
HETATM   10  N3  UNL     1     128.924  39.317  18.230  1.00  0.00    -0.267 N
HETATM   11  N4  UNL     1     130.194  39.336  17.843  1.00  0.00    -0.131 N
ATOM     12  H3  UNL     1     128.475  40.191  18.499  1.00  0.00     0.189 HD
HETATM   13  C7  UNL     1     130.825  38.211  17.479  1.00  0.00     0.693 A
ATOM     14  H4  UNL     1     130.698  40.223  17.822  1.00  0.00     0.205 HD
HETATM   15  N6  UNL     1     130.149  37.049  17.512  1.00  0.00    -0.152 N
HETATM   16  C8  UNL     1     128.857  37.014  17.905  1.00  0.00     0.304 A
ATOM     17  H6  UNL     1     130.617  36.184  17.238  1.00  0.00     0.188 HD
HETATM   18  O1  UNL     1     128.273  35.902  17.918  1.00  0.00    -0.263 OA
BRANCH  13  19
HETATM   19  N5  UNL     1     132.054  38.277  17.111  1.00  0.00    -0.233 N
ATOM     20  H52 UNL     1     132.804  37.831  17.639  1.00  0.00     0.174 HD
ATOM     21  H51 UNL     1     132.290  38.792  16.262  1.00  0.00     0.174 HD
ENDBRANCH  13  19
ENDBRANCH   7   9
ENDBRANCH   6   7
ENDBRANCH   5   6
ENDBRANCH   4   5
ENDBRANCH   3   4
BRANCH   3  22
HETATM   22  N7  UNL     1     124.359  43.131  19.905  1.00  0.00    -0.361 N
ATOM     23  H7  UNL     1     125.258  43.612  19.937  1.00  0.00     0.162 HD
BRANCH  22  24
HETATM   24  C9  UNL     1     123.401  43.893  19.837  1.00  0.00     0.124 C
HETATM   25  N8  UNL     1     123.510  44.752  18.639  1.00  0.00    -0.082 NA
BRANCH  24  26
HETATM   26  C10 UNL     1     122.231  44.147  20.600  1.00  0.00     0.025 A
HETATM   27  C11 UNL     1     122.238  45.236  21.510  1.00  0.00     0.033 A
HETATM   28  C12 UNL     1     121.180  45.574  22.288  1.00  0.00     0.090 A
HETATM   29  N9  UNL     1     120.061  44.864  22.218  1.00  0.00    -0.351 N
HETATM   30  C13 UNL     1     120.003  43.824  21.372  1.00  0.00     0.137 A
ATOM     31  H9  UNL     1     119.257  45.105  22.798  1.00  0.00     0.166 HD
HETATM   32  N10 UNL     1     118.852  43.103  21.304  1.00  0.00    -0.176 N
HETATM   33  C16 UNL     1     121.057  43.428  20.547  1.00  0.00     0.090 A
HETATM   34  C14 UNL     1     118.690  42.052  20.495  1.00  0.00     0.680 A
ATOM     35  H10 UNL     1     118.072  43.379  21.901  1.00  0.00     0.186 HD
HETATM   36  N12 UNL     1     119.712  41.696  19.717  1.00  0.00    -0.155 N
HETATM   37  C15 UNL     1     120.905  42.356  19.715  1.00  0.00     0.274 A
ATOM     38  H12 UNL     1     119.596  40.894  19.097  1.00  0.00     0.187 HD
HETATM   39  O2  UNL     1     121.789  41.951  18.960  1.00  0.00    -0.267 OA
BRANCH  34  40
HETATM   40  N11 UNL     1     117.554  41.407  20.484  1.00  0.00    -0.234 N
ATOM     41 2H11 UNL     1     116.987  41.296  21.324  1.00  0.00     0.174 HD
ATOM     42 1H11 UNL     1     117.210  40.996  19.616  1.00  0.00     0.174 HD
ENDBRANCH  34  40
ENDBRANCH  24  26
ENDBRANCH  22  24
ENDBRANCH   3  22
TORSDOF 10
ENDMDL