MODEL 3
REMARK VINA RESULT: -7.989218557      2.290      5.025
REMARK  11 active torsions:
REMARK  status: ('A' for Active; 'I' for Inactive)
REMARK    1  A    between atoms: C2_2  and  N1_3
REMARK       I    between atoms: C3_5  and  N2_6
REMARK       I    between atoms: C3_5  and  N3_11
REMARK    2  A    between atoms: N2_6  and  C4_7
REMARK    3  A    between atoms: C4_7  and  O1_9
REMARK    4  A    between atoms: N3_11  and  N4_13
REMARK    5  A    between atoms: N4_13  and  C6_14
REMARK    6  A    between atoms: N4_13  and  C10_28
REMARK    7  A    between atoms: C6_14  and  C7_15
REMARK    8  A    between atoms: C7_15  and  C8_16
REMARK    9  A    between atoms: C8_16  and  N5_17
REMARK       I    between atoms: N5_17  and  C9_19
REMARK       I    between atoms: C9_19  and  N7_23
REMARK   10  A    between atoms: N7_23  and  N8_25
REMARK       I    between atoms: N10_32  and  C12_33
REMARK   11  A    between atoms: C13_38  and  N13_39
ROOT
HETATM    1  N4  UNL     1     126.475  41.182  19.114  1.00  0.00    -0.274 N
ENDROOT
BRANCH   1   2
HETATM    2  N3  UNL     1     127.550  41.586  19.895  1.00  0.00    -0.256 N
HETATM    3  C3  UNL     1     127.682  42.920  20.323  1.00  0.00     0.272 C
HETATM    4  N1  UNL     1     128.787  43.532  19.895  1.00  0.00    -0.350 N
HETATM    5  N2  UNL     1     126.824  43.626  21.126  1.00  0.00    -0.350 NA
ATOM      6  H1  UNL     1     128.967  44.497  20.169  1.00  0.00     0.163 HD
ATOM      7  H3  UNL     1     128.259  40.902  20.163  1.00  0.00     0.191 HD
BRANCH   4   8
HETATM    8  C2  UNL     1     129.718  42.857  19.060  1.00  0.00     0.119 C
HETATM    9  C1  UNL     1     130.972  42.592  19.897  1.00  0.00     0.026 C
ENDBRANCH   4   8
BRANCH   5  10
HETATM   10  C4  UNL     1     125.990  44.309  21.905  1.00  0.00     0.189 C
HETATM   11  C5  UNL     1     126.595  45.044  23.128  1.00  0.00     0.114 C
BRANCH  10  12
HETATM   12  O1  UNL     1     124.705  44.490  21.839  1.00  0.00    -0.339 OA
ATOM     13  H1  UNL     1     124.186  45.168  21.421  1.00  0.00     0.220 HD
ENDBRANCH  10  12
ENDBRANCH   5  10
ENDBRANCH   1   2
BRANCH   1  14
HETATM   14  C6  UNL     1     126.641  40.592  17.834  1.00  0.00     0.152 C
BRANCH  14  15
HETATM   15  C7  UNL     1     126.046  39.204  17.799  1.00  0.00     0.042 C
BRANCH  15  16
HETATM   16  C8  UNL     1     127.208  38.281  17.411  1.00  0.00     0.140 C
BRANCH  16  17
HETATM   17  N5  UNL     1     127.908  37.912  18.604  1.00  0.00    -0.225 N
HETATM   18  C9  UNL     1     129.079  37.090  18.437  1.00  0.00     0.691 C
HETATM   19  N6  UNL     1     129.101  35.958  19.002  1.00  0.00    -0.233 N
HETATM   20  N7  UNL     1     130.107  37.653  17.650  1.00  0.00    -0.072 N
ATOM     21  H62 UNL     1     128.358  35.551  19.570  1.00  0.00     0.174 HD
ATOM     22  H61 UNL     1     129.930  35.376  18.884  1.00  0.00     0.174 HD
ATOM     23  H7  UNL     1     130.369  38.627  17.800  1.00  0.00     0.212 HD
ATOM     24  H5  UNL     1     127.593  38.215  19.525  1.00  0.00     0.177 HD
BRANCH  20  25
HETATM   25  N8  UNL     1     130.767  36.922  16.682  1.00  0.00    -0.024 N
HETATM   26  O2  UNL     1     131.795  36.251  16.953  1.00  0.00    -0.516 OA
HETATM   27  O3  UNL     1     130.348  36.881  15.368  1.00  0.00    -0.516 OA
ENDBRANCH  20  25
ENDBRANCH  16  17
ENDBRANCH  15  16
ENDBRANCH  14  15
ENDBRANCH   1  14
BRANCH   1  28
HETATM   28  C10 UNL     1     125.181  41.367  19.726  1.00  0.00     0.146 C
HETATM   29  N9  UNL     1     124.765  40.959  20.844  1.00  0.00    -0.359 N
HETATM   30  C11 UNL     1     123.380  41.366  21.080  1.00  0.00     0.253 C
ATOM     31  H9  UNL     1     125.323  40.413  21.499  1.00  0.00     0.162 HD
HETATM   32  N10 UNL     1     123.048  42.247  19.992  1.00  0.00    -0.305 N
HETATM   33  C12 UNL     1     121.915  43.086  19.829  1.00  0.00     0.187 C
HETATM   34  C13 UNL     1     124.127  42.145  19.024  1.00  0.00     0.357 C
HETATM   35  N11 UNL     1     120.765  42.603  19.524  1.00  0.00    -0.374 N
HETATM   36  N12 UNL     1     122.013  44.498  20.001  1.00  0.00    -0.064 NA
ATOM     37 2H11 UNL     1     120.695  41.593  19.399  1.00  0.00     0.158 HD
ATOM     38 1H11 UNL     1     119.950  43.206  19.407  1.00  0.00     0.158 HD
BRANCH  34  39
HETATM   39  N13 UNL     1     124.653  43.468  18.808  1.00  0.00    -0.051 N
ATOM     40 3H13 UNL     1     124.351  44.139  19.513  1.00  0.00     0.277 HD
ATOM     41 2H13 UNL     1     125.655  43.535  18.987  1.00  0.00     0.277 HD
ATOM     42 1H13 UNL     1     124.396  43.740  17.859  1.00  0.00     0.277 HD
ENDBRANCH  34  39
ENDBRANCH   1  28
TORSDOF 11
ENDMDL