MODEL 1
REMARK VINA RESULT: -8.252099636      0.000      0.000
REMARK  11 active torsions:
REMARK  status: ('A' for Active; 'I' for Inactive)
REMARK    1  A    between atoms: C2_2  and  S1_3
REMARK    2  A    between atoms: S1_3  and  C3_6
REMARK    3  A    between atoms: C6_9  and  N1_10
REMARK    4  A    between atoms: N1_10  and  C7_12
REMARK    5  A    between atoms: C9_17  and  C10_18
REMARK       I    between atoms: C10_18  and  N4_20
REMARK    6  A    between atoms: N4_20  and  N5_22
REMARK    7  A    between atoms: N5_22  and  C11_24
REMARK    8  A    between atoms: C11_24  and  C12_28
REMARK    9  A    between atoms: C12_28  and  N7_29
REMARK   10  A    between atoms: C12_28  and  N8_33
REMARK   11  A    between atoms: C13_37  and  N9_38
ROOT
HETATM    1  C7  UNL     1     126.583  42.358  18.706  1.00  0.00     0.685 A
HETATM    2  N2  UNL     1     125.411  42.815  18.239  1.00  0.00    -0.177 N
ATOM      3  H2  UNL     1     125.385  43.218  17.303  1.00  0.00     0.185 HD
HETATM    4  C8  UNL     1     124.285  42.765  18.941  1.00  0.00     0.151 A
HETATM    5  N3  UNL     1     123.054  43.266  18.405  1.00  0.00    -0.081 NA
HETATM    6  C9  UNL     1     124.269  42.217  20.239  1.00  0.00     0.119 A
HETATM    7  C13 UNL     1     125.460  41.749  20.719  1.00  0.00     0.134 A
HETATM    8  N10 UNL     1     126.562  41.840  19.935  1.00  0.00    -0.176 N
ATOM      9  H10 UNL     1     127.440  41.487  20.313  1.00  0.00     0.186 HD
ENDROOT
BRANCH   6  10
HETATM   10  C10 UNL     1     123.047  42.174  20.966  1.00  0.00     0.277 C
HETATM   11  O3  UNL     1     122.768  41.063  21.568  1.00  0.00    -0.266 OA
HETATM   12  N4  UNL     1     122.105  43.179  21.119  1.00  0.00    -0.264 N
ATOM     13  H4  UNL     1     122.254  44.086  20.675  1.00  0.00     0.190 HD
BRANCH  12  14
HETATM   14  N5  UNL     1     120.915  42.953  21.901  1.00  0.00    -0.283 N
ATOM     15  H5  UNL     1     120.965  42.416  22.768  1.00  0.00     0.188 HD
BRANCH  14  16
HETATM   16  C11 UNL     1     119.687  43.475  21.463  1.00  0.00     0.148 C
HETATM   17  N6  UNL     1     119.220  44.558  21.976  1.00  0.00    -0.385 N
ATOM     18  H62 UNL     1     119.749  45.038  22.704  1.00  0.00     0.157 HD
ATOM     19  H61 UNL     1     118.328  44.936  21.657  1.00  0.00     0.157 HD
BRANCH  16  20
HETATM   20  C12 UNL     1     118.920  42.777  20.404  1.00  0.00     0.445 C
BRANCH  20  21
HETATM   21  N7  UNL     1     119.860  42.309  19.399  1.00  0.00    -0.043 N
ATOM     22  H73 UNL     1     119.414  42.112  18.504  1.00  0.00     0.277 HD
ATOM     23  H72 UNL     1     120.492  43.043  19.078  1.00  0.00     0.277 HD
ATOM     24  H71 UNL     1     120.355  41.502  19.778  1.00  0.00     0.277 HD
ENDBRANCH  20  21
BRANCH  20  25
HETATM   25  N8  UNL     1     118.189  41.645  20.938  1.00  0.00    -0.043 N
ATOM     26  H83 UNL     1     118.821  40.932  21.303  1.00  0.00     0.277 HD
ATOM     27  H82 UNL     1     117.707  41.887  21.803  1.00  0.00     0.277 HD
ATOM     28  H81 UNL     1     117.546  41.257  20.247  1.00  0.00     0.277 HD
ENDBRANCH  20  25
ENDBRANCH  16  20
ENDBRANCH  14  16
ENDBRANCH  12  14
ENDBRANCH   6  10
BRANCH   7  29
HETATM   29  N9  UNL     1     125.575  41.224  21.899  1.00  0.00    -0.384 N
ATOM     30  H92 UNL     1     125.117  41.682  22.687  1.00  0.00     0.157 HD
ATOM     31  H91 UNL     1     126.106  40.369  22.068  1.00  0.00     0.157 HD
ENDBRANCH   7  29
BRANCH   1  32
HETATM   32  N1  UNL     1     127.676  42.397  18.043  1.00  0.00    -0.192 N
ATOM     33  H1  UNL     1     128.016  43.322  17.778  1.00  0.00     0.184 HD
BRANCH  32  34
HETATM   34  C6  UNL     1     128.458  41.301  17.639  1.00  0.00     0.049 A
HETATM   35  C5  UNL     1     129.686  41.003  18.192  1.00  0.00     0.031 A
HETATM   36  C4  UNL     1     130.412  39.912  17.764  1.00  0.00     0.026 A
HETATM   37  C3  UNL     1     129.966  39.065  16.772  1.00  0.00     0.059 A
HETATM   38  C15 UNL     1     128.736  39.369  16.221  1.00  0.00     0.026 A
HETATM   39  C14 UNL     1     127.996  40.456  16.638  1.00  0.00     0.031 A
BRANCH  37  40
HETATM   40  S1  UNL     1     130.913  37.691  16.257  1.00  0.00     0.175 S
HETATM   41  O1  UNL     1     132.149  38.147  15.495  1.00  0.00    -0.223 OA
HETATM   42  O2  UNL     1     130.170  36.772  15.365  1.00  0.00    -0.223 OA
BRANCH  40  43
HETATM   43  C2  UNL     1     131.532  36.823  17.703  1.00  0.00     0.141 C
HETATM   44  C1  UNL     1     133.015  37.089  17.840  1.00  0.00     0.021 C
ENDBRANCH  40  43
ENDBRANCH  37  40
ENDBRANCH  32  34
ENDBRANCH   1  32
TORSDOF 11
ENDMDL