MODEL 5
REMARK VINA RESULT: -7.558711102      2.218      2.853
REMARK  11 active torsions:
REMARK  status: ('A' for Active; 'I' for Inactive)
REMARK    1  A    between atoms: C2_2  and  C7_15
REMARK    2  A    between atoms: C3_3  and  C4_4
REMARK    3  A    between atoms: C4_4  and  C5_5
REMARK    4  A    between atoms: C5_5  and  C6_6
REMARK    5  A    between atoms: C6_6  and  N1_7
REMARK    6  A    between atoms: C6_6  and  N2_11
REMARK    7  A    between atoms: C7_15  and  N3_16
REMARK    8  A    between atoms: N3_16  and  C8_18
REMARK    9  A    between atoms: C8_18  and  C9_22
REMARK   10  A    between atoms: C13_31  and  N7_32
REMARK   11  A    between atoms: C18_44  and  O2_45
ROOT
HETATM    1  C9  UNL     1     125.398  41.528  20.265  1.00  0.00     0.309 C
HETATM    2  N5  UNL     1     126.345  42.290  19.508  1.00  0.00    -0.055 N
ATOM      3  H51 UNL     1     125.869  42.950  18.894  1.00  0.00     0.278 HD
ATOM      4  H52 UNL     1     126.800  41.705  18.806  1.00  0.00     0.278 HD
HETATM    5  C10 UNL     1     127.325  42.966  20.321  1.00  0.00     0.281 C
HETATM    6  C11 UNL     1     126.702  43.908  21.283  1.00  0.00     0.080 A
HETATM    7  C12 UNL     1     125.375  44.142  21.602  1.00  0.00     0.136 A
HETATM    8  N6  UNL     1     125.003  45.060  22.517  1.00  0.00    -0.176 N
ATOM      9  H6  UNL     1     124.019  45.215  22.736  1.00  0.00     0.186 HD
HETATM   10  C13 UNL     1     125.972  45.765  23.134  1.00  0.00     0.680 A
HETATM   11  N8  UNL     1     127.267  45.564  22.850  1.00  0.00    -0.156 N
ATOM     12  H8  UNL     1     127.972  46.117  23.337  1.00  0.00     0.187 HD
HETATM   13  C14 UNL     1     127.665  44.645  21.930  1.00  0.00     0.271 A
HETATM   14  O1  UNL     1     128.897  44.510  21.714  1.00  0.00    -0.267 OA
HETATM   15  N9  UNL     1     124.248  43.510  21.070  1.00  0.00    -0.304 N
HETATM   16  C15 UNL     1     122.929  44.108  20.969  1.00  0.00     0.401 C
HETATM   17  N10 UNL     1     122.333  43.510  19.787  1.00  0.00     0.106 N
HETATM   18  C16 UNL     1     120.995  43.063  20.072  1.00  0.00     0.312 C
HETATM   19  C17 UNL     1     123.208  42.427  19.364  1.00  0.00     0.337 C
HETATM   20  C18 UNL     1     124.101  42.187  20.513  1.00  0.00     0.199 C
ENDROOT
BRANCH   1  21
HETATM   21  C8  UNL     1     125.220  40.179  19.686  1.00  0.00     0.107 C
HETATM   22  N4  UNL     1     124.873  39.201  20.450  1.00  0.00    -0.387 N
ATOM     23  H42 UNL     1     124.750  38.271  20.050  1.00  0.00     0.157 HD
ATOM     24  H41 UNL     1     124.744  39.397  21.442  1.00  0.00     0.157 HD
BRANCH  21  25
HETATM   25  N3  UNL     1     125.400  39.906  18.307  1.00  0.00    -0.374 N
ATOM     26  H3  UNL     1     124.804  40.414  17.654  1.00  0.00     0.161 HD
BRANCH  25  27
HETATM   27  C7  UNL     1     126.347  38.978  17.741  1.00  0.00     0.154 C
BRANCH  27  28
HETATM   28  C2  UNL     1     127.665  39.555  17.418  1.00  0.00    -0.070 C
HETATM   29  C1  UNL     1     127.746  40.927  16.785  1.00  0.00     0.044 C
HETATM   30  C3  UNL     1     128.792  38.949  17.616  1.00  0.00    -0.023 C
BRANCH  30  31
HETATM   31  C4  UNL     1     128.944  37.622  18.216  1.00  0.00     0.031 C
BRANCH  31  32
HETATM   32  C5  UNL     1     130.294  37.040  17.788  1.00  0.00     0.066 C
BRANCH  32  33
HETATM   33  C6  UNL     1     130.678  37.728  16.494  1.00  0.00     0.378 C
BRANCH  33  34
HETATM   34  N1  UNL     1     130.295  36.933  15.353  1.00  0.00    -0.051 N
ATOM     35  H13 UNL     1     131.094  36.724  14.755  1.00  0.00     0.276 HD
ATOM     36  H12 UNL     1     130.051  35.980  15.624  1.00  0.00     0.276 HD
ATOM     37  H11 UNL     1     129.542  37.382  14.832  1.00  0.00     0.276 HD
ENDBRANCH  33  34
BRANCH  33  38
HETATM   38  N2  UNL     1     132.119  37.926  16.496  1.00  0.00    -0.051 N
ATOM     39  H23 UNL     1     132.634  37.069  16.297  1.00  0.00     0.276 HD
ATOM     40  H22 UNL     1     132.442  38.470  15.695  1.00  0.00     0.276 HD
ATOM     41  H21 UNL     1     132.382  38.345  17.388  1.00  0.00     0.276 HD
ENDBRANCH  33  38
ENDBRANCH  32  33
ENDBRANCH  31  32
ENDBRANCH  30  31
ENDBRANCH  27  28
ENDBRANCH  25  27
ENDBRANCH  21  25
ENDBRANCH   1  21
BRANCH  20  42
HETATM   42  O2  UNL     1     123.399  41.398  21.453  1.00  0.00    -0.367 OA
ATOM     43  H2  UNL     1     123.827  41.510  22.294  1.00  0.00     0.212 HD
ENDBRANCH  20  42
BRANCH  10  44
HETATM   44  N7  UNL     1     125.578  46.642  24.009  1.00  0.00    -0.234 N
ATOM     45  H72 UNL     1     125.139  46.375  24.891  1.00  0.00     0.174 HD
ATOM     46  H71 UNL     1     125.732  47.621  23.769  1.00  0.00     0.174 HD
ENDBRANCH  10  44
TORSDOF 11
ENDMDL