MODEL 1
REMARK VINA RESULT: -8.085327653      0.000      0.000
REMARK  9 active torsions:
REMARK  status: ('A' for Active; 'I' for Inactive)
REMARK    1  A    between atoms: C4_8  and  N3_9
REMARK    2  A    between atoms: N3_9  and  C5_11
REMARK    3  A    between atoms: C5_11  and  C6_12
REMARK    4  A    between atoms: C6_12  and  N4_13
REMARK       I    between atoms: N4_13  and  C7_15
REMARK       I    between atoms: C7_15  and  N5_16
REMARK    5  A    between atoms: C8_22  and  N8_23
REMARK    6  A    between atoms: N8_23  and  N9_25
REMARK    7  A    between atoms: C10_29  and  C11_30
REMARK    8  A    between atoms: N11_31  and  N12_33
REMARK    9  A    between atoms: C15_42  and  N16_43
ROOT
HETATM    1  C1  UNL     1     118.771  43.579  21.498  1.00  0.00     0.072 C
HETATM    2  C2  UNL     1     120.171  43.500  20.990  1.00  0.00     0.051 A
HETATM    3  N1  UNL     1     121.178  44.197  21.539  1.00  0.00    -0.341 N
ATOM      4  H1  UNL     1     120.989  44.807  22.334  1.00  0.00     0.167 HD
HETATM    5  C3  UNL     1     122.443  44.105  21.056  1.00  0.00     0.152 A
HETATM    6  N2  UNL     1     123.457  44.803  21.602  1.00  0.00    -0.174 N
ATOM      7  H2  UNL     1     123.230  45.404  22.394  1.00  0.00     0.186 HD
HETATM    8  C4  UNL     1     124.736  44.783  21.204  1.00  0.00     0.685 A
HETATM    9  N7  UNL     1     124.968  43.944  20.118  1.00  0.00    -0.173 N
ATOM     10  H7  UNL     1     125.921  43.878  19.757  1.00  0.00     0.186 HD
HETATM   11  C8  UNL     1     124.029  43.227  19.525  1.00  0.00     0.166 A
HETATM   12  C14 UNL     1     122.733  43.292  19.985  1.00  0.00     0.125 A
HETATM   13  N15 UNL     1     121.731  42.580  19.418  1.00  0.00    -0.335 N
ATOM     14  H15 UNL     1     121.922  41.970  18.623  1.00  0.00     0.168 HD
HETATM   15  C15 UNL     1     120.479  42.680  19.907  1.00  0.00     0.122 A
ENDROOT
BRANCH  11  16
HETATM   16  N8  UNL     1     124.283  42.451  18.511  1.00  0.00    -0.276 N
ATOM     17  H8  UNL     1     123.801  42.613  17.626  1.00  0.00     0.189 HD
BRANCH  16  18
HETATM   18  N9  UNL     1     125.199  41.401  18.605  1.00  0.00    -0.259 N
HETATM   19  C9  UNL     1     124.976  40.222  19.234  1.00  0.00     0.206 A
HETATM   20  N10 UNL     1     126.081  39.458  19.123  1.00  0.00    -0.349 N
HETATM   21  C10 UNL     1     127.018  40.123  18.430  1.00  0.00     0.067 A
ATOM     22  H10 UNL     1     126.187  38.519  19.506  1.00  0.00     0.167 HD
HETATM   23  C13 UNL     1     126.446  41.336  18.117  1.00  0.00     0.148 A
BRANCH  21  24
HETATM   24  C11 UNL     1     128.339  39.628  18.104  1.00  0.00     0.138 C
HETATM   25  N11 UNL     1     128.684  38.390  18.263  1.00  0.00    -0.308 N
ATOM     26  H11 UNL     1     127.993  37.737  18.634  1.00  0.00     0.186 HD
BRANCH  25  27
HETATM   27  N12 UNL     1     129.942  37.913  17.955  1.00  0.00    -0.276 N
HETATM   28  C12 UNL     1     130.246  37.219  16.940  1.00  0.00     0.215 C
HETATM   29  N13 UNL     1     129.257  36.860  15.991  1.00  0.00    -0.065 NA
HETATM   30  N14 UNL     1     131.578  36.784  16.727  1.00  0.00    -0.065 NA
ATOM     31  H12 UNL     1     130.696  38.141  18.603  1.00  0.00     0.189 HD
ENDBRANCH  25  27
ENDBRANCH  21  24
ENDBRANCH  16  18
ENDBRANCH  11  16
BRANCH   8  32
HETATM   32  N3  UNL     1     125.715  45.393  21.654  1.00  0.00    -0.204 N
ATOM     33  H3  UNL     1     126.124  45.971  20.920  1.00  0.00     0.183 HD
BRANCH  32  34
HETATM   34  C5  UNL     1     126.428  45.548  22.804  1.00  0.00     0.098 C
BRANCH  34  35
HETATM   35  C6  UNL     1     127.746  44.858  23.009  1.00  0.00     0.167 C
BRANCH  35  36
HETATM   36  N4  UNL     1     127.741  43.573  22.300  1.00  0.00    -0.360 N
HETATM   37  C7  UNL     1     127.065  42.474  22.905  1.00  0.00     0.182 C
HETATM   38  N5  UNL     1     127.447  42.077  24.071  1.00  0.00    -0.374 N
HETATM   39  N6  UNL     1     125.995  41.804  22.283  1.00  0.00    -0.064 NA
ATOM     40  H52 UNL     1     128.223  42.562  24.523  1.00  0.00     0.158 HD
ATOM     41  H51 UNL     1     126.963  41.291  24.503  1.00  0.00     0.158 HD
ATOM     42  H4  UNL     1     128.210  43.469  21.400  1.00  0.00     0.162 HD
ENDBRANCH  35  36
ENDBRANCH  34  35
ENDBRANCH  32  34
ENDBRANCH   8  32
BRANCH  15  43
HETATM   43  N16 UNL     1     119.554  41.992  19.347  1.00  0.00    -0.384 N
ATOM     44 2H16 UNL     1     118.836  41.577  19.941  1.00  0.00     0.157 HD
ATOM     45 1H16 UNL     1     119.554  41.875  18.334  1.00  0.00     0.157 HD
ENDBRANCH  15  43
TORSDOF 9
ENDMDL