MODEL 4
REMARK VINA RESULT: -8.232518998      2.923      6.883
REMARK  11 active torsions:
REMARK  status: ('A' for Active; 'I' for Inactive)
REMARK       I    between atoms: C2_2  and  N1_4
REMARK    1  A    between atoms: N1_4  and  C3_6
REMARK    2  A    between atoms: C3_6  and  C4_7
REMARK    3  A    between atoms: C4_7  and  N2_8
REMARK    4  A    between atoms: N2_8  and  C5_10
REMARK    5  A    between atoms: C6_13  and  C7_14
REMARK    6  A    between atoms: C7_14  and  O2_15
REMARK    7  A    between atoms: C7_14  and  N4_17
REMARK    8  A    between atoms: N4_17  and  N5_19
REMARK    9  A    between atoms: C10_26  and  N8_27
REMARK   10  A    between atoms: C11_32  and  N10_33
REMARK   11  A    between atoms: N10_33  and  C12_35
ROOT
HETATM    1  C5  UNL     1     128.616  41.346  15.288  1.00  0.00     0.679 A
HETATM    2  N3  UNL     1     129.487  40.435  14.860  1.00  0.00    -0.185 N
ATOM      3  H3  UNL     1     130.084  40.684  14.072  1.00  0.00     0.184 HD
HETATM    4  C6  UNL     1     129.639  39.180  15.405  1.00  0.00     0.131 A
HETATM    5  C9  UNL     1     128.842  38.852  16.458  1.00  0.00     0.112 A
HETATM    6  N7  UNL     1     128.929  37.667  17.084  1.00  0.00    -0.187 N
ATOM      7  H7  UNL     1     129.599  36.970  16.760  1.00  0.00     0.184 HD
HETATM    8  C10 UNL     1     128.131  37.394  18.143  1.00  0.00     0.678 A
HETATM    9  N9  UNL     1     127.244  38.310  18.578  1.00  0.00    -0.175 N
ATOM     10  H9  UNL     1     126.648  38.093  19.377  1.00  0.00     0.186 HD
HETATM   11  C11 UNL     1     127.134  39.500  17.981  1.00  0.00     0.148 A
HETATM   12  C16 UNL     1     127.932  39.826  16.890  1.00  0.00     0.123 A
HETATM   13  N12 UNL     1     127.820  41.044  16.320  1.00  0.00    -0.186 N
ATOM     14  H12 UNL     1     127.142  41.721  16.670  1.00  0.00     0.184 HD
ENDROOT
BRANCH   1  15
HETATM   15  N2  UNL     1     128.548  42.518  14.699  1.00  0.00    -0.224 N
ATOM     16  H2  UNL     1     128.098  43.303  15.169  1.00  0.00     0.177 HD
BRANCH  15  17
HETATM   17  C4  UNL     1     129.108  42.686  13.395  1.00  0.00     0.157 C
BRANCH  17  18
HETATM   18  C3  UNL     1     128.132  42.452  12.284  1.00  0.00     0.143 C
BRANCH  18  19
HETATM   19  N1  UNL     1     127.274  43.617  12.072  1.00  0.00    -0.360 N
HETATM   20  C2  UNL     1     126.180  43.551  11.169  1.00  0.00     0.213 C
HETATM   21  C1  UNL     1     125.317  44.741  10.963  1.00  0.00     0.117 C
HETATM   22  O1  UNL     1     125.905  42.508  10.527  1.00  0.00    -0.274 OA
ATOM     23  H1  UNL     1     127.464  44.483  12.576  1.00  0.00     0.162 HD
ENDBRANCH  18  19
ENDBRANCH  17  18
ENDBRANCH  15  17
ENDBRANCH   1  15
BRANCH   4  24
HETATM   24  C7  UNL     1     130.631  38.301  14.852  1.00  0.00     0.185 C
BRANCH  24  25
HETATM   25  O2  UNL     1     131.465  37.842  15.742  1.00  0.00    -0.343 OA
ATOM     26  H2  UNL     1     132.190  38.432  15.917  1.00  0.00     0.219 HD
ENDBRANCH  24  25
BRANCH  24  27
HETATM   27  N4  UNL     1     130.872  37.861  13.555  1.00  0.00    -0.278 N
ATOM     28  H4  UNL     1     130.818  36.864  13.346  1.00  0.00     0.189 HD
BRANCH  27  29
HETATM   29  N5  UNL     1     131.186  38.763  12.531  1.00  0.00    -0.297 N
HETATM   30  C8  UNL     1     130.338  39.409  11.855  1.00  0.00     0.207 C
HETATM   31  N6  UNL     1     130.755  40.294  10.847  1.00  0.00    -0.095 NA
ATOM     32  H5  UNL     1     132.172  38.908  12.316  1.00  0.00     0.187 HD
ENDBRANCH  27  29
ENDBRANCH  24  27
ENDBRANCH   4  24
BRANCH  11  33
HETATM   33  N10 UNL     1     126.289  40.389  18.387  1.00  0.00    -0.346 N
ATOM     34  H10 UNL     1     126.260  41.301  17.931  1.00  0.00     0.163 HD
BRANCH  33  35
HETATM   35  C12 UNL     1     125.389  40.109  19.474  1.00  0.00     0.285 C
HETATM   36  C13 UNL     1     124.018  40.620  19.196  1.00  0.00     0.056 C
HETATM   37  C14 UNL     1     123.823  41.785  20.107  1.00  0.00     0.031 C
HETATM   38  C15 UNL     1     124.844  41.576  21.201  1.00  0.00     0.235 C
HETATM   39  N11 UNL     1     125.896  40.779  20.651  1.00  0.00    -0.054 N
ATOM     40 2H11 UNL     1     126.293  40.131  21.331  1.00  0.00     0.279 HD
ATOM     41 1H11 UNL     1     126.741  41.319  20.463  1.00  0.00     0.279 HD
ENDBRANCH  33  35
ENDBRANCH  11  33
BRANCH   8  42
HETATM   42  N8  UNL     1     128.255  36.248  18.702  1.00  0.00    -0.234 N
ATOM     43  H82 UNL     1     129.029  36.033  19.332  1.00  0.00     0.174 HD
ATOM     44  H81 UNL     1     127.547  35.542  18.499  1.00  0.00     0.174 HD
ENDBRANCH   8  42
TORSDOF 11
ENDMDL