MODEL 2
REMARK VINA RESULT: -9.131250273      2.291      3.610
REMARK  9 active torsions:
REMARK  status: ('A' for Active; 'I' for Inactive)
REMARK    1  A    between atoms: N1_1  and  C1_4
REMARK    2  A    between atoms: C5_16  and  N5_17
REMARK    3  A    between atoms: C6_19  and  C7_20
REMARK    4  A    between atoms: C7_20  and  C8_21
REMARK    5  A    between atoms: C8_21  and  N6_22
REMARK    6  A    between atoms: C11_25  and  N7_26
REMARK    7  A    between atoms: C11_25  and  C12_30
REMARK    8  A    between atoms: C12_30  and  N8_31
REMARK    9  A    between atoms: N8_31  and  C13_33
ROOT
HETATM    1  N5  UNL     1     128.694  39.169  16.471  1.00  0.00    -0.351 N
ATOM      2  H5  UNL     1     128.868  39.470  15.512  1.00  0.00     0.166 HD
HETATM    3  C6  UNL     1     127.379  39.330  16.706  1.00  0.00     0.064 C
ENDROOT
BRANCH   3   4
HETATM    4  C7  UNL     1     126.851  38.750  17.982  1.00  0.00     0.065 C
BRANCH   4   5
HETATM    5  C8  UNL     1     125.411  39.174  18.237  1.00  0.00     0.132 C
BRANCH   5   6
HETATM    6  N6  UNL     1     125.300  40.303  19.086  1.00  0.00    -0.373 N
HETATM    7  C9  UNL     1     125.472  41.561  18.539  1.00  0.00     0.065 C
HETATM    8  C10 UNL     1     125.020  42.754  19.281  1.00  0.00     0.085 C
HETATM    9  C11 UNL     1     123.880  42.431  20.215  1.00  0.00     0.148 C
HETATM   10  C14 UNL     1     124.356  41.314  21.115  1.00  0.00     0.085 C
HETATM   11  C15 UNL     1     124.779  40.107  20.361  1.00  0.00     0.065 C
BRANCH   9  12
HETATM   12  N7  UNL     1     123.633  43.609  21.032  1.00  0.00    -0.068 N
ATOM     13  H73 UNL     1     123.644  43.408  22.032  1.00  0.00     0.275 HD
ATOM     14  H72 UNL     1     124.410  44.270  21.019  1.00  0.00     0.275 HD
ATOM     15  H71 UNL     1     122.755  44.023  20.721  1.00  0.00     0.275 HD
ENDBRANCH   9  12
BRANCH   9  16
HETATM   16  C12 UNL     1     122.635  41.984  19.495  1.00  0.00     0.177 C
BRANCH  16  17
HETATM   17  N8  UNL     1     121.660  43.044  19.373  1.00  0.00    -0.221 N
ATOM     18  H8  UNL     1     121.943  43.913  18.920  1.00  0.00     0.177 HD
BRANCH  17  19
HETATM   19  C13 UNL     1     120.452  42.945  19.807  1.00  0.00     0.709 A
HETATM   20  N9  UNL     1     119.485  42.074  19.503  1.00  0.00    -0.115 N
HETATM   21  N10 UNL     1     118.432  42.380  20.209  1.00  0.00    -0.213 N
ATOM     22  H9  UNL     1     119.558  41.306  18.836  1.00  0.00     0.207 HD
HETATM   23  N11 UNL     1     118.703  43.418  20.951  1.00  0.00    -0.213 N
ATOM     24  H10 UNL     1     117.539  41.887  20.185  1.00  0.00     0.210 HD
HETATM   25  N12 UNL     1     119.933  43.782  20.724  1.00  0.00    -0.115 N
ATOM     26  H11 UNL     1     118.059  43.869  21.602  1.00  0.00     0.210 HD
ATOM     27  H12 UNL     1     120.419  44.565  21.165  1.00  0.00     0.207 HD
ENDBRANCH  17  19
ENDBRANCH  16  17
ENDBRANCH   9  16
ENDBRANCH   5   6
ENDBRANCH   4   5
ENDBRANCH   3   4
BRANCH   1  28
HETATM   28  C5  UNL     1     129.773  38.809  16.940  1.00  0.00     0.176 A
HETATM   29  C4  UNL     1     130.202  37.509  16.570  1.00  0.00     0.290 A
HETATM   30  N4  UNL     1     131.338  36.970  16.989  1.00  0.00    -0.314 N
HETATM   31  O1  UNL     1     129.459  36.853  15.813  1.00  0.00    -0.264 OA
HETATM   32  C3  UNL     1     132.173  37.652  17.814  1.00  0.00     0.125 A
ATOM     33  H4  UNL     1     131.589  36.029  16.686  1.00  0.00     0.169 HD
HETATM   34  C2  UNL     1     133.357  37.121  18.263  1.00  0.00     0.145 A
HETATM   35  C16 UNL     1     131.747  38.915  18.167  1.00  0.00     0.153 A
HETATM   36  N2  UNL     1     134.121  37.895  19.088  1.00  0.00    -0.175 N
HETATM   37  N3  UNL     1     133.761  35.953  17.942  1.00  0.00    -0.383 N
HETATM   38  C1  UNL     1     133.720  39.112  19.434  1.00  0.00     0.679 A
ATOM     39  H2  UNL     1     135.007  37.536  19.442  1.00  0.00     0.186 HD
HETATM   40  N14 UNL     1     132.567  39.628  18.995  1.00  0.00    -0.174 N
ATOM     41  H14 UNL     1     132.295  40.567  19.284  1.00  0.00     0.186 HD
ATOM     42  H32 UNL     1     134.640  35.559  18.276  1.00  0.00     0.157 HD
ATOM     43  H31 UNL     1     133.190  35.374  17.327  1.00  0.00     0.157 HD
HETATM   44  N13 UNL     1     130.594  39.468  17.746  1.00  0.00    -0.322 N
ATOM     45  H13 UNL     1     130.349  40.410  18.052  1.00  0.00     0.169 HD
BRANCH  38  46
HETATM   46  N1  UNL     1     134.478  39.797  20.213  1.00  0.00    -0.234 N
ATOM     47  H12 UNL     1     135.347  39.396  20.564  1.00  0.00     0.174 HD
ATOM     48  H11 UNL     1     134.180  40.741  20.462  1.00  0.00     0.174 HD
ENDBRANCH  38  46
ENDBRANCH   1  28
TORSDOF 9
ENDMDL