MODEL 4
REMARK VINA RESULT: -6.215261953      4.405      7.549
REMARK  7 active torsions:
REMARK  status: ('A' for Active; 'I' for Inactive)
REMARK    1  A    between atoms: C1_2  and  C2_4
REMARK    2  A    between atoms: N2_6  and  C4_7
REMARK    3  A    between atoms: N3_11  and  C8_12
REMARK    4  A    between atoms: C8_12  and  C9_13
REMARK    5  A    between atoms: C9_13  and  S1_14
REMARK    6  A    between atoms: S1_14  and  C10_15
REMARK    7  A    between atoms: C10_15  and  C11_16
ROOT
HETATM    1  C4  UNL     1     107.154  23.589  21.128  1.00  0.00     0.118 C
HETATM    2  C5  UNL     1     107.951  24.102  19.963  1.00  0.00     0.029 C
HETATM    3  C6  UNL     1     107.098  24.125  18.694  1.00  0.00     0.032 C
HETATM    4  C7  UNL     1     105.669  24.196  19.175  1.00  0.00     0.272 C
HETATM    5  N3  UNL     1     105.288  22.936  19.682  1.00  0.00     0.091 N
HETATM    6  C12 UNL     1     106.171  22.523  20.730  1.00  0.00     0.298 C
ENDROOT
BRANCH   1   7
HETATM    7  N2  UNL     1     108.051  23.011  22.108  1.00  0.00    -0.344 N
HETATM    8  C3  UNL     1     107.952  21.742  22.604  1.00  0.00     0.127 A
HETATM    9  C2  UNL     1     108.949  21.497  23.517  1.00  0.00     0.114 A
HETATM   10  N4  UNL     1     109.666  22.631  23.579  1.00  0.00    -0.347 N
HETATM   11  C13 UNL     1     109.116  23.534  22.726  1.00  0.00     0.183 A
ATOM     12  H4  UNL     1     110.486  22.788  24.166  1.00  0.00     0.167 HD
BRANCH   9  13
HETATM   13  C1  UNL     1     109.119  20.249  24.223  1.00  0.00     0.282 C
HETATM   14  N1  UNL     1     110.081  19.282  23.851  1.00  0.00    -0.056 NA
HETATM   15  O1  UNL     1     108.371  20.012  25.219  1.00  0.00    -0.269 OA
ENDBRANCH   9  13
ENDBRANCH   1   7
BRANCH   5  16
HETATM   16  C8  UNL     1     103.920  22.725  19.939  1.00  0.00     0.282 C
BRANCH  16  17
HETATM   17  C9  UNL     1     103.510  21.921  21.109  1.00  0.00     0.104 C
BRANCH  17  18
HETATM   18  S1  UNL     1     102.037  20.906  20.869  1.00  0.00    -0.167 SA
BRANCH  18  19
HETATM   19  C10 UNL     1     101.354  21.013  19.223  1.00  0.00     0.084 C
BRANCH  19  20
HETATM   20  C11 UNL     1      99.837  20.976  19.219  1.00  0.00     0.096 C
HETATM   21  S2  UNL     1      99.303  20.325  17.614  1.00  0.00    -0.097 SA
ENDBRANCH  19  20
ENDBRANCH  18  19
ENDBRANCH  17  18
ENDBRANCH  16  17
ENDBRANCH   5  16
TORSDOF 7
ENDMDL