MODEL 5
REMARK VINA RESULT: -7.423718567      4.770      7.804
REMARK  8 active torsions:
REMARK  status: ('A' for Active; 'I' for Inactive)
REMARK    1  A    between atoms: N1_1  and  C1_5
REMARK    2  A    between atoms: C1_5  and  C2_6
REMARK    3  A    between atoms: C2_6  and  C3_7
REMARK    4  A    between atoms: C3_7  and  C4_8
REMARK    5  A    between atoms: C5_11  and  C6_12
REMARK    6  A    between atoms: C6_12  and  N3_13
REMARK    7  A    between atoms: N3_13  and  C7_16
REMARK    8  A    between atoms: C10_19  and  N4_20
ROOT
HETATM    1  C6  UNL     1     105.800  22.645  19.812  1.00  0.00     0.291 C
ENDROOT
BRANCH   1   2
HETATM    2  C5  UNL     1     106.612  23.785  19.383  1.00  0.00     0.059 A
HETATM    3  N2  UNL     1     106.166  24.835  18.685  1.00  0.00    -0.341 N
HETATM    4  C4  UNL     1     107.178  25.674  18.464  1.00  0.00     0.123 A
ATOM      5  H2  UNL     1     105.205  24.972  18.372  1.00  0.00     0.167 HD
HETATM    6  O2  UNL     1     108.239  25.154  19.016  1.00  0.00    -0.308 OA
HETATM    7  C16 UNL     1     107.948  23.997  19.594  1.00  0.00     0.170 A
BRANCH   4   8
HETATM    8  C3  UNL     1     107.159  26.978  17.726  1.00  0.00     0.086 C
BRANCH   8   9
HETATM    9  C2  UNL     1     108.478  27.200  17.038  1.00  0.00     0.035 C
BRANCH   9  10
HETATM   10  C1  UNL     1     109.266  28.302  17.729  1.00  0.00     0.230 C
BRANCH  10  11
HETATM   11  N1  UNL     1     110.236  27.635  18.568  1.00  0.00    -0.079 N
ATOM     12  H13 UNL     1     110.731  26.879  18.094  1.00  0.00     0.274 HD
ATOM     13  H12 UNL     1     111.055  28.208  18.777  1.00  0.00     0.274 HD
ATOM     14  H11 UNL     1     109.730  27.331  19.399  1.00  0.00     0.274 HD
ENDBRANCH  10  11
ENDBRANCH   9  10
ENDBRANCH   8   9
ENDBRANCH   4   8
ENDBRANCH   1   2
BRANCH   1  15
HETATM   15  N3  UNL     1     104.884  22.993  20.890  1.00  0.00    -0.066 N
ATOM     16  H32 UNL     1     105.326  22.976  21.809  1.00  0.00     0.278 HD
ATOM     17  H31 UNL     1     104.622  23.978  20.887  1.00  0.00     0.278 HD
BRANCH  15  18
HETATM   18  C7  UNL     1     103.767  22.122  20.796  1.00  0.00     0.188 C
HETATM   19  C8  UNL     1     103.922  20.958  19.876  1.00  0.00     0.035 C
HETATM   20  C9  UNL     1     102.494  20.496  19.640  1.00  0.00     0.027 C
HETATM   21  C10 UNL     1     101.603  21.576  20.231  1.00  0.00     0.085 C
HETATM   22  C15 UNL     1     102.513  22.780  20.198  1.00  0.00     0.058 C
BRANCH  21  23
HETATM   23  N4  UNL     1     100.422  21.687  19.502  1.00  0.00    -0.385 N
HETATM   24  C11 UNL     1      99.750  20.509  19.111  1.00  0.00     0.148 C
HETATM   25  C12 UNL     1      99.322  20.657  17.665  1.00  0.00     0.187 C
HETATM   26  O1  UNL     1      99.292  21.976  17.251  1.00  0.00    -0.385 OA
HETATM   27  C13 UNL     1      98.793  22.838  18.223  1.00  0.00     0.212 C
HETATM   28  C14 UNL     1      99.735  22.915  19.424  1.00  0.00     0.084 C
ENDBRANCH  21  23
ENDBRANCH  15  18
ENDBRANCH   1  15
TORSDOF 8
ENDMDL