MODEL 3
REMARK VINA RESULT: -7.219471259      1.332      1.749
REMARK  9 active torsions:
REMARK  status: ('A' for Active; 'I' for Inactive)
REMARK    1  A    between atoms: C2_2  and  C3_3
REMARK    2  A    between atoms: C3_3  and  O1_4
REMARK    3  A    between atoms: O1_4  and  C4_5
REMARK       I    between atoms: C4_5  and  N1_7
REMARK    4  A    between atoms: N1_7  and  C5_9
REMARK    5  A    between atoms: C5_9  and  C6_10
REMARK    6  A    between atoms: C5_9  and  C7_13
REMARK    7  A    between atoms: C7_13  and  O5_15
REMARK    8  A    between atoms: O5_15  and  C9_16
REMARK    9  A    between atoms: C9_16  and  C10_18
ROOT
HETATM    1  C5  UNL     1     106.895  23.920  20.272  1.00  0.00     0.216 C
ENDROOT
BRANCH   1   2
HETATM    2  N1  UNL     1     106.973  22.853  21.249  1.00  0.00    -0.320 N
HETATM    3  C4  UNL     1     107.961  22.909  22.298  1.00  0.00     0.361 C
HETATM    4  O2  UNL     1     108.735  23.900  22.329  1.00  0.00    -0.238 OA
ATOM      5  H1  UNL     1     106.331  22.064  21.194  1.00  0.00     0.165 HD
BRANCH   3   6
HETATM    6  O1  UNL     1     108.027  21.885  23.226  1.00  0.00    -0.300 OA
BRANCH   6   7
HETATM    7  C3  UNL     1     109.224  21.587  23.878  1.00  0.00     0.207 C
BRANCH   7   8
HETATM    8  C2  UNL     1     109.269  20.149  24.239  1.00  0.00    -0.011 C
HETATM    9  C1  UNL     1     110.037  19.323  23.505  1.00  0.00     0.009 C
ENDBRANCH   7   8
ENDBRANCH   6   7
ENDBRANCH   3   6
ENDBRANCH   1   2
BRANCH   1  10
HETATM   10  C6  UNL     1     108.081  23.817  19.388  1.00  0.00     0.199 C
HETATM   11  O3  UNL     1     108.940  24.747  19.317  1.00  0.00    -0.646 OA
HETATM   12  O4  UNL     1     108.277  22.683  18.611  1.00  0.00    -0.646 OA
ENDBRANCH   1  10
BRANCH   1  13
HETATM   13  C7  UNL     1     105.653  23.667  19.451  1.00  0.00     0.161 C
HETATM   14  C8  UNL     1     105.526  24.711  18.385  1.00  0.00     0.043 C
BRANCH  13  15
HETATM   15  O5  UNL     1     104.498  23.568  20.261  1.00  0.00    -0.313 OA
BRANCH  15  16
HETATM   16  C9  UNL     1     103.385  22.838  19.937  1.00  0.00     0.263 C
HETATM   17  O6  UNL     1     102.761  23.136  18.887  1.00  0.00    -0.265 OA
BRANCH  16  18
HETATM   18  C10 UNL     1     102.907  21.730  20.773  1.00  0.00     0.085 C
HETATM   19  C11 UNL     1     103.977  21.066  21.582  1.00  0.00     0.014 C
HETATM   20  C12 UNL     1     103.171  20.250  22.577  1.00  0.00     0.001 C
HETATM   21  C13 UNL     1     101.820  20.930  22.681  1.00  0.00     0.001 C
HETATM   22  C14 UNL     1     101.961  22.226  21.875  1.00  0.00     0.014 C
ENDBRANCH  16  18
ENDBRANCH  15  16
ENDBRANCH  13  15
ENDBRANCH   1  13
TORSDOF 9
ENDMDL