MODEL 1
REMARK VINA RESULT: -6.973517231      0.000      0.000
REMARK  8 active torsions:
REMARK  status: ('A' for Active; 'I' for Inactive)
REMARK    1  A    between atoms: C2_3  and  N2_4
REMARK    2  A    between atoms: C2_3  and  C12_19
REMARK    3  A    between atoms: N2_4  and  C3_6
REMARK    4  A    between atoms: C9_12  and  N3_13
REMARK    5  A    between atoms: N3_13  and  O1_14
REMARK    6  A    between atoms: O1_14  and  C10_15
REMARK    7  A    between atoms: C10_15  and  C11_16
REMARK    8  A    between atoms: C12_19  and  C13_21
ROOT
HETATM    1  N1  UNL     1     107.704  22.412  25.599  1.00  0.00    -0.195 NA
HETATM    2  C1  UNL     1     108.347  22.056  24.677  1.00  0.00     0.092 C
HETATM    3  C2  UNL     1     109.129  21.625  23.486  1.00  0.00     0.256 C
ENDROOT
BRANCH   3   4
HETATM    4  N2  UNL     1     108.293  21.712  22.366  1.00  0.00    -0.390 N
ATOM      5  H2  UNL     1     107.991  20.864  21.887  1.00  0.00     0.155 HD
BRANCH   4   6
HETATM    6  C3  UNL     1     107.869  22.976  21.901  1.00  0.00     0.141 C
HETATM    7  C4  UNL     1     108.881  23.984  21.551  1.00  0.00     0.032 C
HETATM    8  C5  UNL     1     109.046  24.359  20.123  1.00  0.00     0.002 C
HETATM    9  C6  UNL     1     107.851  24.840  19.392  1.00  0.00     0.000 C
HETATM   10  C7  UNL     1     107.088  23.792  18.634  1.00  0.00     0.007 C
HETATM   11  C8  UNL     1     107.331  22.416  19.282  1.00  0.00     0.073 C
HETATM   12  C9  UNL     1     106.981  22.627  20.740  1.00  0.00     0.117 C
BRANCH  12  13
HETATM   13  N3  UNL     1     105.811  22.574  20.990  1.00  0.00    -0.288 NA
BRANCH  13  14
HETATM   14  O1  UNL     1     104.604  22.432  21.100  1.00  0.00    -0.199 OA
BRANCH  14  15
HETATM   15  C10 UNL     1     103.597  22.305  20.058  1.00  0.00     0.330 C
BRANCH  15  16
HETATM   16  C11 UNL     1     102.996  20.929  20.332  1.00  0.00     0.201 C
HETATM   17  O2  UNL     1     103.167  20.367  21.418  1.00  0.00    -0.646 OA
HETATM   18  O3  UNL     1     102.276  20.379  19.333  1.00  0.00    -0.646 OA
ENDBRANCH  15  16
ENDBRANCH  14  15
ENDBRANCH  13  14
ENDBRANCH  12  13
ENDBRANCH   4   6
ENDBRANCH   3   4
BRANCH   3  19
HETATM   19  C12 UNL     1     109.435  20.194  23.704  1.00  0.00     0.167 C
HETATM   20  O4  UNL     1     109.983  19.576  22.764  1.00  0.00    -0.294 OA
BRANCH  19  21
HETATM   21  C13 UNL     1     109.161  19.449  24.905  1.00  0.00     0.058 A
HETATM   22  C14 UNL     1     110.412  19.242  25.812  1.00  0.00     0.013 A
HETATM   23  C15 UNL     1     109.772  18.095  25.140  1.00  0.00     0.013 A
ENDBRANCH  19  21
ENDBRANCH   3  19
TORSDOF 8
ENDMDL