MODEL 2
REMARK VINA RESULT: -8.197730362      0.983      1.367
REMARK  6 active torsions:
REMARK  status: ('A' for Active; 'I' for Inactive)
REMARK    1  A    between atoms: C1_2  and  C2_3
REMARK       I    between atoms: C1_2  and  N1_10
REMARK    2  A    between atoms: C2_3  and  C3_4
REMARK       I    between atoms: N1_10  and  C7_12
REMARK       I    between atoms: C7_12  and  N2_14
REMARK    3  A    between atoms: N2_14  and  C8_16
REMARK    4  A    between atoms: C8_16  and  C9_17
REMARK    5  A    between atoms: C9_17  and  C10_18
REMARK    6  A    between atoms: C10_18  and  N3_19
ROOT
HETATM    1  O1  UNL     1     108.980  24.444  20.381  1.00  0.00    -0.273 OA
HETATM    2  C1  UNL     1     107.966  24.042  20.076  1.00  0.00     0.228 C
HETATM    3  N1  UNL     1     107.180  23.027  21.263  1.00  0.00    -0.279 N
ATOM      4  H1  UNL     1     106.301  22.509  21.243  1.00  0.00     0.173 HD
HETATM    5  C7  UNL     1     108.173  23.164  22.260  1.00  0.00     0.322 C
HETATM    6  O3  UNL     1     109.112  23.928  22.293  1.00  0.00    -0.247 OA
HETATM    7  N2  UNL     1     108.044  22.257  23.408  1.00  0.00    -0.343 N
ATOM      8  H2  UNL     1     107.292  21.568  23.436  1.00  0.00     0.164 HD
ENDROOT
BRANCH   7   9
HETATM    9  C8  UNL     1     108.984  22.345  24.491  1.00  0.00     0.126 C
BRANCH   9  10
HETATM   10  C9  UNL     1     108.718  21.374  25.593  1.00  0.00     0.040 C
BRANCH  10  11
HETATM   11  C10 UNL     1     108.838  19.924  25.200  1.00  0.00     0.130 C
BRANCH  11  12
HETATM   12  N3  UNL     1     110.195  19.637  24.831  1.00  0.00    -0.352 N
HETATM   13  C11 UNL     1     111.341  19.824  25.530  1.00  0.00     0.108 A
HETATM   14  C12 UNL     1     112.387  19.391  24.753  1.00  0.00     0.106 A
HETATM   15  N4  UNL     1     111.883  18.944  23.596  1.00  0.00    -0.361 N
HETATM   16  C13 UNL     1     110.554  19.089  23.636  1.00  0.00     0.182 A
ATOM     17  H4  UNL     1     112.420  18.561  22.819  1.00  0.00     0.166 HD
ENDBRANCH  11  12
ENDBRANCH  10  11
ENDBRANCH   9  10
ENDBRANCH   7   9
BRANCH   2  18
HETATM   18  C2  UNL     1     107.093  24.124  18.945  1.00  0.00     0.146 C
BRANCH  18  19
HETATM   19  C3  UNL     1     106.874  25.514  18.419  1.00  0.00     0.191 C
HETATM   20  O2  UNL     1     108.096  25.926  17.890  1.00  0.00    -0.375 OA
HETATM   21  C4  UNL     1     108.124  27.226  17.479  1.00  0.00     0.170 C
HETATM   22  C5  UNL     1     107.120  27.644  16.467  1.00  0.00     0.036 C
HETATM   23  C6  UNL     1     106.420  26.519  15.745  1.00  0.00     0.078 C
HETATM   24  S1  UNL     1     105.704  25.429  17.037  1.00  0.00    -0.137 SA
ENDBRANCH  18  19
ENDBRANCH   2  18
TORSDOF 6
ENDMDL