MODEL 3
REMARK VINA RESULT: -7.365404361      0.811      1.568
REMARK  8 active torsions:
REMARK  status: ('A' for Active; 'I' for Inactive)
REMARK    1  A    between atoms: S1_2  and  C1_4
REMARK    2  A    between atoms: S1_2  and  C9_16
REMARK    3  A    between atoms: C1_4  and  C2_5
REMARK    4  A    between atoms: C2_5  and  C3_6
REMARK    5  A    between atoms: C3_6  and  C4_7
REMARK    6  A    between atoms: C4_7  and  C5_8
REMARK    7  A    between atoms: C5_8  and  C6_9
REMARK    8  A    between atoms: C13_21  and  O4_22
ROOT
HETATM    1  C1  UNL     1     108.389  22.852  23.160  1.00  0.00     0.141 C
ENDROOT
BRANCH   1   2
HETATM    2  S1  UNL     1     108.354  21.713  24.497  1.00  0.00     0.153 S
HETATM    3  O1  UNL     1     108.471  22.463  25.812  1.00  0.00    -0.227 OA
HETATM    4  O2  UNL     1     106.959  21.083  24.550  1.00  0.00    -0.227 OA
BRANCH   2   5
HETATM    5  C9  UNL     1     109.493  20.399  24.420  1.00  0.00     0.161 C
HETATM    6  C10 UNL     1     108.961  19.322  25.406  1.00  0.00     0.190 C
HETATM    7  O3  UNL     1     109.659  18.174  25.099  1.00  0.00    -0.390 OA
HETATM    8  C11 UNL     1     110.929  18.267  25.660  1.00  0.00     0.170 C
HETATM    9  C12 UNL     1     111.410  19.658  25.826  1.00  0.00     0.059 C
HETATM   10  C13 UNL     1     110.894  20.650  24.804  1.00  0.00     0.140 C
BRANCH  10  11
HETATM   11  O4  UNL     1     111.782  20.470  23.702  1.00  0.00    -0.394 OA
ATOM     12  H4  UNL     1     112.594  20.058  23.970  1.00  0.00     0.210 HD
ENDBRANCH  10  11
ENDBRANCH   2   5
ENDBRANCH   1   2
BRANCH   1  13
HETATM   13  C2  UNL     1     107.633  22.480  21.945  1.00  0.00     0.015 C
BRANCH  13  14
HETATM   14  C3  UNL     1     107.736  23.458  20.801  1.00  0.00     0.001 C
BRANCH  14  15
HETATM   15  C4  UNL     1     106.744  23.168  19.699  1.00  0.00     0.007 C
BRANCH  15  16
HETATM   16  C5  UNL     1     105.376  23.600  20.250  1.00  0.00     0.076 C
BRANCH  16  17
HETATM   17  C6  UNL     1     104.454  22.468  20.381  1.00  0.00     0.072 A
HETATM   18  N1  UNL     1     104.532  21.400  19.652  1.00  0.00    -0.378 N
HETATM   19  C7  UNL     1     103.500  20.481  20.013  1.00  0.00     0.140 A
ATOM     20  H1  UNL     1     105.229  21.239  18.926  1.00  0.00     0.160 HD
HETATM   21  C8  UNL     1     102.767  21.082  21.192  1.00  0.00     0.140 A
HETATM   22  N2  UNL     1     103.388  22.387  21.290  1.00  0.00    -0.378 N
ATOM     23  H2  UNL     1     103.095  23.133  21.921  1.00  0.00     0.160 HD
ENDBRANCH  16  17
ENDBRANCH  15  16
ENDBRANCH  14  15
ENDBRANCH  13  14
ENDBRANCH   1  13
TORSDOF 8
ENDMDL