MODEL 4
REMARK VINA RESULT: -7.434048425      1.709      5.756
REMARK  8 active torsions:
REMARK  status: ('A' for Active; 'I' for Inactive)
REMARK    1  A    between atoms: N1_1  and  C1_5
REMARK    2  A    between atoms: C1_5  and  C2_6
REMARK    3  A    between atoms: C3_11  and  C4_12
REMARK    4  A    between atoms: C4_12  and  C5_13
REMARK    5  A    between atoms: C5_13  and  C6_14
REMARK    6  A    between atoms: N6_21  and  C9_22
REMARK    7  A    between atoms: C9_22  and  C10_23
REMARK    8  A    between atoms: C10_23  and  C11_24
ROOT
HETATM    1  C2  UNL     1     108.218  23.110  21.922  1.00  0.00     0.125 A
HETATM    2  N2  UNL     1     109.264  23.904  21.692  1.00  0.00    -0.286 N
ATOM      3  H2  UNL     1     110.021  24.089  22.349  1.00  0.00     0.188 HD
HETATM    4  N3  UNL     1     109.163  24.408  20.485  1.00  0.00    -0.287 N
ATOM      5  H3  UNL     1     109.830  25.048  20.053  1.00  0.00     0.188 HD
HETATM    6  C3  UNL     1     108.018  23.937  19.895  1.00  0.00     0.099 A
HETATM    7  N6  UNL     1     107.453  23.139  20.799  1.00  0.00    -0.323 N
ENDROOT
BRANCH   6   8
HETATM    8  C4  UNL     1     107.578  24.337  18.533  1.00  0.00     0.084 C
BRANCH   8   9
HETATM    9  C5  UNL     1     106.710  25.581  18.594  1.00  0.00     0.066 C
BRANCH   9  10
HETATM   10  C6  UNL     1     107.529  26.676  17.977  1.00  0.00     0.025 A
HETATM   11  C7  UNL     1     107.194  27.545  16.959  1.00  0.00     0.114 A
HETATM   12  N4  UNL     1     108.222  28.378  16.708  1.00  0.00    -0.360 N
HETATM   13  C8  UNL     1     109.196  28.045  17.551  1.00  0.00     0.180 A
ATOM     14  H4  UNL     1     108.249  29.120  16.008  1.00  0.00     0.166 HD
HETATM   15  N5  UNL     1     108.783  27.017  18.321  1.00  0.00    -0.355 N
ATOM     16  H5  UNL     1     109.337  26.568  19.050  1.00  0.00     0.166 HD
ENDBRANCH   9  10
ENDBRANCH   8   9
ENDBRANCH   6   8
BRANCH   7  17
HETATM   17  C9  UNL     1     106.219  22.421  20.735  1.00  0.00     0.132 C
BRANCH  17  18
HETATM   18  C10 UNL     1     104.996  23.206  20.452  1.00  0.00     0.025 C
BRANCH  18  19
HETATM   19  C11 UNL     1     103.677  22.559  20.565  1.00  0.00    -0.009 C
HETATM   20  C12 UNL     1     102.939  22.892  19.240  1.00  0.00     0.031 C
HETATM   21  C13 UNL     1     101.599  22.200  19.224  1.00  0.00     0.168 C
HETATM   22  O1  UNL     1     101.802  20.840  19.276  1.00  0.00    -0.391 OA
HETATM   23  C14 UNL     1     102.345  20.534  20.543  1.00  0.00     0.168 C
HETATM   24  C15 UNL     1     103.772  21.031  20.531  1.00  0.00     0.031 C
ENDBRANCH  18  19
ENDBRANCH  17  18
ENDBRANCH   7  17
BRANCH   1  25
HETATM   25  C1  UNL     1     108.031  22.394  23.199  1.00  0.00     0.307 C
BRANCH  25  26
HETATM   26  N1  UNL     1     109.038  22.789  24.151  1.00  0.00    -0.073 N
ATOM     27  H13 UNL     1     109.977  22.553  23.830  1.00  0.00     0.274 HD
ATOM     28  H12 UNL     1     109.143  23.802  24.194  1.00  0.00     0.274 HD
ATOM     29  H11 UNL     1     108.840  22.389  25.068  1.00  0.00     0.274 HD
ENDBRANCH  25  26
ENDBRANCH   1  25
TORSDOF 8
ENDMDL