MODEL 2
REMARK VINA RESULT: -9.200595263      0.848      1.520
REMARK  8 active torsions:
REMARK  status: ('A' for Active; 'I' for Inactive)
REMARK    1  A    between atoms: C2_2  and  C4_4
REMARK    2  A    between atoms: C4_4  and  C5_5
REMARK    3  A    between atoms: C4_4  and  N5_14
REMARK    4  A    between atoms: C5_5  and  N1_6
REMARK       I    between atoms: N5_14  and  C7_16
REMARK    5  A    between atoms: C7_16  and  C8_18
REMARK    6  A    between atoms: C8_18  and  N6_19
REMARK    7  A    between atoms: C8_18  and  C9_23
REMARK    8  A    between atoms: C9_23  and  C10_24
ROOT
HETATM    1  N5  UNL     1     107.353  22.910  21.791  1.00  0.00    -0.353 N
ATOM      2  H5  UNL     1     106.828  22.053  21.965  1.00  0.00     0.163 HD
HETATM    3  C7  UNL     1     108.458  23.190  22.610  1.00  0.00     0.248 C
HETATM    4  O1  UNL     1     109.109  24.234  22.406  1.00  0.00    -0.271 OA
ENDROOT
BRANCH   1   5
HETATM    5  C4  UNL     1     106.912  23.786  20.696  1.00  0.00     0.109 C
BRANCH   5   6
HETATM    6  C2  UNL     1     105.515  23.463  20.359  1.00  0.00     0.002 C
HETATM    7  C1  UNL     1     105.120  22.027  20.516  1.00  0.00     0.011 C
HETATM    8  C3  UNL     1     105.044  24.048  19.045  1.00  0.00     0.011 C
ENDBRANCH   5   6
BRANCH   5   9
HETATM    9  C5  UNL     1     107.962  23.756  19.676  1.00  0.00     0.196 C
BRANCH   9  10
HETATM   10  N1  UNL     1     108.484  25.013  19.214  1.00  0.00    -0.217 N
HETATM   11  N2  UNL     1     107.910  25.800  18.305  1.00  0.00    -0.277 N
HETATM   12  C6  UNL     1     108.643  26.884  18.111  1.00  0.00     0.216 A
ATOM     13  H2  UNL     1     107.032  25.596  17.826  1.00  0.00     0.189 HD
HETATM   14  N3  UNL     1     109.719  26.801  18.913  1.00  0.00    -0.279 N
HETATM   15  N4  UNL     1     109.583  25.660  19.558  1.00  0.00    -0.225 N
ATOM     16  H3  UNL     1     110.478  27.477  19.004  1.00  0.00     0.189 HD
ATOM     17  H4  UNL     1     110.251  25.315  20.248  1.00  0.00     0.210 HD
ENDBRANCH   9  10
ENDBRANCH   5   9
ENDBRANCH   1   5
BRANCH   3  18
HETATM   18  C8  UNL     1     108.850  22.270  23.692  1.00  0.00     0.275 C
BRANCH  18  19
HETATM   19  N6  UNL     1     107.915  22.403  24.817  1.00  0.00    -0.066 N
ATOM     20  H63 UNL     1     107.010  21.978  24.617  1.00  0.00     0.275 HD
ATOM     21  H62 UNL     1     108.181  21.819  25.609  1.00  0.00     0.275 HD
ATOM     22  H61 UNL     1     107.828  23.386  25.077  1.00  0.00     0.275 HD
ENDBRANCH  18  19
BRANCH  18  23
HETATM   23  C9  UNL     1     108.849  20.876  23.171  1.00  0.00     0.047 C
BRANCH  23  24
HETATM   24  C10 UNL     1     110.008  20.038  23.589  1.00  0.00    -0.012 C
HETATM   25  C11 UNL     1     111.054  20.931  24.218  1.00  0.00     0.005 C
HETATM   26  C12 UNL     1     112.354  20.193  24.244  1.00  0.00     0.000 C
HETATM   27  C13 UNL     1     112.160  18.706  24.147  1.00  0.00     0.000 C
HETATM   28  C14 UNL     1     110.973  18.267  24.987  1.00  0.00     0.000 C
HETATM   29  C15 UNL     1     109.693  18.914  24.498  1.00  0.00     0.005 C
ENDBRANCH  23  24
ENDBRANCH  18  23
ENDBRANCH   3  18
TORSDOF 8
ENDMDL