MODEL 2
REMARK VINA RESULT: -6.207785850      5.606      8.043
REMARK  7 active torsions:
REMARK  status: ('A' for Active; 'I' for Inactive)
REMARK    1  A    between atoms: C2_3  and  N2_4
REMARK    2  A    between atoms: C4_10  and  C5_11
REMARK    3  A    between atoms: C4_10  and  C10_17
REMARK    4  A    between atoms: C5_11  and  O2_12
REMARK    5  A    between atoms: O2_12  and  C6_13
REMARK    6  A    between atoms: C6_13  and  C7_14
REMARK    7  A    between atoms: C10_17  and  C11_18
ROOT
HETATM    1  N1  UNL     1      97.731  22.721  14.476  1.00  0.00    -0.196 NA
HETATM    2  C1  UNL     1      97.820  22.761  15.632  1.00  0.00     0.075 C
HETATM    3  C2  UNL     1      97.903  22.809  17.070  1.00  0.00     0.247 C
ENDROOT
BRANCH   3   4
HETATM    4  N2  UNL     1      99.141  22.438  17.610  1.00  0.00    -0.143 NA
HETATM    5  O1  UNL     1      99.508  21.211  17.103  1.00  0.00    -0.225 OA
HETATM    6  C3  UNL     1      99.150  20.281  18.095  1.00  0.00     0.247 C
HETATM    7  N3  UNL     1      98.968  18.889  17.792  1.00  0.00    -0.055 NA
HETATM    8  N4  UNL     1      99.029  20.881  19.226  1.00  0.00    -0.332 N
HETATM    9  C4  UNL     1      99.318  22.266  18.992  1.00  0.00     0.135 C
ATOM     10  H4  UNL     1      98.777  20.454  20.117  1.00  0.00     0.165 HD
BRANCH   9  11
HETATM   11  C5  UNL     1      98.641  23.212  19.902  1.00  0.00     0.217 C
BRANCH  11  12
HETATM   12  O2  UNL     1      99.342  24.304  20.332  1.00  0.00    -0.387 OA
BRANCH  12  13
HETATM   13  C6  UNL     1      98.729  24.699  21.544  1.00  0.00     0.172 C
BRANCH  13  14
HETATM   14  C7  UNL     1      99.728  25.049  22.589  1.00  0.00     0.009 A
HETATM   15  C8  UNL     1      99.279  25.424  23.979  1.00  0.00     0.007 A
HETATM   16  C9  UNL     1      99.705  26.490  23.050  1.00  0.00     0.007 A
ENDBRANCH  13  14
ENDBRANCH  12  13
ENDBRANCH  11  12
ENDBRANCH   9  11
BRANCH   9  17
HETATM   17  C10 UNL     1     100.822  22.427  19.211  1.00  0.00     0.057 C
BRANCH  17  18
HETATM   18  C11 UNL     1     101.454  21.399  20.071  1.00  0.00    -0.007 C
HETATM   19  C12 UNL     1     102.807  20.926  19.634  1.00  0.00     0.031 C
HETATM   20  C13 UNL     1     103.478  20.177  20.782  1.00  0.00     0.168 C
HETATM   21  O3  UNL     1     103.678  21.029  21.844  1.00  0.00    -0.391 OA
HETATM   22  C14 UNL     1     102.424  21.298  22.397  1.00  0.00     0.168 C
HETATM   23  C15 UNL     1     101.531  22.042  21.467  1.00  0.00     0.031 C
ENDBRANCH  17  18
ENDBRANCH   9  17
ENDBRANCH   3   4
TORSDOF 7
ENDMDL