MODEL 5
REMARK VINA RESULT: -9.023467338      1.532      2.213
REMARK  10 active torsions:
REMARK  status: ('A' for Active; 'I' for Inactive)
REMARK    1  A    between atoms: C4_4  and  N1_5
REMARK       I    between atoms: N1_5  and  C5_7
REMARK    2  A    between atoms: C5_7  and  C6_9
REMARK    3  A    between atoms: C14_17  and  C15_18
REMARK    4  A    between atoms: C15_18  and  C17_20
REMARK    5  A    between atoms: C17_20  and  C18_21
REMARK    6  A    between atoms: C18_21  and  C19_22
REMARK    7  A    between atoms: C19_22  and  O2_23
REMARK    8  A    between atoms: C19_22  and  C20_25
REMARK    9  A    between atoms: C20_25  and  C21_26
REMARK   10  A    between atoms: C27_34  and  O5_35
ROOT
HETATM    1  C6  UNL     1      -7.541  17.520  22.670  1.00  0.00     0.090 C
HETATM    2  C7  UNL     1      -7.214  18.303  23.962  1.00  0.00     0.025 C
HETATM    3  C8  UNL     1      -7.183  16.957  24.662  1.00  0.00     0.027 C
HETATM    4  C9  UNL     1      -8.032  16.991  25.909  1.00  0.00    -0.074 C
HETATM    5  C10 UNL     1      -7.996  17.960  26.762  1.00  0.00    -0.022 C
HETATM    6  C11 UNL     1      -8.794  18.035  27.972  1.00  0.00     0.037 C
HETATM    7  C12 UNL     1      -9.714  16.871  28.249  1.00  0.00    -0.033 C
HETATM    8  C13 UNL     1     -11.109  17.398  28.002  1.00  0.00     0.016 C
HETATM    9  C14 UNL     1      -9.463  16.434  29.675  1.00  0.00    -0.002 C
HETATM   10  C22 UNL     1      -8.089  15.820  29.496  1.00  0.00     0.006 C
HETATM   11  C23 UNL     1      -8.329  14.932  28.273  1.00  0.00     0.006 C
HETATM   12  C24 UNL     1      -9.416  15.629  27.489  1.00  0.00     0.002 C
HETATM   13  C25 UNL     1      -8.930  15.829  26.104  1.00  0.00     0.022 C
HETATM   14  C26 UNL     1      -9.995  15.816  25.035  1.00  0.00     0.042 C
HETATM   15  C27 UNL     1      -9.551  16.687  23.889  1.00  0.00     0.128 C
HETATM   16  C28 UNL     1      -8.080  16.447  23.540  1.00  0.00     0.002 C
HETATM   17  C29 UNL     1      -7.806  15.060  23.061  1.00  0.00     0.019 C
ENDROOT
BRANCH   1  18
HETATM   18  C5  UNL     1      -6.359  17.283  21.840  1.00  0.00     0.223 C
HETATM   19  N1  UNL     1      -5.074  17.730  22.272  1.00  0.00    -0.356 N
ATOM     20  H1  UNL     1      -5.004  18.214  23.166  1.00  0.00     0.162 HD
HETATM   21  O1  UNL     1      -6.410  16.698  20.749  1.00  0.00    -0.273 OA
BRANCH  19  22
HETATM   22  C4  UNL     1      -3.880  17.530  21.509  1.00  0.00     0.088 C
HETATM   23  C3  UNL     1      -2.648  17.256  22.311  1.00  0.00     0.056 C
HETATM   24  C2  UNL     1      -1.385  17.654  21.599  1.00  0.00     0.119 C
HETATM   25  C1  UNL     1      -0.901  19.041  21.984  1.00  0.00     0.039 C
HETATM   26  O6  UNL     1      -1.492  17.532  20.219  1.00  0.00    -0.386 OA
HETATM   27  C31 UNL     1      -2.471  18.339  19.655  1.00  0.00     0.170 C
HETATM   28  C30 UNL     1      -3.582  18.701  20.598  1.00  0.00     0.051 C
ENDBRANCH  19  22
ENDBRANCH   1  18
BRANCH  15  29
HETATM   29  O5  UNL     1     -10.281  16.416  22.731  1.00  0.00    -0.395 OA
ATOM     30  H5  UNL     1     -10.860  17.137  22.510  1.00  0.00     0.210 HD
ENDBRANCH  15  29
BRANCH   9  31
HETATM   31  C15 UNL     1     -10.338  15.395  30.223  1.00  0.00    -0.014 C
HETATM   32  C16 UNL     1     -11.813  15.646  30.241  1.00  0.00     0.010 C
BRANCH  31  33
HETATM   33  C17 UNL     1      -9.907  15.038  31.626  1.00  0.00     0.007 C
BRANCH  33  34
HETATM   34  C18 UNL     1      -9.842  16.225  32.560  1.00  0.00     0.032 C
BRANCH  34  35
HETATM   35  C19 UNL     1     -10.921  16.216  33.584  1.00  0.00     0.128 C
BRANCH  35  36
HETATM   36  O2  UNL     1     -10.589  16.948  34.723  1.00  0.00    -0.395 OA
ATOM     37  H2  UNL     1     -11.240  17.606  34.939  1.00  0.00     0.210 HD
ENDBRANCH  35  36
BRANCH  35  38
HETATM   38  C20 UNL     1     -11.472  14.890  33.962  1.00  0.00     0.144 C
BRANCH  38  39
HETATM   39  C21 UNL     1     -12.885  14.681  33.688  1.00  0.00     0.175 C
HETATM   40  O3  UNL     1     -13.562  15.657  33.272  1.00  0.00    -0.648 OA
HETATM   41  O4  UNL     1     -13.543  13.485  33.850  1.00  0.00    -0.648 OA
ENDBRANCH  38  39
ENDBRANCH  35  38
ENDBRANCH  34  35
ENDBRANCH  33  34
ENDBRANCH  31  33
ENDBRANCH   9  31
TORSDOF 10
ENDMDL