MODEL 1
REMARK VINA RESULT: -9.762142218      0.000      0.000
REMARK  11 active torsions:
REMARK  status: ('A' for Active; 'I' for Inactive)
REMARK    1  A    between atoms: C2_2  and  C3_3
REMARK    2  A    between atoms: C2_2  and  C29_40
REMARK    3  A    between atoms: C3_3  and  C4_4
REMARK    4  A    between atoms: C4_4  and  C5_5
REMARK    5  A    between atoms: C5_5  and  C7_7
REMARK    6  A    between atoms: C11_11  and  O1_12
REMARK    7  A    between atoms: C18_20  and  N1_21
REMARK       I    between atoms: N1_21  and  C19_23
REMARK       I    between atoms: C19_23  and  N2_25
REMARK    8  A    between atoms: N2_25  and  C20_27
REMARK    9  A    between atoms: C20_27  and  C21_28
REMARK   10  A    between atoms: C21_28  and  O4_30
REMARK   11  A    between atoms: C26_35  and  O5_36
ROOT
HETATM    1  C7  UNL     1      -9.822  15.363  30.552  1.00  0.00     0.000 C
HETATM    2  C8  UNL     1     -10.617  16.569  31.180  1.00  0.00     0.006 C
HETATM    3  C9  UNL     1     -10.888  17.549  30.121  1.00  0.00     0.008 C
HETATM    4  C10 UNL     1     -10.332  16.952  28.884  1.00  0.00     0.026 C
HETATM    5  C11 UNL     1      -9.827  17.968  27.894  1.00  0.00     0.128 C
HETATM    6  C12 UNL     1      -8.860  17.382  26.886  1.00  0.00     0.026 C
HETATM    7  C13 UNL     1      -9.182  17.900  25.533  1.00  0.00    -0.001 C
HETATM    8  C14 UNL     1     -10.070  16.910  24.761  1.00  0.00     0.010 C
HETATM    9  C15 UNL     1      -9.024  16.288  23.873  1.00  0.00    -0.008 C
HETATM   10  C16 UNL     1      -8.471  17.631  23.334  1.00  0.00     0.012 C
HETATM   11  C17 UNL     1      -7.938  18.098  24.682  1.00  0.00     0.014 C
HETATM   12  C18 UNL     1      -6.977  16.999  24.965  1.00  0.00     0.095 C
HETATM   13  C23 UNL     1      -7.886  15.808  24.702  1.00  0.00     0.013 C
HETATM   14  C24 UNL     1      -8.252  15.098  25.968  1.00  0.00     0.014 C
HETATM   15  C25 UNL     1      -8.915  15.905  27.028  1.00  0.00     0.022 C
HETATM   16  C26 UNL     1      -8.306  15.600  28.426  1.00  0.00     0.131 C
HETATM   17  C27 UNL     1      -9.203  16.071  29.470  1.00  0.00    -0.008 C
HETATM   18  C28 UNL     1      -8.337  17.149  30.216  1.00  0.00     0.019 C
ENDROOT
BRANCH  12  19
HETATM   19  N1  UNL     1      -5.852  17.086  24.070  1.00  0.00    -0.338 N
HETATM   20  C19 UNL     1      -4.584  17.523  24.555  1.00  0.00     0.316 C
HETATM   21  O2  UNL     1      -4.485  17.816  25.773  1.00  0.00    -0.247 OA
HETATM   22  N2  UNL     1      -3.439  17.645  23.751  1.00  0.00    -0.334 N
ATOM     23  H2  UNL     1      -3.543  17.402  22.766  1.00  0.00     0.164 HD
ATOM     24  H1  UNL     1      -5.962  16.834  23.087  1.00  0.00     0.164 HD
BRANCH  22  25
HETATM   25  C20 UNL     1      -2.150  18.074  24.171  1.00  0.00     0.235 C
BRANCH  25  26
HETATM   26  C21 UNL     1      -1.794  19.449  23.773  1.00  0.00     0.276 C
HETATM   27  O3  UNL     1      -1.932  20.403  24.562  1.00  0.00    -0.263 OA
BRANCH  26  28
HETATM   28  O4  UNL     1      -1.303  19.675  22.511  1.00  0.00    -0.325 OA
HETATM   29  C22 UNL     1      -0.504  18.759  21.795  1.00  0.00     0.213 C
ENDBRANCH  26  28
ENDBRANCH  25  26
ENDBRANCH  22  25
ENDBRANCH  12  19
BRANCH   5  30
HETATM   30  O1  UNL     1     -10.963  18.410  27.169  1.00  0.00    -0.395 OA
ATOM     31  H1  UNL     1     -10.843  19.342  27.033  1.00  0.00     0.210 HD
ENDBRANCH   5  30
BRANCH  16  32
HETATM   32  O5  UNL     1      -7.708  14.397  28.394  1.00  0.00    -0.394 OA
ATOM     33  H5  UNL     1      -8.184  13.797  28.957  1.00  0.00     0.210 HD
ENDBRANCH  16  32
BRANCH   1  34
HETATM   34  C5  UNL     1     -10.761  14.252  30.598  1.00  0.00    -0.013 C
HETATM   35  C6  UNL     1     -12.039  14.511  31.392  1.00  0.00     0.010 C
BRANCH  34  36
HETATM   36  C4  UNL     1     -11.172  13.676  29.247  1.00  0.00     0.009 C
BRANCH  36  37
HETATM   37  C3  UNL     1     -12.554  13.072  29.284  1.00  0.00     0.034 C
BRANCH  37  38
HETATM   38  C2  UNL     1     -13.442  13.365  28.188  1.00  0.00    -0.086 C
HETATM   39  C1  UNL     1     -13.573  12.506  27.195  1.00  0.00     0.014 C
BRANCH  38  40
HETATM   40  C29 UNL     1     -14.266  14.584  28.141  1.00  0.00     0.005 C
HETATM   41  C30 UNL     1     -14.979  14.648  29.507  1.00  0.00     0.014 C
HETATM   42  C31 UNL     1     -13.529  15.875  28.010  1.00  0.00     0.014 C
ENDBRANCH  38  40
ENDBRANCH  37  38
ENDBRANCH  36  37
ENDBRANCH  34  36
ENDBRANCH   1  34
TORSDOF 11
ENDMDL