MODEL 1
REMARK VINA RESULT: -9.624266103      0.000      0.000
REMARK  9 active torsions:
REMARK  status: ('A' for Active; 'I' for Inactive)
REMARK    1  A    between atoms: C4_5  and  N2_6
REMARK    2  A    between atoms: N2_6  and  C5_8
REMARK    3  A    between atoms: C8_11  and  C9_12
REMARK       I    between atoms: C9_12  and  N3_14
REMARK    4  A    between atoms: N3_14  and  C10_16
REMARK    5  A    between atoms: C10_16  and  C11_17
REMARK       I    between atoms: C11_17  and  N4_19
REMARK    6  A    between atoms: N4_19  and  C12_21
REMARK    7  A    between atoms: C12_21  and  C15_24
REMARK    8  A    between atoms: C15_24  and  N5_25
REMARK       I    between atoms: N5_25  and  C16_27
REMARK    9  A    between atoms: C16_27  and  C17_29
ROOT
HETATM    1  C10 UNL     1     -11.987  14.669  28.847  1.00  0.00     0.114 C
HETATM    2  C23 UNL     1     -11.503  13.241  29.042  1.00  0.00     0.041 C
HETATM    3  C24 UNL     1     -12.613  12.240  28.870  1.00  0.00     0.003 C
HETATM    4  C25 UNL     1     -13.524  12.539  27.719  1.00  0.00     0.000 C
HETATM    5  C26 UNL     1     -14.075  13.928  27.750  1.00  0.00     0.003 C
HETATM    6  C27 UNL     1     -13.501  14.665  28.923  1.00  0.00     0.041 C
ENDROOT
BRANCH   1   7
HETATM    7  N3  UNL     1     -11.562  15.105  27.534  1.00  0.00    -0.339 N
HETATM    8  C9  UNL     1     -10.298  14.826  26.976  1.00  0.00     0.252 C
HETATM    9  O1  UNL     1      -9.408  14.163  27.592  1.00  0.00    -0.268 OA
ATOM     10  H3  UNL     1     -12.219  15.650  26.977  1.00  0.00     0.164 HD
BRANCH   8  11
HETATM   11  C8  UNL     1      -9.939  15.292  25.637  1.00  0.00     0.032 A
HETATM   12  C7  UNL     1     -10.812  15.985  24.850  1.00  0.00     0.019 A
HETATM   13  C6  UNL     1     -10.425  16.407  23.591  1.00  0.00     0.030 A
HETATM   14  C5  UNL     1      -9.161  16.147  23.089  1.00  0.00     0.028 A
HETATM   15  C29 UNL     1      -8.273  15.454  23.864  1.00  0.00     0.030 A
HETATM   16  C28 UNL     1      -8.667  15.037  25.122  1.00  0.00     0.019 A
BRANCH  14  17
HETATM   17  N2  UNL     1      -8.794  16.574  21.799  1.00  0.00    -0.385 N
ATOM     18  H2  UNL     1      -9.155  16.080  20.984  1.00  0.00     0.160 HD
BRANCH  17  19
HETATM   19  C4  UNL     1      -7.919  17.695  21.616  1.00  0.00     0.085 C
HETATM   20  C3  UNL     1      -7.693  18.296  22.998  1.00  0.00     0.055 C
HETATM   21  C2  UNL     1      -6.581  19.328  22.815  1.00  0.00     0.274 C
HETATM   22  N1  UNL     1      -5.361  18.569  22.708  1.00  0.00     0.084 N
HETATM   23  C1  UNL     1      -4.781  18.260  23.996  1.00  0.00     0.309 C
HETATM   24  C31 UNL     1      -5.399  17.490  21.806  1.00  0.00     0.274 C
HETATM   25  C30 UNL     1      -6.620  17.317  20.970  1.00  0.00     0.055 C
ENDBRANCH  17  19
ENDBRANCH  14  17
ENDBRANCH   8  11
ENDBRANCH   1   7
BRANCH   1  26
HETATM   26  C11 UNL     1     -11.430  15.572  29.869  1.00  0.00     0.246 C
HETATM   27  O2  UNL     1     -12.135  16.468  30.374  1.00  0.00    -0.271 OA
HETATM   28  N4  UNL     1     -10.085  15.438  30.292  1.00  0.00    -0.349 N
ATOM     29  H4  UNL     1      -9.515  14.702  29.873  1.00  0.00     0.163 HD
BRANCH  28  30
HETATM   30  C12 UNL     1      -9.483  16.289  31.285  1.00  0.00     0.041 C
HETATM   31  C13 UNL     1      -8.090  15.855  31.645  1.00  0.00     0.039 C
HETATM   32  C14 UNL     1     -10.349  16.208  32.548  1.00  0.00     0.039 C
BRANCH  30  33
HETATM   33  C15 UNL     1      -9.458  17.746  30.902  1.00  0.00     0.152 C
BRANCH  33  34
HETATM   34  N5  UNL     1      -8.556  17.924  29.787  1.00  0.00    -0.358 N
HETATM   35  C16 UNL     1      -9.030  18.088  28.442  1.00  0.00     0.226 C
HETATM   36  O3  UNL     1     -10.273  18.070  28.270  1.00  0.00    -0.273 OA
ATOM     37  H5  UNL     1      -7.551  17.933  29.961  1.00  0.00     0.162 HD
BRANCH  35  38
HETATM   38  C17 UNL     1      -8.091  18.270  27.308  1.00  0.00     0.037 C
HETATM   39  C18 UNL     1      -8.907  18.580  26.068  1.00  0.00     0.025 C
HETATM   40  C19 UNL     1      -7.131  19.396  27.547  1.00  0.00     0.019 C
HETATM   41  C20 UNL     1      -5.780  18.788  27.800  1.00  0.00     0.001 C
HETATM   42  C21 UNL     1      -5.860  17.338  27.412  1.00  0.00     0.001 C
HETATM   43  C22 UNL     1      -7.270  17.031  27.042  1.00  0.00     0.019 C
ENDBRANCH  35  38
ENDBRANCH  33  34
ENDBRANCH  30  33
ENDBRANCH  28  30
ENDBRANCH   1  26
TORSDOF 9
ENDMDL