MODEL 2
REMARK VINA RESULT: -7.434212605      4.002      9.100
REMARK  12 active torsions:
REMARK  status: ('A' for Active; 'I' for Inactive)
REMARK    1  A    between atoms: C2_2  and  C4_4
REMARK    2  A    between atoms: C4_4  and  C5_5
REMARK    3  A    between atoms: C5_5  and  C6_6
REMARK    4  A    between atoms: C6_6  and  C7_7
REMARK    5  A    between atoms: C7_7  and  C9_9
REMARK    6  A    between atoms: C18_18  and  O1_19
REMARK    7  A    between atoms: C19_21  and  C20_22
REMARK    8  A    between atoms: C20_22  and  C22_24
REMARK    9  A    between atoms: C20_22  and  N1_27
REMARK   10  A    between atoms: C22_24  and  O2_25
REMARK   11  A    between atoms: N1_27  and  S1_29
REMARK   12  A    between atoms: C28_37  and  O5_38
ROOT
HETATM    1  C9  UNL     1      -8.292  16.526  25.355  1.00  0.00     0.000 C
HETATM    2  C10 UNL     1      -8.951  17.919  25.186  1.00  0.00     0.006 C
HETATM    3  C11 UNL     1      -8.708  18.517  26.564  1.00  0.00     0.006 C
HETATM    4  C12 UNL     1      -9.175  17.346  27.335  1.00  0.00     0.001 C
HETATM    5  C13 UNL     1      -9.367  17.464  28.764  1.00  0.00    -0.005 C
HETATM    6  C14 UNL     1      -8.187  17.826  29.601  1.00  0.00     0.006 C
HETATM    7  C15 UNL     1      -8.775  18.213  30.934  1.00  0.00     0.006 C
HETATM    8  C16 UNL     1      -9.497  17.116  31.596  1.00  0.00    -0.003 C
HETATM    9  C17 UNL     1      -8.568  16.243  32.332  1.00  0.00     0.037 C
HETATM   10  C18 UNL     1      -9.376  14.963  32.483  1.00  0.00     0.126 C
HETATM   11  C19 UNL     1     -10.490  15.018  31.471  1.00  0.00     0.053 C
HETATM   12  C24 UNL     1     -10.414  16.249  30.720  1.00  0.00    -0.028 C
HETATM   13  C25 UNL     1     -11.623  17.163  30.627  1.00  0.00     0.016 C
HETATM   14  C26 UNL     1      -9.958  16.153  29.291  1.00  0.00     0.001 C
HETATM   15  C27 UNL     1      -9.063  15.060  28.874  1.00  0.00     0.038 C
HETATM   16  C28 UNL     1      -8.926  15.032  27.333  1.00  0.00     0.127 C
HETATM   17  C29 UNL     1      -8.278  16.247  26.815  1.00  0.00    -0.010 C
HETATM   18  C30 UNL     1      -6.858  16.354  27.312  1.00  0.00     0.018 C
ENDROOT
BRANCH  11  19
HETATM   19  C20 UNL     1     -11.775  14.487  32.081  1.00  0.00     0.064 C
HETATM   20  C21 UNL     1     -11.680  14.324  33.576  1.00  0.00     0.041 C
BRANCH  19  21
HETATM   21  C22 UNL     1     -12.961  15.269  31.617  1.00  0.00     0.195 C
BRANCH  21  22
HETATM   22  O2  UNL     1     -13.664  15.674  32.776  1.00  0.00    -0.398 OA
ATOM     23  H2  UNL     1     -14.531  15.940  32.492  1.00  0.00     0.209 HD
ENDBRANCH  21  22
ENDBRANCH  19  21
BRANCH  19  24
HETATM   24  N1  UNL     1     -11.930  13.173  31.574  1.00  0.00    -0.308 N
ATOM     25  H1  UNL     1     -11.353  12.464  32.025  1.00  0.00     0.173 HD
BRANCH  24  26
HETATM   26  S1  UNL     1     -12.880  12.632  30.390  1.00  0.00     0.223 S
HETATM   27  C23 UNL     1     -12.697  13.396  28.810  1.00  0.00     0.185 C
HETATM   28  O3  UNL     1     -12.536  11.136  30.105  1.00  0.00    -0.206 OA
HETATM   29  O4  UNL     1     -14.372  12.545  30.632  1.00  0.00    -0.206 OA
ENDBRANCH  24  26
ENDBRANCH  19  24
ENDBRANCH  11  19
BRANCH  10  30
HETATM   30  O1  UNL     1      -8.408  13.964  32.209  1.00  0.00    -0.395 OA
ATOM     31  H1  UNL     1      -8.842  13.176  32.514  1.00  0.00     0.210 HD
ENDBRANCH  10  30
BRANCH  16  32
HETATM   32  O5  UNL     1     -10.262  14.925  26.944  1.00  0.00    -0.395 OA
ATOM     33  H5  UNL     1     -10.262  14.076  26.520  1.00  0.00     0.210 HD
ENDBRANCH  16  32
BRANCH   1  34
HETATM   34  C7  UNL     1      -8.863  15.546  24.429  1.00  0.00    -0.014 C
HETATM   35  C8  UNL     1      -7.881  14.732  23.631  1.00  0.00     0.010 C
BRANCH  34  36
HETATM   36  C6  UNL     1      -9.731  16.270  23.367  1.00  0.00     0.005 C
BRANCH  36  37
HETATM   37  C5  UNL     1      -9.144  16.302  22.027  1.00  0.00     0.001 C
BRANCH  37  38
HETATM   38  C4  UNL     1      -8.777  17.654  21.543  1.00  0.00     0.004 C
BRANCH  38  39
HETATM   39  C2  UNL     1      -7.363  18.078  21.475  1.00  0.00    -0.023 C
HETATM   40  C1  UNL     1      -6.749  18.733  22.657  1.00  0.00     0.009 C
HETATM   41  C3  UNL     1      -6.508  16.835  21.115  1.00  0.00     0.009 C
ENDBRANCH  38  39
ENDBRANCH  37  38
ENDBRANCH  36  37
ENDBRANCH  34  36
ENDBRANCH   1  34
TORSDOF 12
ENDMDL