MODEL 4
REMARK VINA RESULT: -9.613027087      2.040      3.767
REMARK  10 active torsions:
REMARK  status: ('A' for Active; 'I' for Inactive)
REMARK    1  A    between atoms: C2_2  and  C3_3
REMARK    2  A    between atoms: C3_3  and  C4_4
REMARK    3  A    between atoms: C5_5  and  C6_6
REMARK    4  A    between atoms: C6_6  and  C7_7
REMARK    5  A    between atoms: C9_14  and  C10_15
REMARK    6  A    between atoms: C10_15  and  C11_16
REMARK    7  A    between atoms: C11_16  and  C12_17
REMARK    8  A    between atoms: C20_25  and  C21_26
REMARK    9  A    between atoms: C21_26  and  N2_27
REMARK       I    between atoms: N2_27  and  C22_29
REMARK   10  A    between atoms: C22_29  and  C23_31
ROOT
HETATM    1  C12 UNL     1      -9.833  15.192  25.538  1.00  0.00     0.079 C
HETATM    2  C13 UNL     1      -9.970  14.662  26.921  1.00  0.00     0.021 C
HETATM    3  C14 UNL     1      -9.850  15.776  27.946  1.00  0.00     0.014 C
HETATM    4  C15 UNL     1     -10.925  16.801  27.792  1.00  0.00     0.089 C
HETATM    5  C16 UNL     1     -10.782  17.833  28.867  1.00  0.00     0.026 C
HETATM    6  C17 UNL     1     -10.902  17.217  30.218  1.00  0.00     0.012 C
HETATM    7  C18 UNL     1     -10.841  15.730  30.242  1.00  0.00    -0.035 C
HETATM    8  C19 UNL     1     -12.163  15.037  30.059  1.00  0.00     0.016 C
HETATM    9  C20 UNL     1     -10.264  15.291  31.592  1.00  0.00     0.012 C
HETATM   10  C26 UNL     1      -8.824  15.714  31.480  1.00  0.00     0.007 C
HETATM   11  C27 UNL     1      -8.480  15.510  30.021  1.00  0.00     0.006 C
HETATM   12  C28 UNL     1      -9.774  15.177  29.317  1.00  0.00     0.000 C
HETATM   13  N3  UNL     1     -10.757  17.404  26.459  1.00  0.00    -0.356 N
ATOM     14  H3  UNL     1     -10.795  18.414  26.320  1.00  0.00     0.162 HD
HETATM   15  C29 UNL     1     -10.540  16.511  25.378  1.00  0.00     0.222 C
HETATM   16  O5  UNL     1     -10.943  16.809  24.232  1.00  0.00    -0.273 OA
ENDROOT
BRANCH   1  17
HETATM   17  C11 UNL     1      -8.414  15.432  25.089  1.00  0.00     0.021 C
BRANCH  17  18
HETATM   18  C10 UNL     1      -8.284  15.578  23.598  1.00  0.00     0.079 C
BRANCH  18  19
HETATM   19  C9  UNL     1      -7.518  16.809  23.257  1.00  0.00     0.099 C
HETATM   20  N1  UNL     1      -7.837  17.538  22.228  1.00  0.00    -0.255 N
HETATM   21  O3  UNL     1      -7.109  18.684  21.926  1.00  0.00    -0.275 OA
ATOM     22  H1  UNL     1      -8.625  17.268  21.639  1.00  0.00     0.195 HD
HETATM   23  C8  UNL     1      -6.702  19.465  23.048  1.00  0.00     0.257 C
HETATM   24  C6  UNL     1      -5.896  18.568  23.964  1.00  0.00     0.208 C
HETATM   25  N4  UNL     1      -6.412  17.241  24.034  1.00  0.00    -0.348 N
ATOM     26  H4  UNL     1      -5.968  16.576  24.667  1.00  0.00     0.163 HD
BRANCH  24  27
HETATM   27  C5  UNL     1      -4.500  18.463  23.476  1.00  0.00    -0.061 C
HETATM   28  C4  UNL     1      -3.358  18.388  23.097  1.00  0.00    -0.103 C
BRANCH  28  29
HETATM   29  C3  UNL     1      -1.972  18.313  22.634  1.00  0.00     0.093 C
BRANCH  29  30
HETATM   30  C2  UNL     1      -1.002  18.469  23.811  1.00  0.00     0.007 C
HETATM   31  C1  UNL     1      -1.176  19.814  24.434  1.00  0.00     0.006 C
ENDBRANCH  29  30
ENDBRANCH  28  29
ENDBRANCH  24  27
BRANCH  24  32
HETATM   32  C7  UNL     1      -5.874  19.220  25.312  1.00  0.00     0.218 C
HETATM   33  O1  UNL     1      -5.287  20.316  25.420  1.00  0.00    -0.645 OA
HETATM   34  O2  UNL     1      -6.464  18.669  26.415  1.00  0.00    -0.645 OA
ENDBRANCH  24  32
ENDBRANCH  18  19
ENDBRANCH  17  18
ENDBRANCH   1  17
BRANCH   9  35
HETATM   35  C21 UNL     1     -10.954  15.932  32.745  1.00  0.00     0.128 C
BRANCH  35  36
HETATM   36  N2  UNL     1     -11.302  15.001  33.784  1.00  0.00    -0.360 N
HETATM   37  C22 UNL     1     -12.607  14.528  34.013  1.00  0.00     0.221 C
HETATM   38  O4  UNL     1     -13.576  14.906  33.306  1.00  0.00    -0.273 OA
ATOM     39  H2  UNL     1     -10.556  14.663  34.393  1.00  0.00     0.162 HD
BRANCH  37  40
HETATM   40  C23 UNL     1     -12.913  13.550  35.109  1.00  0.00     0.070 C
HETATM   41  C24 UNL     1     -14.015  12.604  34.683  1.00  0.00     0.019 C
HETATM   42  C25 UNL     1     -11.659  12.793  35.501  1.00  0.00     0.019 C
ENDBRANCH  37  40
ENDBRANCH  35  36
ENDBRANCH   9  35
TORSDOF 10
ENDMDL