MODEL 3
REMARK VINA RESULT: -8.231909840      2.106      5.122
REMARK  10 active torsions:
REMARK  status: ('A' for Active; 'I' for Inactive)
REMARK    1  A    between atoms: C2_2  and  C3_3
REMARK    2  A    between atoms: C2_2  and  N3_21
REMARK    3  A    between atoms: C3_3  and  C4_4
REMARK    4  A    between atoms: C4_4  and  C5_5
REMARK    5  A    between atoms: C5_5  and  C6_6
REMARK    6  A    between atoms: C6_6  and  N1_7
REMARK       I    between atoms: N1_7  and  C7_8
REMARK    7  A    between atoms: C7_8  and  C8_10
REMARK    8  A    between atoms: C26_33  and  O2_34
REMARK    9  A    between atoms: C27_36  and  C29_38
REMARK   10  A    between atoms: C29_38  and  O3_39
ROOT
HETATM    1  N3  UNL     1      -8.458  15.904  31.758  1.00  0.00    -0.392 N
ATOM      2  H3  UNL     1      -7.864  15.091  31.596  1.00  0.00     0.159 HD
HETATM    3  C16 UNL     1      -8.931  16.420  30.721  1.00  0.00    -0.017 C
HETATM    4  C17 UNL     1      -9.825  17.605  30.634  1.00  0.00     0.052 C
HETATM    5  C18 UNL     1     -11.018  17.339  29.778  1.00  0.00     0.010 C
HETATM    6  C19 UNL     1     -10.691  16.435  28.595  1.00  0.00    -0.009 C
HETATM    7  C20 UNL     1     -11.627  16.774  27.509  1.00  0.00     0.006 C
HETATM    8  C21 UNL     1     -11.092  16.677  26.136  1.00  0.00     0.010 C
HETATM    9  C22 UNL     1      -9.888  15.736  26.026  1.00  0.00    -0.039 C
HETATM   10  C23 UNL     1     -10.410  14.384  26.551  1.00  0.00     0.015 C
HETATM   11  C24 UNL     1      -9.550  15.598  24.602  1.00  0.00     0.012 C
HETATM   12  C25 UNL     1      -8.196  15.988  24.153  1.00  0.00     0.033 C
HETATM   13  C26 UNL     1      -7.171  16.263  25.185  1.00  0.00     0.128 C
HETATM   14  C27 UNL     1      -7.789  17.078  26.303  1.00  0.00     0.008 C
HETATM   15  C28 UNL     1      -8.377  18.369  25.798  1.00  0.00     0.020 C
HETATM   16  C30 UNL     1      -8.793  16.149  26.944  1.00  0.00     0.011 C
HETATM   17  C31 UNL     1      -9.233  16.568  28.320  1.00  0.00     0.001 C
HETATM   18  C32 UNL     1      -8.554  15.773  29.407  1.00  0.00     0.057 C
ENDROOT
BRANCH   1  19
HETATM   19  C2  UNL     1      -8.612  16.261  33.109  1.00  0.00     0.077 C
HETATM   20  C1  UNL     1      -8.172  17.722  33.252  1.00  0.00     0.032 C
BRANCH  19  21
HETATM   21  C3  UNL     1     -10.091  16.257  33.486  1.00  0.00     0.025 C
BRANCH  21  22
HETATM   22  C4  UNL     1     -10.542  14.903  33.922  1.00  0.00     0.008 C
BRANCH  22  23
HETATM   23  C5  UNL     1     -11.899  14.496  33.477  1.00  0.00     0.060 C
BRANCH  23  24
HETATM   24  C6  UNL     1     -12.671  15.540  32.695  1.00  0.00     0.159 C
BRANCH  24  25
HETATM   25  N1  UNL     1     -13.233  15.025  31.534  1.00  0.00    -0.387 NA
HETATM   26  C7  UNL     1     -13.777  14.527  30.407  1.00  0.00     0.297 C
HETATM   27  O1  UNL     1     -14.058  15.214  29.364  1.00  0.00    -0.257 OA
BRANCH  26  28
HETATM   28  C8  UNL     1     -14.135  13.060  30.235  1.00  0.00     0.130 C
HETATM   29  C9  UNL     1     -14.157  12.374  31.576  1.00  0.00     0.055 C
HETATM   30  C10 UNL     1     -13.789  10.964  31.253  1.00  0.00     0.120 C
HETATM   31  C11 UNL     1     -12.899  10.345  32.314  1.00  0.00     0.046 C
HETATM   32  C12 UNL     1     -15.082  10.169  31.090  1.00  0.00     0.046 C
HETATM   33  N2  UNL     1     -13.108  10.957  29.996  1.00  0.00    -0.058 N
HETATM   34  C13 UNL     1     -12.995  12.323  29.544  1.00  0.00     0.132 C
ATOM     35  H22 UNL     1     -12.208  10.479  30.037  1.00  0.00     0.279 HD
ATOM     36  H21 UNL     1     -13.555  10.349  29.309  1.00  0.00     0.279 HD
HETATM   37  C14 UNL     1     -13.132  12.338  28.040  1.00  0.00     0.047 C
HETATM   38  C15 UNL     1     -11.687  12.882  29.993  1.00  0.00     0.047 C
ENDBRANCH  26  28
ENDBRANCH  24  25
ENDBRANCH  23  24
ENDBRANCH  22  23
ENDBRANCH  21  22
ENDBRANCH  19  21
ENDBRANCH   1  19
BRANCH  14  39
HETATM   39  C29 UNL     1      -6.663  17.431  27.232  1.00  0.00     0.176 C
BRANCH  39  40
HETATM   40  O3  UNL     1      -6.213  18.706  26.891  1.00  0.00    -0.400 OA
ATOM     41  H3  UNL     1      -5.692  19.033  27.616  1.00  0.00     0.209 HD
ENDBRANCH  39  40
ENDBRANCH  14  39
BRANCH  13  42
HETATM   42  O2  UNL     1      -6.074  16.850  24.598  1.00  0.00    -0.395 OA
ATOM     43  H2  UNL     1      -5.606  17.366  25.244  1.00  0.00     0.210 HD
ENDBRANCH  13  42
TORSDOF 10
ENDMDL