MODEL 2
REMARK VINA RESULT: -8.517222989      0.099      1.382
REMARK  13 active torsions:
REMARK  status: ('A' for Active; 'I' for Inactive)
REMARK    1  A    between atoms: C4_4  and  O1_5
REMARK    2  A    between atoms: C8_10  and  C9_11
REMARK    3  A    between atoms: C9_11  and  C10_12
REMARK    4  A    between atoms: C10_12  and  N1_13
REMARK    5  A    between atoms: C10_12  and  C23_35
REMARK       I    between atoms: N1_13  and  C11_15
REMARK    6  A    between atoms: C11_15  and  C12_17
REMARK    7  A    between atoms: C12_17  and  N2_18
REMARK    8  A    between atoms: C12_17  and  C18_27
REMARK       I    between atoms: N2_18  and  C13_20
REMARK    9  A    between atoms: C13_20  and  O4_22
REMARK   10  A    between atoms: O4_22  and  C14_23
REMARK   11  A    between atoms: C18_27  and  O5_28
REMARK   12  A    between atoms: C18_27  and  N3_30
REMARK       I    between atoms: C23_35  and  N4_37
REMARK   13  A    between atoms: N4_37  and  C24_39
ROOT
HETATM    1  C10 UNL     1      -8.081  17.027  28.739  1.00  0.00     0.180 C
ENDROOT
BRANCH   1   2
HETATM    2  C9  UNL     1      -8.552  17.786  29.895  1.00  0.00     0.074 C
BRANCH   2   3
HETATM    3  C8  UNL     1      -9.337  17.142  30.931  1.00  0.00    -0.044 A
HETATM    4  C2  UNL     1     -10.688  16.943  30.719  1.00  0.00    -0.052 A
HETATM    5  C1  UNL     1     -11.424  17.371  29.529  1.00  0.00     0.049 C
HETATM    6  C3  UNL     1     -11.391  16.288  31.712  1.00  0.00     0.043 A
HETATM    7  C4  UNL     1     -10.806  15.838  32.876  1.00  0.00     0.066 A
HETATM    8  C5  UNL     1      -9.460  16.049  33.059  1.00  0.00     0.043 A
HETATM    9  C6  UNL     1      -8.703  16.706  32.086  1.00  0.00    -0.052 A
HETATM   10  C7  UNL     1      -7.252  16.884  32.345  1.00  0.00     0.049 C
BRANCH   7  11
HETATM   11  O1  UNL     1     -11.490  15.180  33.881  1.00  0.00    -0.361 OA
ATOM     12  H1  UNL     1     -12.066  14.439  33.734  1.00  0.00     0.217 HD
ENDBRANCH   7  11
ENDBRANCH   2   3
ENDBRANCH   1   2
BRANCH   1  13
HETATM   13  N1  UNL     1      -9.006  16.503  27.803  1.00  0.00    -0.345 N
HETATM   14  C11 UNL     1      -9.166  15.150  27.445  1.00  0.00     0.249 C
HETATM   15  O2  UNL     1      -8.469  14.206  27.950  1.00  0.00    -0.271 OA
ATOM     16  H1  UNL     1      -9.618  17.175  27.340  1.00  0.00     0.163 HD
BRANCH  14  17
HETATM   17  C12 UNL     1     -10.161  14.701  26.436  1.00  0.00     0.253 C
BRANCH  17  18
HETATM   18  N2  UNL     1     -11.463  14.674  27.160  1.00  0.00    -0.316 N
HETATM   19  C13 UNL     1     -12.092  13.470  27.539  1.00  0.00     0.362 C
HETATM   20  O3  UNL     1     -11.629  12.328  27.311  1.00  0.00    -0.238 OA
ATOM     21  H2  UNL     1     -11.915  15.559  27.390  1.00  0.00     0.166 HD
BRANCH  19  22
HETATM   22  O4  UNL     1     -13.326  13.497  28.219  1.00  0.00    -0.294 OA
BRANCH  22  23
HETATM   23  C14 UNL     1     -13.420  13.455  29.621  1.00  0.00     0.061 C
HETATM   24  C15 UNL     1     -14.152  14.688  30.093  1.00  0.00     0.046 C
HETATM   25  C16 UNL     1     -12.052  13.425  30.282  1.00  0.00     0.046 C
HETATM   26  C17 UNL     1     -14.238  12.256  30.076  1.00  0.00     0.046 C
ENDBRANCH  22  23
ENDBRANCH  19  22
ENDBRANCH  17  18
BRANCH  17  27
HETATM   27  C18 UNL     1     -10.299  15.678  25.333  1.00  0.00     0.146 C
BRANCH  27  28
HETATM   28  O5  UNL     1     -11.160  16.630  25.613  1.00  0.00    -0.347 OA
ATOM     29  H5  UNL     1     -12.013  16.287  25.853  1.00  0.00     0.219 HD
ENDBRANCH  27  28
BRANCH  27  30
HETATM   30  N3  UNL     1      -9.675  15.730  24.095  1.00  0.00    -0.363 N
HETATM   31  C19 UNL     1     -10.397  16.153  22.862  1.00  0.00     0.124 C
HETATM   32  C20 UNL     1      -9.368  16.843  22.035  1.00  0.00     0.021 C
HETATM   33  C21 UNL     1      -8.078  16.641  22.741  1.00  0.00     0.021 C
HETATM   34  C22 UNL     1      -8.350  15.438  23.652  1.00  0.00     0.124 C
ENDBRANCH  27  30
ENDBRANCH  17  27
ENDBRANCH  14  17
ENDBRANCH   1  13
BRANCH   1  35
HETATM   35  C23 UNL     1      -7.173  17.959  27.957  1.00  0.00     0.241 C
HETATM   36  O6  UNL     1      -7.310  19.184  28.147  1.00  0.00    -0.271 OA
HETATM   37  N4  UNL     1      -6.200  17.508  27.043  1.00  0.00    -0.355 N
ATOM     38  H4  UNL     1      -6.080  16.509  26.880  1.00  0.00     0.162 HD
BRANCH  37  39
HETATM   39  C24 UNL     1      -5.362  18.470  26.325  1.00  0.00     0.084 C
HETATM   40  C25 UNL     1      -5.889  18.730  24.945  1.00  0.00     0.025 C
HETATM   41  C26 UNL     1      -4.725  18.931  24.003  1.00  0.00     0.002 C
HETATM   42  C27 UNL     1      -3.933  17.671  23.887  1.00  0.00     0.000 C
HETATM   43  C28 UNL     1      -3.554  17.103  25.216  1.00  0.00     0.002 C
HETATM   44  C29 UNL     1      -3.945  17.980  26.373  1.00  0.00     0.025 C
ENDBRANCH  37  39
ENDBRANCH   1  35
TORSDOF 13
ENDMDL