MODEL 5
REMARK VINA RESULT: -8.594190237      2.229      9.492
REMARK  12 active torsions:
REMARK  status: ('A' for Active; 'I' for Inactive)
REMARK    1  A    between atoms: N1_2  and  C2_3
REMARK    2  A    between atoms: N1_2  and  C14_20
REMARK    3  A    between atoms: C2_3  and  C3_4
REMARK    4  A    between atoms: C3_4  and  C4_5
REMARK    5  A    between atoms: C4_5  and  C5_6
REMARK    6  A    between atoms: C5_6  and  C6_7
REMARK    7  A    between atoms: C6_7  and  C7_8
REMARK       I    between atoms: C7_8  and  N2_10
REMARK    8  A    between atoms: N2_10  and  C8_12
REMARK    9  A    between atoms: C8_12  and  C9_13
REMARK   10  A    between atoms: C8_12  and  C10_16
REMARK   11  A    between atoms: C19_25  and  O4_26
REMARK   12  A    between atoms: C22_30  and  O5_31
ROOT
HETATM    1  C14 UNL     1      -7.983  16.849  28.422  1.00  0.00     0.227 C
HETATM    2  C15 UNL     1      -7.134  17.927  27.800  1.00  0.00     0.042 C
HETATM    3  C16 UNL     1      -7.015  17.522  26.346  1.00  0.00     0.001 C
HETATM    4  C17 UNL     1      -8.314  17.788  25.676  1.00  0.00     0.001 C
HETATM    5  C18 UNL     1      -8.357  16.925  24.428  1.00  0.00     0.038 C
HETATM    6  C19 UNL     1      -7.048  17.010  23.732  1.00  0.00     0.123 C
HETATM    7  C20 UNL     1      -6.168  18.179  24.161  1.00  0.00     0.025 C
HETATM    8  C21 UNL     1      -4.979  18.188  23.265  1.00  0.00     0.039 C
HETATM    9  C22 UNL     1      -3.635  18.254  23.843  1.00  0.00     0.118 C
HETATM   10  C23 UNL     1      -3.500  18.107  25.328  1.00  0.00     0.032 C
HETATM   11  C24 UNL     1      -4.623  17.345  25.940  1.00  0.00     0.012 C
HETATM   12  C25 UNL     1      -5.886  18.146  25.622  1.00  0.00    -0.034 C
HETATM   13  C26 UNL     1      -5.618  19.557  26.159  1.00  0.00     0.016 C
HETATM   14  C27 UNL     1      -9.511  17.630  26.546  1.00  0.00    -0.034 C
HETATM   15  C28 UNL     1     -10.313  18.914  26.705  1.00  0.00     0.016 C
HETATM   16  C29 UNL     1     -10.487  16.522  26.129  1.00  0.00     0.010 C
HETATM   17  C30 UNL     1      -9.860  15.661  27.202  1.00  0.00     0.008 C
HETATM   18  C31 UNL     1      -9.347  16.931  27.820  1.00  0.00     0.027 C
ENDROOT
BRANCH   1  19
HETATM   19  N1  UNL     1      -8.002  16.972  29.866  1.00  0.00     0.089 N
HETATM   20  C1  UNL     1      -8.877  18.064  30.272  1.00  0.00     0.310 C
BRANCH  19  21
HETATM   21  C2  UNL     1      -8.422  15.751  30.503  1.00  0.00     0.272 C
BRANCH  21  22
HETATM   22  C3  UNL     1      -8.306  15.758  31.998  1.00  0.00     0.030 C
BRANCH  22  23
HETATM   23  C4  UNL     1      -9.471  15.016  32.590  1.00  0.00     0.002 C
BRANCH  23  24
HETATM   24  C5  UNL     1     -10.755  15.790  32.622  1.00  0.00     0.009 C
BRANCH  24  25
HETATM   25  C6  UNL     1     -11.737  14.942  33.429  1.00  0.00     0.103 C
BRANCH  25  26
HETATM   26  C7  UNL     1     -12.696  14.216  32.594  1.00  0.00     0.218 C
HETATM   27  O1  UNL     1     -13.541  13.472  33.095  1.00  0.00    -0.274 OA
HETATM   28  N2  UNL     1     -12.617  14.403  31.176  1.00  0.00    -0.346 N
ATOM     29  H2  UNL     1     -11.905  15.025  30.795  1.00  0.00     0.163 HD
BRANCH  28  30
HETATM   30  C8  UNL     1     -13.525  13.729  30.267  1.00  0.00     0.193 C
BRANCH  30  31
HETATM   31  C9  UNL     1     -14.302  14.692  29.469  1.00  0.00     0.197 C
HETATM   32  O2  UNL     1     -15.564  14.640  29.541  1.00  0.00    -0.646 OA
HETATM   33  O3  UNL     1     -13.718  15.636  28.660  1.00  0.00    -0.646 OA
ENDBRANCH  30  31
BRANCH  30  34
HETATM   34  C10 UNL     1     -12.787  12.791  29.346  1.00  0.00    -0.021 C
HETATM   35  C11 UNL     1     -11.417  13.341  29.001  1.00  0.00     0.017 C
HETATM   36  C12 UNL     1     -12.556  11.486  30.061  1.00  0.00     0.017 C
HETATM   37  C13 UNL     1     -13.525  12.481  28.073  1.00  0.00     0.017 C
ENDBRANCH  30  34
ENDBRANCH  28  30
ENDBRANCH  25  26
ENDBRANCH  24  25
ENDBRANCH  23  24
ENDBRANCH  22  23
ENDBRANCH  21  22
ENDBRANCH  19  21
ENDBRANCH   1  19
BRANCH   6  38
HETATM   38  O4  UNL     1      -7.294  17.199  22.352  1.00  0.00    -0.395 OA
ATOM     39  H4  UNL     1      -6.458  17.312  21.915  1.00  0.00     0.210 HD
ENDBRANCH   6  38
BRANCH   9  40
HETATM   40  O5  UNL     1      -2.976  19.462  23.490  1.00  0.00    -0.396 OA
ATOM     41  H5  UNL     1      -2.576  19.874  24.246  1.00  0.00     0.210 HD
ENDBRANCH   9  40
TORSDOF 12
ENDMDL