MODEL 1
REMARK VINA RESULT: -9.212583285      0.000      0.000
REMARK  11 active torsions:
REMARK  status: ('A' for Active; 'I' for Inactive)
REMARK    1  A    between atoms: C2_2  and  C3_3
REMARK    2  A    between atoms: C3_3  and  C5_5
REMARK    3  A    between atoms: C5_5  and  N1_6
REMARK    4  A    between atoms: C5_5  and  C26_34
REMARK       I    between atoms: N1_6  and  C6_8
REMARK    5  A    between atoms: C6_8  and  C7_10
REMARK    6  A    between atoms: C7_10  and  C8_11
REMARK    7  A    between atoms: C8_11  and  C9_12
REMARK    8  A    between atoms: C9_12  and  C10_14
REMARK    9  A    between atoms: C20_24  and  O3_25
REMARK   10  A    between atoms: C20_24  and  C21_27
REMARK       I    between atoms: C26_34  and  N2_36
REMARK   11  A    between atoms: N2_36  and  C27_38
ROOT
HETATM    1  C9  UNL     1      -9.967  15.378  30.923  1.00  0.00     0.132 C
HETATM    2  O2  UNL     1      -8.933  14.734  31.184  1.00  0.00    -0.298 OA
ENDROOT
BRANCH   1   3
HETATM    3  C8  UNL     1     -10.719  15.840  32.105  1.00  0.00     0.088 C
BRANCH   3   4
HETATM    4  C7  UNL     1     -11.136  14.742  33.021  1.00  0.00     0.110 C
BRANCH   4   5
HETATM    5  C6  UNL     1     -12.484  14.245  32.531  1.00  0.00     0.218 C
HETATM    6  N1  UNL     1     -12.548  13.011  31.865  1.00  0.00    -0.347 N
ATOM      7  H1  UNL     1     -11.652  12.539  31.745  1.00  0.00     0.163 HD
HETATM    8  O1  UNL     1     -13.513  14.925  32.723  1.00  0.00    -0.274 OA
BRANCH   6   9
HETATM    9  C5  UNL     1     -13.678  12.312  31.326  1.00  0.00     0.180 C
BRANCH   9  10
HETATM   10  C3  UNL     1     -13.730  12.262  29.816  1.00  0.00     0.013 C
HETATM   11  C4  UNL     1     -14.279  13.587  29.270  1.00  0.00     0.012 C
BRANCH  10  12
HETATM   12  C2  UNL     1     -12.395  12.092  29.158  1.00  0.00     0.002 C
HETATM   13  C1  UNL     1     -12.407  12.423  27.672  1.00  0.00     0.005 C
ENDBRANCH  10  12
ENDBRANCH   9  10
BRANCH   9  14
HETATM   14  C26 UNL     1     -13.852  10.988  31.907  1.00  0.00     0.241 C
HETATM   15  O6  UNL     1     -14.831  10.703  32.687  1.00  0.00    -0.271 OA
HETATM   16  N2  UNL     1     -12.961   9.926  31.646  1.00  0.00    -0.351 N
ATOM     17  H2  UNL     1     -12.169  10.110  31.030  1.00  0.00     0.163 HD
BRANCH  16  18
HETATM   18  C27 UNL     1     -13.092   8.600  32.190  1.00  0.00     0.022 C
HETATM   19  C28 UNL     1     -12.067   7.704  31.507  1.00  0.00     0.037 C
HETATM   20  C29 UNL     1     -14.476   8.082  31.875  1.00  0.00     0.037 C
HETATM   21  C30 UNL     1     -12.847   8.650  33.675  1.00  0.00     0.037 C
ENDBRANCH  16  18
ENDBRANCH   9  14
ENDBRANCH   6   9
ENDBRANCH   4   5
ENDBRANCH   3   4
ENDBRANCH   1   3
BRANCH   1  22
HETATM   22  C10 UNL     1     -10.333  15.612  29.547  1.00  0.00     0.064 C
HETATM   23  C11 UNL     1     -11.805  15.705  29.235  1.00  0.00     0.013 C
HETATM   24  C12 UNL     1     -11.841  16.421  27.880  1.00  0.00     0.011 C
HETATM   25  C13 UNL     1     -10.385  16.705  27.516  1.00  0.00    -0.031 C
HETATM   26  C14 UNL     1     -10.170  17.869  26.641  1.00  0.00     0.019 C
HETATM   27  C19 UNL     1      -9.721  15.562  26.810  1.00  0.00     0.019 C
HETATM   28  C24 UNL     1      -9.863  16.911  28.947  1.00  0.00    -0.026 C
HETATM   29  C15 UNL     1      -8.867  17.511  25.876  1.00  0.00     0.039 C
HETATM   30  C16 UNL     1      -9.203  16.152  25.484  1.00  0.00    -0.040 C
HETATM   31  C20 UNL     1      -7.710  17.925  26.643  1.00  0.00     0.150 C
HETATM   32  C17 UNL     1     -10.442  16.271  24.561  1.00  0.00     0.015 C
HETATM   33  C18 UNL     1      -8.248  15.283  24.786  1.00  0.00     0.015 C
HETATM   34  C22 UNL     1      -7.880  18.185  28.115  1.00  0.00     0.050 C
HETATM   35  C23 UNL     1      -8.369  17.069  28.944  1.00  0.00     0.014 C
HETATM   36  C25 UNL     1     -10.578  18.112  29.497  1.00  0.00     0.016 C
BRANCH  31  37
HETATM   37  O3  UNL     1      -7.463  19.274  26.183  1.00  0.00    -0.378 OA
ATOM     38  H3  UNL     1      -6.874  19.155  25.447  1.00  0.00     0.211 HD
ENDBRANCH  31  37
BRANCH  31  39
HETATM   39  C21 UNL     1      -6.404  17.277  26.409  1.00  0.00     0.209 C
HETATM   40  O4  UNL     1      -5.951  16.436  27.223  1.00  0.00    -0.646 OA
HETATM   41  O5  UNL     1      -5.572  17.515  25.318  1.00  0.00    -0.646 OA
ENDBRANCH  31  39
ENDBRANCH   1  22
TORSDOF 11
ENDMDL