MODEL 2
REMARK VINA RESULT: -9.296552372      3.513      9.955
REMARK  11 active torsions:
REMARK  status: ('A' for Active; 'I' for Inactive)
REMARK    1  A    between atoms: C2_2  and  C3_3
REMARK    2  A    between atoms: C2_2  and  C14_23
REMARK       I    between atoms: C3_3  and  N1_5
REMARK    3  A    between atoms: N1_5  and  C4_7
REMARK    4  A    between atoms: C4_7  and  C5_8
REMARK    5  A    between atoms: C4_7  and  C13_20
REMARK    6  A    between atoms: C5_8  and  C6_9
REMARK    7  A    between atoms: C6_9  and  C7_10
REMARK    8  A    between atoms: C7_10  and  N2_11
REMARK       I    between atoms: N2_11  and  C8_13
REMARK    9  A    between atoms: C8_13  and  O3_15
REMARK   10  A    between atoms: O3_15  and  C9_16
REMARK   11  A    between atoms: C23_32  and  O6_33
ROOT
HETATM    1  C1  UNL     1      -6.137  19.004  26.852  1.00  0.00     0.020 C
HETATM    2  C2  UNL     1      -7.431  18.514  26.269  1.00  0.00     0.078 C
ENDROOT
BRANCH   2   3
HETATM    3  C3  UNL     1      -7.262  18.365  24.807  1.00  0.00     0.222 C
HETATM    4  O1  UNL     1      -6.301  18.926  24.218  1.00  0.00    -0.273 OA
HETATM    5  N1  UNL     1      -8.152  17.602  24.011  1.00  0.00    -0.346 N
ATOM      6  H1  UNL     1      -8.935  17.151  24.483  1.00  0.00     0.163 HD
BRANCH   5   7
HETATM    7  C4  UNL     1      -8.038  17.414  22.600  1.00  0.00     0.185 C
BRANCH   7   8
HETATM    8  C5  UNL     1      -6.967  16.471  22.179  1.00  0.00     0.038 C
BRANCH   8   9
HETATM    9  C6  UNL     1      -6.480  16.664  20.773  1.00  0.00     0.022 C
BRANCH   9  10
HETATM   10  C7  UNL     1      -4.997  17.002  20.737  1.00  0.00     0.125 C
BRANCH  10  11
HETATM   11  N2  UNL     1      -4.512  17.630  21.922  1.00  0.00    -0.337 N
HETATM   12  C8  UNL     1      -3.621  18.741  21.910  1.00  0.00     0.361 C
HETATM   13  O2  UNL     1      -3.195  19.254  20.851  1.00  0.00    -0.238 OA
ATOM     14  H2  UNL     1      -4.819  17.265  22.824  1.00  0.00     0.164 HD
BRANCH  12  15
HETATM   15  O3  UNL     1      -3.208  19.273  23.105  1.00  0.00    -0.294 OA
BRANCH  15  16
HETATM   16  C9  UNL     1      -2.312  18.673  24.004  1.00  0.00     0.061 C
HETATM   17  C10 UNL     1      -3.036  17.947  25.140  1.00  0.00     0.046 C
HETATM   18  C11 UNL     1      -1.375  17.749  23.281  1.00  0.00     0.046 C
HETATM   19  C12 UNL     1      -1.491  19.788  24.646  1.00  0.00     0.046 C
ENDBRANCH  15  16
ENDBRANCH  12  15
ENDBRANCH  10  11
ENDBRANCH   9  10
ENDBRANCH   8   9
ENDBRANCH   7   8
BRANCH   7  20
HETATM   20  C13 UNL     1      -9.371  16.935  22.077  1.00  0.00     0.196 C
HETATM   21  O4  UNL     1      -9.858  17.312  20.994  1.00  0.00    -0.646 OA
HETATM   22  O5  UNL     1     -10.053  16.030  22.875  1.00  0.00    -0.646 OA
ENDBRANCH   7  20
ENDBRANCH   5   7
ENDBRANCH   2   3
BRANCH   2  23
HETATM   23  C14 UNL     1      -7.994  17.295  26.841  1.00  0.00     0.007 C
HETATM   24  C15 UNL     1      -7.091  16.244  27.353  1.00  0.00     0.007 C
HETATM   25  C16 UNL     1      -8.030  15.367  28.197  1.00  0.00     0.006 C
HETATM   26  C17 UNL     1      -9.378  16.021  28.150  1.00  0.00    -0.002 C
HETATM   27  C18 UNL     1     -10.231  15.794  29.336  1.00  0.00    -0.005 C
HETATM   28  C29 UNL     1      -8.986  17.478  27.962  1.00  0.00    -0.036 C
HETATM   29  C19 UNL     1     -10.792  14.418  29.374  1.00  0.00     0.006 C
HETATM   30  C26 UNL     1      -9.547  16.205  30.628  1.00  0.00    -0.005 C
HETATM   31  C20 UNL     1     -11.815  14.381  30.519  1.00  0.00     0.005 C
HETATM   32  C21 UNL     1     -11.058  14.655  31.770  1.00  0.00    -0.008 C
HETATM   33  C22 UNL     1     -11.878  14.704  33.019  1.00  0.00     0.036 C
HETATM   34  C25 UNL     1     -10.561  16.109  31.725  1.00  0.00    -0.004 C
HETATM   35  C23 UNL     1     -10.925  15.425  33.981  1.00  0.00     0.118 C
HETATM   36  C24 UNL     1      -9.966  16.211  33.110  1.00  0.00     0.037 C
HETATM   37  C27 UNL     1      -9.236  17.690  30.447  1.00  0.00     0.006 C
HETATM   38  C28 UNL     1      -8.365  17.943  29.241  1.00  0.00     0.010 C
HETATM   39  C30 UNL     1     -10.152  18.340  27.551  1.00  0.00     0.016 C
BRANCH  35  40
HETATM   40  O6  UNL     1     -11.614  16.224  34.874  1.00  0.00    -0.396 OA
ATOM     41  H6  UNL     1     -11.030  16.614  35.514  1.00  0.00     0.210 HD
ENDBRANCH  35  40
ENDBRANCH   2  23
TORSDOF 11
ENDMDL