MODEL 2
REMARK VINA RESULT: -8.090185441      2.959      6.470
REMARK  8 active torsions:
REMARK  status: ('A' for Active; 'I' for Inactive)
REMARK    1  A    between atoms: N1_2  and  N2_4
REMARK    2  A    between atoms: N2_4  and  C2_6
REMARK    3  A    between atoms: C3_10  and  O2_11
REMARK    4  A    between atoms: C4_13  and  C5_14
REMARK    5  A    between atoms: N4_15  and  N5_17
REMARK    6  A    between atoms: N5_17  and  C6_19
REMARK    7  A    between atoms: C7_22  and  N7_23
REMARK    8  A    between atoms: C8_28  and  N9_29
REMARK       I    between atoms: N9_29  and  C9_31
REMARK       I    between atoms: C9_31  and  N12_36
ROOT
HETATM    1  N9  UNL     1      21.051  10.832  50.635  1.00  0.00    -0.021 N
ATOM      2  H9  UNL     1      21.100  11.816  50.904  1.00  0.00     0.203 HD
HETATM    3  C9  UNL     1      20.380   9.915  51.498  1.00  0.00     0.701 C
HETATM    4  N10 UNL     1      21.013   9.037  52.192  1.00  0.00    -0.126 N
ATOM      5  H10 UNL     1      22.029   8.974  52.142  1.00  0.00     0.197 HD
HETATM    6  C10 UNL     1      20.293   8.172  53.015  1.00  0.00     0.196 C
HETATM    7  N11 UNL     1      19.702   7.451  53.720  1.00  0.00    -0.171 NA
HETATM    8  N12 UNL     1      18.964   9.969  51.594  1.00  0.00    -0.229 N
ATOM      9  H12 UNL     1      18.383   9.458  50.929  1.00  0.00     0.177 HD
HETATM   10  C11 UNL     1      18.350  10.760  52.647  1.00  0.00     0.165 C
ENDROOT
BRANCH   1  11
HETATM   11  C8  UNL     1      21.596  10.462  49.531  1.00  0.00     0.726 A
HETATM   12  N8  UNL     1      22.874  10.756  49.237  1.00  0.00    -0.021 N
HETATM   13  C7  UNL     1      23.428  10.356  48.067  1.00  0.00     0.705 A
ATOM     14  H8  UNL     1      23.434  11.287  49.903  1.00  0.00     0.203 HD
HETATM   15  N6  UNL     1      22.641   9.659  47.226  1.00  0.00    -0.020 N
HETATM   16  C6  UNL     1      21.361   9.345  47.481  1.00  0.00     0.726 A
ATOM     17  H6  UNL     1      23.043   9.350  46.341  1.00  0.00     0.203 HD
HETATM   18  N13 UNL     1      20.846   9.764  48.663  1.00  0.00    -0.019 N
ATOM     19  H13 UNL     1      19.877   9.547  48.896  1.00  0.00     0.203 HD
BRANCH  13  20
HETATM   20  N7  UNL     1      24.652  10.618  47.750  1.00  0.00    -0.234 N
ATOM     21  H72 UNL     1      25.344   9.889  47.576  1.00  0.00     0.174 HD
ATOM     22  H71 UNL     1      24.966  11.584  47.663  1.00  0.00     0.174 HD
ENDBRANCH  13  20
BRANCH  16  23
HETATM   23  N5  UNL     1      20.629   8.666  46.640  1.00  0.00    -0.131 N
ATOM     24  H5  UNL     1      19.878   9.139  46.137  1.00  0.00     0.205 HD
BRANCH  23  25
HETATM   25  N4  UNL     1      20.850   7.326  46.420  1.00  0.00    -0.297 N
HETATM   26  C5  UNL     1      20.497   6.382  47.177  1.00  0.00     0.128 C
ATOM     27  H4  UNL     1      21.344   7.073  45.565  1.00  0.00     0.186 HD
BRANCH  26  28
HETATM   28  C4  UNL     1      20.717   4.973  46.970  1.00  0.00     0.088 A
HETATM   29  C2  UNL     1      19.774   3.972  46.851  1.00  0.00     0.156 A
HETATM   30  N3  UNL     1      20.545   2.819  46.668  1.00  0.00    -0.240 N
HETATM   31  O1  UNL     1      21.778   3.123  46.681  1.00  0.00    -0.210 OA
ATOM     32  H3  UNL     1      20.173   1.878  46.544  1.00  0.00     0.196 HD
HETATM   33  C3  UNL     1      21.994   4.371  46.853  1.00  0.00     0.220 A
BRANCH  29  34
HETATM   34  N2  UNL     1      18.525   3.931  46.877  1.00  0.00    -0.288 N
ATOM     35  H2  UNL     1      18.185   3.823  45.921  1.00  0.00     0.188 HD
BRANCH  34  36
HETATM   36  N1  UNL     1      17.485   3.976  47.690  1.00  0.00    -0.339 N
HETATM   37  C1  UNL     1      17.514   4.483  49.081  1.00  0.00     0.167 C
ATOM     38  H1  UNL     1      16.593   3.636  47.332  1.00  0.00     0.179 HD
ENDBRANCH  34  36
ENDBRANCH  29  34
BRANCH  33  39
HETATM   39  O2  UNL     1      23.188   5.072  46.923  1.00  0.00    -0.339 OA
ATOM     40  H2  UNL     1      23.588   5.667  46.301  1.00  0.00     0.220 HD
ENDBRANCH  33  39
ENDBRANCH  26  28
ENDBRANCH  23  25
ENDBRANCH  16  23
ENDBRANCH   1  11
TORSDOF 8
ENDMDL