MODEL 4
REMARK VINA RESULT: -6.527200693      2.766      6.715
REMARK  8 active torsions:
REMARK  status: ('A' for Active; 'I' for Inactive)
REMARK    1  A    between atoms: C3_4  and  O1_5
REMARK    2  A    between atoms: C4_7  and  N1_8
REMARK    3  A    between atoms: C6_13  and  N2_14
REMARK    4  A    between atoms: C7_18  and  O2_19
REMARK    5  A    between atoms: O2_19  and  C8_20
REMARK    6  A    between atoms: C10_22  and  N3_23
REMARK    7  A    between atoms: C11_27  and  N4_28
REMARK    8  A    between atoms: C12_32  and  N5_33
REMARK       I    between atoms: N5_33  and  C13_35
ROOT
HETATM    1  C8  UNL     1      21.662   5.984  49.718  1.00  0.00     0.265 C
HETATM    2  C9  UNL     1      22.896   5.390  49.071  1.00  0.00     0.096 C
HETATM    3  C10 UNL     1      22.513   4.373  48.003  1.00  0.00     0.222 C
HETATM    4  C11 UNL     1      21.505   3.443  48.609  1.00  0.00     0.262 C
HETATM    5  C12 UNL     1      20.327   4.274  49.065  1.00  0.00     0.260 C
HETATM    6  O4  UNL     1      20.573   5.634  48.925  1.00  0.00    -0.335 OA
ENDROOT
BRANCH   1   7
HETATM    7  O2  UNL     1      21.847   7.337  49.818  1.00  0.00    -0.352 OA
BRANCH   7   8
HETATM    8  C7  UNL     1      22.511   7.902  48.730  1.00  0.00     0.176 C
HETATM    9  C2  UNL     1      21.581   8.841  48.061  1.00  0.00     0.071 C
HETATM   10  C1  UNL     1      20.561   9.419  49.030  1.00  0.00     0.033 C
HETATM   11  S1  UNL     1      20.618   7.901  46.810  1.00  0.00    -0.082 SA
HETATM   12  C3  UNL     1      22.221   9.972  47.328  1.00  0.00     0.170 C
HETATM   13  C4  UNL     1      23.275  10.696  48.084  1.00  0.00     0.215 C
HETATM   14  C5  UNL     1      23.701  10.028  49.349  1.00  0.00     0.070 C
HETATM   15  C6  UNL     1      23.772   8.531  49.252  1.00  0.00     0.216 C
BRANCH  12  16
HETATM   16  O1  UNL     1      21.194  10.884  46.995  1.00  0.00    -0.392 OA
ATOM     17  H1  UNL     1      21.569  11.756  47.039  1.00  0.00     0.210 HD
ENDBRANCH  12  16
BRANCH  13  18
HETATM   18  N1  UNL     1      24.399  10.929  47.173  1.00  0.00    -0.072 N
ATOM     19  H13 UNL     1      25.082  10.172  47.186  1.00  0.00     0.274 HD
ATOM     20  H12 UNL     1      24.135  10.855  46.191  1.00  0.00     0.274 HD
ATOM     21  H11 UNL     1      24.807  11.834  47.407  1.00  0.00     0.274 HD
ENDBRANCH  13  18
BRANCH  15  22
HETATM   22  N2  UNL     1      24.923   8.145  48.448  1.00  0.00    -0.072 N
ATOM     23  H23 UNL     1      25.623   8.886  48.398  1.00  0.00     0.274 HD
ATOM     24  H22 UNL     1      25.493   7.435  48.908  1.00  0.00     0.274 HD
ATOM     25  H21 UNL     1      24.613   7.849  47.523  1.00  0.00     0.274 HD
ENDBRANCH  15  22
ENDBRANCH   7   8
ENDBRANCH   1   7
BRANCH   3  26
HETATM   26  N3  UNL     1      23.701   3.658  47.585  1.00  0.00    -0.073 N
ATOM     27  H33 UNL     1      24.426   3.656  48.304  1.00  0.00     0.274 HD
ATOM     28  H32 UNL     1      23.551   2.651  47.532  1.00  0.00     0.274 HD
ATOM     29  H31 UNL     1      24.030   4.050  46.702  1.00  0.00     0.274 HD
ENDBRANCH   3  26
BRANCH   5  30
HETATM   30  N5  UNL     1      19.193   3.909  48.239  1.00  0.00    -0.317 N
HETATM   31  C13 UNL     1      17.866   4.275  48.621  1.00  0.00     0.330 C
HETATM   32  N6  UNL     1      16.731   3.946  47.856  1.00  0.00    -0.040 NA
HETATM   33  O3  UNL     1      17.706   4.922  49.692  1.00  0.00    -0.251 OA
ATOM     34  H5  UNL     1      19.344   3.385  47.377  1.00  0.00     0.166 HD
ENDBRANCH   5  30
BRANCH   4  35
HETATM   35  N4  UNL     1      21.117   2.490  47.571  1.00  0.00    -0.069 N
ATOM     36  H43 UNL     1      20.769   1.609  47.948  1.00  0.00     0.275 HD
ATOM     37  H42 UNL     1      20.270   2.765  47.073  1.00  0.00     0.275 HD
ATOM     38  H41 UNL     1      21.921   2.370  46.954  1.00  0.00     0.275 HD
ENDBRANCH   4  35
TORSDOF 8
ENDMDL