MODEL 1
REMARK VINA RESULT: -7.014849785      0.000      0.000
REMARK  10 active torsions:
REMARK  status: ('A' for Active; 'I' for Inactive)
REMARK    1  A    between atoms: C3_4  and  O2_5
REMARK    2  A    between atoms: O2_5  and  C4_6
REMARK    3  A    between atoms: C5_7  and  N1_8
REMARK    4  A    between atoms: C7_13  and  N2_14
REMARK    5  A    between atoms: C7_13  and  C8_18
REMARK    6  A    between atoms: C8_18  and  O3_19
REMARK    7  A    between atoms: C9_21  and  O4_22
REMARK    8  A    between atoms: C10_24  and  N3_25
REMARK       I    between atoms: N3_25  and  C11_27
REMARK    9  A    between atoms: C12_30  and  N5_31
REMARK   10  A    between atoms: C14_36  and  N6_37
ROOT
HETATM    1  C4  UNL     1      21.009   8.546  48.219  1.00  0.00     0.180 C
HETATM    2  C5  UNL     1      19.727   8.195  48.961  1.00  0.00     0.217 C
HETATM    3  C6  UNL     1      20.071   8.044  50.402  1.00  0.00     0.079 C
HETATM    4  C7  UNL     1      20.701   9.258  51.000  1.00  0.00     0.174 C
HETATM    5  C9  UNL     1      21.612  10.041  50.156  1.00  0.00     0.181 C
HETATM    6  C10 UNL     1      21.539   9.872  48.679  1.00  0.00     0.148 C
ENDROOT
BRANCH   1   7
HETATM    7  O2  UNL     1      21.927   7.530  48.311  1.00  0.00    -0.350 OA
BRANCH   7   8
HETATM    8  C3  UNL     1      21.350   6.261  48.169  1.00  0.00     0.291 C
HETATM    9  O1  UNL     1      21.184   6.027  46.831  1.00  0.00    -0.352 OA
HETATM   10  C2  UNL     1      20.734   4.766  46.509  1.00  0.00     0.151 C
HETATM   11  C1  UNL     1      19.282   4.546  46.871  1.00  0.00     0.042 C
HETATM   12  C14 UNL     1      21.550   3.662  47.102  1.00  0.00     0.214 C
HETATM   13  C13 UNL     1      21.746   3.897  48.586  1.00  0.00     0.073 C
HETATM   14  C12 UNL     1      22.401   5.279  48.701  1.00  0.00     0.240 C
BRANCH  12  15
HETATM   15  N6  UNL     1      20.838   2.409  46.958  1.00  0.00    -0.072 N
ATOM     16  H63 UNL     1      19.967   2.517  46.438  1.00  0.00     0.274 HD
ATOM     17  H62 UNL     1      21.310   1.768  46.320  1.00  0.00     0.274 HD
ATOM     18  H61 UNL     1      20.689   1.997  47.879  1.00  0.00     0.274 HD
ENDBRANCH  12  15
BRANCH  14  19
HETATM   19  N5  UNL     1      23.490   5.296  47.757  1.00  0.00    -0.070 N
ATOM     20  H53 UNL     1      23.251   5.744  46.873  1.00  0.00     0.274 HD
ATOM     21  H52 UNL     1      24.243   5.931  48.021  1.00  0.00     0.274 HD
ATOM     22  H51 UNL     1      23.795   4.328  47.652  1.00  0.00     0.274 HD
ENDBRANCH  14  19
ENDBRANCH   7   8
ENDBRANCH   1   7
BRANCH   2  23
HETATM   23  N1  UNL     1      18.705   9.153  48.670  1.00  0.00    -0.072 N
ATOM     24  H13 UNL     1      18.084   9.301  49.467  1.00  0.00     0.274 HD
ATOM     25  H12 UNL     1      19.081  10.098  48.595  1.00  0.00     0.274 HD
ATOM     26  H11 UNL     1      18.190   8.880  47.833  1.00  0.00     0.274 HD
ENDBRANCH   2  23
BRANCH   6  27
HETATM   27  N3  UNL     1      22.855  10.045  48.129  1.00  0.00    -0.336 N
HETATM   28  C11 UNL     1      23.052  10.731  46.921  1.00  0.00     0.329 C
HETATM   29  N4  UNL     1      24.332  10.934  46.326  1.00  0.00    -0.040 NA
HETATM   30  O5  UNL     1      22.072  11.224  46.272  1.00  0.00    -0.251 OA
ATOM     31  H3  UNL     1      23.659   9.662  48.625  1.00  0.00     0.164 HD
ENDBRANCH   6  27
BRANCH   5  32
HETATM   32  O4  UNL     1      21.412  11.402  50.417  1.00  0.00    -0.391 OA
ATOM     33  H4  UNL     1      20.726  11.725  49.844  1.00  0.00     0.210 HD
ENDBRANCH   5  32
BRANCH   4  34
HETATM   34  N2  UNL     1      21.411   8.761  52.198  1.00  0.00    -0.066 N
ATOM     35  H23 UNL     1      21.164   9.247  53.060  1.00  0.00     0.275 HD
ATOM     36  H22 UNL     1      21.115   7.832  52.500  1.00  0.00     0.275 HD
ATOM     37  H21 UNL     1      22.400   8.823  51.956  1.00  0.00     0.275 HD
ENDBRANCH   4  34
BRANCH   4  38
HETATM   38  C8  UNL     1      19.576  10.114  51.582  1.00  0.00     0.205 C
BRANCH  38  39
HETATM   39  O3  UNL     1      19.955  10.668  52.801  1.00  0.00    -0.398 OA
ATOM     40  H3  UNL     1      20.361  11.518  52.674  1.00  0.00     0.209 HD
ENDBRANCH  38  39
ENDBRANCH   4  38
TORSDOF 10
ENDMDL