MODEL 3
REMARK VINA RESULT: -6.019716836      3.255      5.350
REMARK  10 active torsions:
REMARK  status: ('A' for Active; 'I' for Inactive)
REMARK    1  A    between atoms: N1_1  and  C1_5
REMARK    2  A    between atoms: C3_7  and  O1_8
REMARK    3  A    between atoms: O1_8  and  C4_9
REMARK    4  A    between atoms: C5_10  and  N2_11
REMARK    5  A    between atoms: C6_15  and  N3_16
REMARK       I    between atoms: N3_16  and  C7_18
REMARK    6  A    between atoms: C7_18  and  C8_20
REMARK    7  A    between atoms: C11_26  and  N5_27
REMARK    8  A    between atoms: C13_32  and  N6_33
REMARK    9  A    between atoms: C14_37  and  O3_38
REMARK   10  A    between atoms: C15_40  and  N7_41
ROOT
HETATM    1  C4  UNL     1      21.867   6.934  48.857  1.00  0.00     0.187 C
HETATM    2  C5  UNL     1      20.861   7.807  49.578  1.00  0.00     0.237 C
HETATM    3  C6  UNL     1      20.259   7.149  50.780  1.00  0.00     0.119 C
HETATM    4  C12 UNL     1      19.456   5.951  50.582  1.00  0.00     0.062 C
HETATM    5  C13 UNL     1      19.180   5.483  49.197  1.00  0.00     0.216 C
HETATM    6  C14 UNL     1      20.429   4.931  48.510  1.00  0.00     0.181 C
HETATM    7  C15 UNL     1      21.205   6.025  47.851  1.00  0.00     0.244 C
ENDROOT
BRANCH   3   8
HETATM    8  N3  UNL     1      19.515   8.172  51.502  1.00  0.00    -0.352 N
HETATM    9  C7  UNL     1      20.120   9.121  52.346  1.00  0.00     0.251 C
HETATM   10  O2  UNL     1      21.356   9.108  52.502  1.00  0.00    -0.271 OA
ATOM     11  H3  UNL     1      18.502   8.201  51.390  1.00  0.00     0.163 HD
BRANCH   9  12
HETATM   12  C8  UNL     1      19.330  10.137  53.056  1.00  0.00     0.307 C
HETATM   13  N4  UNL     1      18.030  10.354  52.509  1.00  0.00    -0.060 N
HETATM   14  C9  UNL     1      17.580  11.540  53.251  1.00  0.00     0.235 C
ATOM     15  H42 UNL     1      17.998  10.441  51.493  1.00  0.00     0.278 HD
ATOM     16  H41 UNL     1      17.403   9.551  52.556  1.00  0.00     0.278 HD
HETATM   17  C10 UNL     1      18.810  12.407  53.397  1.00  0.00     0.063 C
HETATM   18  C11 UNL     1      19.964  11.507  53.007  1.00  0.00     0.225 C
BRANCH  18  19
HETATM   19  N5  UNL     1      20.372  11.859  51.676  1.00  0.00    -0.072 N
ATOM     20  H53 UNL     1      21.309  11.512  51.472  1.00  0.00     0.274 HD
ATOM     21  H52 UNL     1      19.850  11.333  50.976  1.00  0.00     0.274 HD
ATOM     22  H51 UNL     1      20.304  12.864  51.512  1.00  0.00     0.274 HD
ENDBRANCH  18  19
ENDBRANCH   9  12
ENDBRANCH   3   8
BRANCH   2  23
HETATM   23  N2  UNL     1      19.928   8.422  48.685  1.00  0.00    -0.070 N
ATOM     24  H23 UNL     1      19.827   7.877  47.828  1.00  0.00     0.274 HD
ATOM     25  H22 UNL     1      18.975   8.348  49.041  1.00  0.00     0.274 HD
ATOM     26  H21 UNL     1      20.167   9.392  48.476  1.00  0.00     0.274 HD
ENDBRANCH   2  23
BRANCH   1  27
HETATM   27  O1  UNL     1      22.695   7.800  48.141  1.00  0.00    -0.376 OA
BRANCH  27  28
HETATM   28  C3  UNL     1      23.267   8.770  48.954  1.00  0.00     0.126 C
HETATM   29  C2  UNL     1      24.754   8.448  49.124  1.00  0.00     0.065 C
HETATM   30  C1  UNL     1      25.013   9.943  48.935  1.00  0.00     0.188 C
HETATM   31  C16 UNL     1      23.680  10.007  48.196  1.00  0.00     0.065 C
BRANCH  30  32
HETATM   32  N1  UNL     1      26.155  10.252  48.129  1.00  0.00    -0.075 N
ATOM     33  H13 UNL     1      26.768  10.904  48.619  1.00  0.00     0.274 HD
ATOM     34  H12 UNL     1      26.773   9.443  48.066  1.00  0.00     0.274 HD
ATOM     35  H11 UNL     1      25.933  10.603  47.198  1.00  0.00     0.274 HD
ENDBRANCH  30  32
ENDBRANCH  27  28
ENDBRANCH   1  27
BRANCH   5  36
HETATM   36  N6  UNL     1      18.286   4.314  49.321  1.00  0.00    -0.072 N
ATOM     37  H63 UNL     1      18.243   3.937  50.268  1.00  0.00     0.274 HD
ATOM     38  H62 UNL     1      17.298   4.549  49.233  1.00  0.00     0.274 HD
ATOM     39  H61 UNL     1      18.602   3.634  48.629  1.00  0.00     0.274 HD
ENDBRANCH   5  36
BRANCH   7  40
HETATM   40  N7  UNL     1      22.253   5.409  47.054  1.00  0.00    -0.070 N
ATOM     41  H73 UNL     1      22.810   6.090  46.538  1.00  0.00     0.274 HD
ATOM     42  H72 UNL     1      23.006   5.021  47.622  1.00  0.00     0.274 HD
ATOM     43  H71 UNL     1      21.814   4.715  46.449  1.00  0.00     0.274 HD
ENDBRANCH   7  40
BRANCH   6  44
HETATM   44  O3  UNL     1      21.157   4.175  49.395  1.00  0.00    -0.391 OA
ATOM     45  H3  UNL     1      20.772   3.310  49.476  1.00  0.00     0.210 HD
ENDBRANCH   6  44
TORSDOF 10
ENDMDL