MODEL 1
REMARK VINA RESULT: -7.111918230      0.000      0.000
REMARK  7 active torsions:
REMARK  status: ('A' for Active; 'I' for Inactive)
REMARK    1  A    between atoms: N1_1  and  C1_5
REMARK    2  A    between atoms: C1_5  and  O1_6
REMARK    3  A    between atoms: C1_5  and  C2_8
REMARK    4  A    between atoms: C2_8  and  N2_9
REMARK    5  A    between atoms: C2_8  and  C3_13
REMARK       I    between atoms: C3_13  and  N3_15
REMARK    6  A    between atoms: N3_15  and  C4_17
REMARK    7  A    between atoms: C4_17  and  C5_18
ROOT
HETATM    1  C5  UNL     1      20.280   8.222  49.893  1.00  0.00     0.294 C
HETATM    2  N4  UNL     1      19.474   9.424  49.889  1.00  0.00    -0.061 N
ATOM      3  H41 UNL     1      18.785   9.412  50.640  1.00  0.00     0.278 HD
ATOM      4  H42 UNL     1      18.840   9.443  49.090  1.00  0.00     0.278 HD
HETATM    5  C6  UNL     1      20.293  10.621  49.942  1.00  0.00     0.235 C
HETATM    6  C7  UNL     1      20.316  11.278  51.283  1.00  0.00     0.055 C
HETATM    7  C8  UNL     1      21.557  11.038  52.082  1.00  0.00     0.233 C
HETATM    8  N5  UNL     1      22.764  11.531  51.498  1.00  0.00    -0.075 N
ATOM      9  H51 UNL     1      22.858  12.540  51.602  1.00  0.00     0.277 HD
ATOM     10  H52 UNL     1      22.744  11.490  50.479  1.00  0.00     0.277 HD
HETATM   11  C9  UNL     1      23.896  10.815  52.051  1.00  0.00     0.232 C
HETATM   12  C10 UNL     1      25.157  10.975  51.264  1.00  0.00     0.029 C
HETATM   13  C11 UNL     1      25.355   9.961  50.178  1.00  0.00     0.029 C
HETATM   14  C12 UNL     1      25.279   8.542  50.646  1.00  0.00     0.232 C
HETATM   15  N6  UNL     1      25.458   7.676  49.496  1.00  0.00    -0.074 N
ATOM     16  H61 UNL     1      26.268   7.066  49.608  1.00  0.00     0.277 HD
ATOM     17  H62 UNL     1      25.769   8.200  48.678  1.00  0.00     0.277 HD
HETATM   18  C13 UNL     1      24.238   6.907  49.213  1.00  0.00     0.251 C
HETATM   19  C14 UNL     1      23.202   7.889  48.782  1.00  0.00     0.150 C
HETATM   20  N7  UNL     1      21.995   7.291  48.249  1.00  0.00    -0.358 N
ATOM     21  H7  UNL     1      22.087   6.483  47.633  1.00  0.00     0.162 HD
HETATM   22  C15 UNL     1      20.688   7.772  48.542  1.00  0.00     0.250 C
HETATM   23  O3  UNL     1      19.831   7.825  47.626  1.00  0.00    -0.271 OA
ENDROOT
BRANCH   1  24
HETATM   24  C4  UNL     1      19.513   7.147  50.626  1.00  0.00     0.165 C
BRANCH  24  25
HETATM   25  N3  UNL     1      19.607   5.899  49.900  1.00  0.00    -0.357 N
HETATM   26  C3  UNL     1      18.436   5.174  49.520  1.00  0.00     0.252 C
HETATM   27  O2  UNL     1      17.317   5.650  49.832  1.00  0.00    -0.271 OA
ATOM     28  H3  UNL     1      20.526   5.529  49.655  1.00  0.00     0.162 HD
BRANCH  26  29
HETATM   29  C2  UNL     1      18.467   3.893  48.777  1.00  0.00     0.330 C
BRANCH  29  30
HETATM   30  C1  UNL     1      18.207   4.092  47.300  1.00  0.00     0.356 C
BRANCH  30  31
HETATM   31  N1  UNL     1      16.818   4.366  47.024  1.00  0.00    -0.051 N
ATOM     32  H13 UNL     1      16.679   5.311  46.667  1.00  0.00     0.277 HD
ATOM     33  H12 UNL     1      16.481   3.848  46.213  1.00  0.00     0.277 HD
ATOM     34  H11 UNL     1      16.253   4.185  47.854  1.00  0.00     0.277 HD
ENDBRANCH  30  31
BRANCH  30  35
HETATM   35  O1  UNL     1      19.013   5.135  46.803  1.00  0.00    -0.368 OA
ATOM     36  H1  UNL     1      18.714   5.970  47.144  1.00  0.00     0.212 HD
ENDBRANCH  30  35
ENDBRANCH  29  30
BRANCH  29  37
HETATM   37  N2  UNL     1      19.807   3.347  48.929  1.00  0.00    -0.062 N
ATOM     38  H23 UNL     1      20.214   3.048  48.044  1.00  0.00     0.275 HD
ATOM     39  H22 UNL     1      20.499   4.060  49.164  1.00  0.00     0.275 HD
ATOM     40  H21 UNL     1      19.765   2.596  49.618  1.00  0.00     0.275 HD
ENDBRANCH  29  37
ENDBRANCH  26  29
ENDBRANCH  24  25
ENDBRANCH   1  24
TORSDOF 7
ENDMDL