MODEL 1
REMARK VINA RESULT: -7.469273011      0.000      0.000
REMARK  8 active torsions:
REMARK  status: ('A' for Active; 'I' for Inactive)
REMARK    1  A    between atoms: N1_2  and  C2_4
REMARK    2  A    between atoms: C2_4  and  N2_6
REMARK    3  A    between atoms: N2_6  and  N3_8
REMARK    4  A    between atoms: C3_9  and  C4_10
REMARK       I    between atoms: C4_10  and  N4_12
REMARK       I    between atoms: N4_12  and  C5_14
REMARK    5  A    between atoms: N6_16  and  O2_18
REMARK    6  A    between atoms: C6_23  and  O3_24
REMARK    7  A    between atoms: C6_23  and  C7_26
REMARK    8  A    between atoms: C8_29  and  C9_30
ROOT
HETATM    1  N3  UNL     1      22.063   9.957  48.690  1.00  0.00    -0.170 NA
HETATM    2  C3  UNL     1      21.945  10.955  49.739  1.00  0.00     0.377 C
HETATM    3  N7  UNL     1      23.181  10.715  50.506  1.00  0.00    -0.003 N
ATOM      4  H71 UNL     1      23.206   9.857  51.058  1.00  0.00     0.284 HD
ATOM      5  H72 UNL     1      23.338  11.327  51.307  1.00  0.00     0.284 HD
HETATM    6  C6  UNL     1      24.151  10.810  49.433  1.00  0.00     0.343 C
HETATM    7  C8  UNL     1      23.472  10.019  48.337  1.00  0.00     0.258 C
ENDROOT
BRANCH   2   8
HETATM    8  C4  UNL     1      20.760  10.788  50.581  1.00  0.00     0.271 C
HETATM    9  O1  UNL     1      19.926   9.895  50.281  1.00  0.00    -0.269 OA
HETATM   10  N4  UNL     1      20.549  11.603  51.705  1.00  0.00    -0.297 N
HETATM   11  C5  UNL     1      19.406  11.453  52.532  1.00  0.00     0.214 C
ATOM     12  H4  UNL     1      21.236  12.321  51.933  1.00  0.00     0.171 HD
HETATM   13  N5  UNL     1      18.426  10.464  52.249  1.00  0.00    -0.061 NA
HETATM   14  N6  UNL     1      19.207  12.203  53.570  1.00  0.00    -0.241 N
ATOM     15  H6  UNL     1      19.896  12.920  53.798  1.00  0.00     0.197 HD
BRANCH  14  16
HETATM   16  O2  UNL     1      18.109  12.068  54.373  1.00  0.00    -0.287 OA
ATOM     17  H2  UNL     1      18.117  11.540  55.162  1.00  0.00     0.244 HD
ENDBRANCH  14  16
ENDBRANCH   2   8
BRANCH   1  18
HETATM   18  N2  UNL     1      21.828   8.670  49.194  1.00  0.00    -0.292 N
ATOM     19  H2  UNL     1      21.447   8.567  50.134  1.00  0.00     0.183 HD
BRANCH  18  20
HETATM   20  C2  UNL     1      22.102   7.517  48.436  1.00  0.00     0.182 C
HETATM   21  S1  UNL     1      23.130   6.392  49.001  1.00  0.00    -0.040 SA
BRANCH  20  22
HETATM   22  N1  UNL     1      21.503   7.312  47.188  1.00  0.00    -0.371 N
HETATM   23  C1  UNL     1      21.098   5.983  46.811  1.00  0.00     0.148 C
ATOM     24  H1  UNL     1      21.356   8.096  46.552  1.00  0.00     0.161 HD
ENDBRANCH  20  22
ENDBRANCH  18  20
ENDBRANCH   1  18
BRANCH   7  25
HETATM   25  C9  UNL     1      23.708  10.753  47.083  1.00  0.00     0.199 C
HETATM   26  O6  UNL     1      24.782  10.549  46.466  1.00  0.00    -0.647 OA
HETATM   27  O7  UNL     1      22.760  11.643  46.612  1.00  0.00    -0.647 OA
ENDBRANCH   7  25
BRANCH   6  28
HETATM   28  O3  UNL     1      24.233  12.145  49.055  1.00  0.00    -0.355 OA
ATOM     29  H3  UNL     1      24.778  12.192  48.278  1.00  0.00     0.213 HD
ENDBRANCH   6  28
BRANCH   6  30
HETATM   30  C7  UNL     1      25.450  10.231  49.783  1.00  0.00     0.241 C
HETATM   31  O4  UNL     1      25.484   9.115  50.349  1.00  0.00    -0.644 OA
HETATM   32  O5  UNL     1      26.613  10.905  49.492  1.00  0.00    -0.644 OA
ENDBRANCH   6  30
TORSDOF 8
ENDMDL