MODEL 4
REMARK VINA RESULT: -6.680102360      1.450      1.590
REMARK  7 active torsions:
REMARK  status: ('A' for Active; 'I' for Inactive)
REMARK    1  A    between atoms: C2_2  and  N1_3
REMARK    2  A    between atoms: C2_2  and  C3_7
REMARK    3  A    between atoms: C2_2  and  C4_10
REMARK       I    between atoms: C4_10  and  N3_12
REMARK       I    between atoms: N3_12  and  C5_14
REMARK       I    between atoms: C5_14  and  N4_16
REMARK    4  A    between atoms: N4_16  and  N5_18
REMARK    5  A    between atoms: C6_19  and  O4_20
REMARK    6  A    between atoms: C9_24  and  O5_25
REMARK    7  A    between atoms: C10_27  and  C11_28
ROOT
HETATM    1  N5  UNL     1      21.906   8.423  49.414  1.00  0.00    -0.206 N
HETATM    2  C6  UNL     1      23.212   8.632  49.296  1.00  0.00     0.172 A
HETATM    3  C7  UNL     1      23.440   9.597  48.284  1.00  0.00     0.033 A
HETATM    4  C8  UNL     1      22.232   9.961  47.801  1.00  0.00     0.048 A
HETATM    5  C9  UNL     1      21.292   9.251  48.484  1.00  0.00     0.173 A
HETATM    6  C10 UNL     1      22.400  10.987  46.723  1.00  0.00     0.324 C
HETATM    7  N6  UNL     1      23.800  11.262  46.703  1.00  0.00    -0.053 N
ATOM      8  H61 UNL     1      24.004  12.232  46.945  1.00  0.00     0.279 HD
ATOM      9  H62 UNL     1      24.178  11.264  45.755  1.00  0.00     0.279 HD
HETATM   10  C12 UNL     1      24.488  10.338  47.554  1.00  0.00     0.277 C
ENDROOT
BRANCH   1  11
HETATM   11  N4  UNL     1      21.176   7.590  50.225  1.00  0.00    -0.240 N
HETATM   12  C5  UNL     1      21.016   6.148  50.123  1.00  0.00     0.342 C
HETATM   13  N3  UNL     1      20.191   5.587  51.067  1.00  0.00    -0.275 N
HETATM   14  O3  UNL     1      21.632   5.616  49.207  1.00  0.00    -0.245 OA
HETATM   15  C4  UNL     1      20.235   3.985  50.494  1.00  0.00     0.270 C
ATOM     16  H3  UNL     1      19.705   6.000  51.863  1.00  0.00     0.173 HD
HETATM   17  O2  UNL     1      20.875   3.849  49.531  1.00  0.00    -0.270 OA
ATOM     18  H4  UNL     1      20.683   8.040  50.997  1.00  0.00     0.192 HD
BRANCH  15  19
HETATM   19  C2  UNL     1      19.500   3.023  51.254  1.00  0.00     0.276 C
HETATM   20  C1  UNL     1      20.187   2.617  52.560  1.00  0.00     0.067 C
BRANCH  19  21
HETATM   21  N1  UNL     1      19.541   1.767  50.431  1.00  0.00    -0.053 N
ATOM     22  H13 UNL     1      18.984   0.999  50.804  1.00  0.00     0.276 HD
ATOM     23  H12 UNL     1      19.052   1.830  49.538  1.00  0.00     0.276 HD
ATOM     24  H11 UNL     1      20.538   1.567  50.353  1.00  0.00     0.276 HD
ENDBRANCH  19  21
BRANCH  19  25
HETATM   25  C3  UNL     1      18.057   3.280  51.451  1.00  0.00     0.276 C
HETATM   26  N2  UNL     1      17.502   4.533  51.826  1.00  0.00    -0.059 NA
HETATM   27  O1  UNL     1      17.241   2.313  51.279  1.00  0.00    -0.274 OA
ENDBRANCH  19  25
ENDBRANCH  15  19
ENDBRANCH   1  11
BRANCH   2  28
HETATM   28  O4  UNL     1      24.289   8.069  49.983  1.00  0.00    -0.344 OA
ATOM     29  H4  UNL     1      24.902   7.391  49.724  1.00  0.00     0.219 HD
ENDBRANCH   2  28
BRANCH   5  30
HETATM   30  O5  UNL     1      19.915   9.313  48.307  1.00  0.00    -0.344 OA
ATOM     31  H5  UNL     1      19.433  10.128  48.242  1.00  0.00     0.219 HD
ENDBRANCH   5  30
BRANCH   6  32
HETATM   32  C11 UNL     1      21.867  10.399  45.479  1.00  0.00     0.209 C
HETATM   33  O6  UNL     1      21.115   9.421  45.390  1.00  0.00    -0.646 OA
HETATM   34  O7  UNL     1      22.259  11.025  44.284  1.00  0.00    -0.646 OA
ENDBRANCH   6  32
TORSDOF 7
ENDMDL