MODEL 3
REMARK VINA RESULT: -7.434140813      2.827      6.946
REMARK  8 active torsions:
REMARK  status: ('A' for Active; 'I' for Inactive)
REMARK    1  A    between atoms: C3_5  and  C4_6
REMARK    2  A    between atoms: C4_6  and  C5_7
REMARK    3  A    between atoms: C4_6  and  N5_13
REMARK    4  A    between atoms: C5_7  and  N2_8
REMARK    5  A    between atoms: N5_13  and  C7_15
REMARK       I    between atoms: N8_20  and  C9_21
REMARK    6  A    between atoms: C10_27  and  O2_28
REMARK    7  A    between atoms: C10_27  and  C11_30
REMARK    8  A    between atoms: C11_30  and  O3_32
ROOT
HETATM    1  C4  UNL     1      19.135   7.499  50.221  1.00  0.00     0.152 C
ENDROOT
BRANCH   1   2
HETATM    2  C3  UNL     1      20.053   7.094  49.133  1.00  0.00     0.201 C
HETATM    3  C2  UNL     1      21.338   7.778  48.927  1.00  0.00     0.078 C
HETATM    4  N1  UNL     1      22.577   7.786  49.174  1.00  0.00    -0.394 N
HETATM    5  C10 UNL     1      20.578   8.732  48.043  1.00  0.00     0.232 C
HETATM    6  C1  UNL     1      23.352   6.895  49.938  1.00  0.00     0.146 C
ATOM      7  H1  UNL     1      23.095   8.559  48.755  1.00  0.00     0.158 HD
HETATM    8  O1  UNL     1      19.624   7.761  47.939  1.00  0.00    -0.335 OA
BRANCH   5   9
HETATM    9  O2  UNL     1      20.310   9.919  48.646  1.00  0.00    -0.359 OA
ATOM     10  H2  UNL     1      19.540  10.350  48.295  1.00  0.00     0.213 HD
ENDBRANCH   5   9
BRANCH   5  11
HETATM   11  C11 UNL     1      21.238   8.957  46.699  1.00  0.00     0.182 C
HETATM   12  C12 UNL     1      21.900  10.330  46.655  1.00  0.00     0.045 C
BRANCH  11  13
HETATM   13  O3  UNL     1      20.349   8.902  45.645  1.00  0.00    -0.390 OA
ATOM     14  H3  UNL     1      19.710   9.606  45.661  1.00  0.00     0.210 HD
ENDBRANCH  11  13
ENDBRANCH   5  11
ENDBRANCH   1   2
BRANCH   1  15
HETATM   15  C5  UNL     1      18.258   6.294  50.609  1.00  0.00     0.150 C
BRANCH  15  16
HETATM   16  N2  UNL     1      17.632   5.795  49.414  1.00  0.00    -0.365 N
HETATM   17  C6  UNL     1      17.472   4.568  49.116  1.00  0.00     0.197 C
HETATM   18  N3  UNL     1      17.889   3.478  49.924  1.00  0.00    -0.067 NA
HETATM   19  N4  UNL     1      16.830   4.256  47.889  1.00  0.00    -0.067 NA
ATOM     20  H2  UNL     1      17.287   6.485  48.747  1.00  0.00     0.161 HD
ENDBRANCH  15  16
ENDBRANCH   1  15
BRANCH   1  21
HETATM   21  N5  UNL     1      19.690   8.034  51.417  1.00  0.00    -0.216 N
ATOM     22  H5  UNL     1      20.444   7.494  51.843  1.00  0.00     0.178 HD
BRANCH  21  23
HETATM   23  C7  UNL     1      19.322   9.228  52.088  1.00  0.00     0.696 C
HETATM   24  N6  UNL     1      19.565  10.394  51.620  1.00  0.00    -0.135 N
HETATM   25  N7  UNL     1      19.115  11.396  52.446  1.00  0.00    -0.105 NA
ATOM     26  H6  UNL     1      20.040  10.562  50.732  1.00  0.00     0.201 HD
HETATM   27  C8  UNL     1      18.277  10.773  53.436  1.00  0.00     0.286 C
HETATM   28  N8  UNL     1      18.658   9.379  53.338  1.00  0.00    -0.139 N
HETATM   29  C9  UNL     1      18.426   8.339  54.294  1.00  0.00     0.204 C
HETATM   30  N9  UNL     1      19.336   7.540  54.726  1.00  0.00    -0.373 N
HETATM   31  N10 UNL     1      17.106   8.194  54.790  1.00  0.00    -0.063 NA
ATOM     32  H92 UNL     1      20.286   7.644  54.369  1.00  0.00     0.158 HD
ATOM     33  H91 UNL     1      19.170   6.799  55.406  1.00  0.00     0.158 HD
ENDBRANCH  21  23
ENDBRANCH   1  21
TORSDOF 8
ENDMDL