MODEL 1
REMARK VINA RESULT: -6.709057205      0.000      0.000
REMARK  13 active torsions:
REMARK  status: ('A' for Active; 'I' for Inactive)
REMARK    1  A    between atoms: C2_2  and  O1_3
REMARK    2  A    between atoms: C5_7  and  C6_8
REMARK    3  A    between atoms: C6_8  and  O2_9
REMARK    4  A    between atoms: C6_8  and  C7_11
REMARK    5  A    between atoms: C7_11  and  N1_12
REMARK    6  A    between atoms: C7_11  and  C8_16
REMARK    7  A    between atoms: C8_16  and  O3_17
REMARK    8  A    between atoms: C8_16  and  C9_19
REMARK    9  A    between atoms: C9_19  and  O4_20
REMARK   10  A    between atoms: C11_23  and  O5_25
REMARK   11  A    between atoms: C13_27  and  O6_28
REMARK   12  A    between atoms: C14_30  and  N2_31
REMARK   13  A    between atoms: C15_35  and  O7_37
ROOT
HETATM    1  C1  UNL     1      18.631   5.376  51.197  1.00  0.00     0.046 C
HETATM    2  C2  UNL     1      18.780   6.072  49.909  1.00  0.00     0.062 C
HETATM    3  C3  UNL     1      19.661   5.194  49.010  1.00  0.00     0.039 C
HETATM    4  C4  UNL     1      20.304   6.190  48.130  1.00  0.00     0.019 C
HETATM    5  C5  UNL     1      20.497   7.488  48.888  1.00  0.00     0.030 C
HETATM    6  C10 UNL     1      19.303   7.446  49.835  1.00  0.00     0.070 C
HETATM    7  C11 UNL     1      19.468   8.230  51.088  1.00  0.00     0.089 C
HETATM    8  C12 UNL     1      19.066   9.712  50.912  1.00  0.00     0.049 C
HETATM    9  C13 UNL     1      20.839   8.281  51.674  1.00  0.00     0.186 C
HETATM   10  C14 UNL     1      21.875   8.603  50.597  1.00  0.00     0.249 C
HETATM   11  C15 UNL     1      21.769   7.405  49.647  1.00  0.00     0.095 C
HETATM   12  C16 UNL     1      23.032   7.314  48.920  1.00  0.00     0.049 C
ENDROOT
BRANCH   5  13
HETATM   13  C6  UNL     1      20.312   8.608  47.960  1.00  0.00     0.163 C
BRANCH  13  14
HETATM   14  O2  UNL     1      19.062   8.396  47.311  1.00  0.00    -0.392 OA
ATOM     15  H2  UNL     1      18.905   9.159  46.769  1.00  0.00     0.210 HD
ENDBRANCH  13  14
BRANCH  13  16
HETATM   16  C7  UNL     1      21.243   8.921  46.884  1.00  0.00     0.243 C
BRANCH  16  17
HETATM   17  N1  UNL     1      20.845   8.598  45.548  1.00  0.00    -0.070 N
ATOM     18  H13 UNL     1      19.834   8.469  45.520  1.00  0.00     0.274 HD
ATOM     19  H12 UNL     1      20.949   9.422  44.957  1.00  0.00     0.274 HD
ATOM     20  H11 UNL     1      21.299   7.802  45.099  1.00  0.00     0.274 HD
ENDBRANCH  16  17
BRANCH  16  21
HETATM   21  C8  UNL     1      21.522  10.436  46.990  1.00  0.00     0.174 C
BRANCH  21  22
HETATM   22  O3  UNL     1      20.683  11.024  47.936  1.00  0.00    -0.391 OA
ATOM     23  H3  UNL     1      20.178  11.725  47.544  1.00  0.00     0.210 HD
ENDBRANCH  21  22
BRANCH  21  24
HETATM   24  C9  UNL     1      22.930  10.689  47.459  1.00  0.00     0.198 C
BRANCH  24  25
HETATM   25  O4  UNL     1      23.453  11.814  46.825  1.00  0.00    -0.398 OA
ATOM     26  H4  UNL     1      23.690  11.603  45.929  1.00  0.00     0.209 HD
ENDBRANCH  24  25
ENDBRANCH  21  24
ENDBRANCH  16  21
ENDBRANCH  13  16
ENDBRANCH   5  13
BRANCH  11  27
HETATM   27  O7  UNL     1      21.696   6.289  50.487  1.00  0.00    -0.387 OA
ATOM     28  H7  UNL     1      22.505   6.244  50.984  1.00  0.00     0.210 HD
ENDBRANCH  11  27
BRANCH   2  29
HETATM   29  O1  UNL     1      17.478   5.942  49.332  1.00  0.00    -0.390 OA
ATOM     30  H1  UNL     1      17.662   5.534  48.494  1.00  0.00     0.210 HD
ENDBRANCH   2  29
BRANCH   7  31
HETATM   31  O5  UNL     1      18.618   7.768  52.085  1.00  0.00    -0.387 OA
ATOM     32  H5  UNL     1      19.029   7.821  52.940  1.00  0.00     0.210 HD
ENDBRANCH   7  31
BRANCH  10  33
HETATM   33  N2  UNL     1      23.185   8.631  51.181  1.00  0.00    -0.070 N
ATOM     34  H23 UNL     1      23.198   9.127  52.072  1.00  0.00     0.275 HD
ATOM     35  H22 UNL     1      23.475   7.714  51.520  1.00  0.00     0.275 HD
ATOM     36  H21 UNL     1      23.850   9.022  50.513  1.00  0.00     0.275 HD
ENDBRANCH  10  33
BRANCH   9  37
HETATM   37  O6  UNL     1      20.877   9.310  52.616  1.00  0.00    -0.390 OA
ATOM     38  H6  UNL     1      21.629   9.860  52.428  1.00  0.00     0.210 HD
ENDBRANCH   9  37
TORSDOF 13
ENDMDL