MODEL 5
REMARK VINA RESULT: -6.767356557      1.379      1.519
REMARK  5 active torsions:
REMARK  status: ('A' for Active; 'I' for Inactive)
REMARK    1  A    between atoms: N1_1  and  C1_5
REMARK    2  A    between atoms: C1_5  and  C2_6
REMARK    3  A    between atoms: C2_6  and  C3_7
REMARK    4  A    between atoms: C3_7  and  N2_8
REMARK       I    between atoms: C4_10  and  N4_12
REMARK    5  A    between atoms: N4_12  and  N5_14
ROOT
HETATM    1  N5  UNL     1      19.832   7.307  51.507  1.00  0.00    -0.285 N
ATOM      2  H5  UNL     1      18.850   7.044  51.579  1.00  0.00     0.188 HD
HETATM    3  C5  UNL     1      20.710   6.406  51.375  1.00  0.00     0.109 C
HETATM    4  C6  UNL     1      20.418   4.951  51.316  1.00  0.00     0.199 C
HETATM    5  N6  UNL     1      19.030   4.637  51.149  1.00  0.00    -0.358 N
ATOM      6  H6  UNL     1      18.374   5.190  51.701  1.00  0.00     0.162 HD
HETATM    7  C7  UNL     1      18.463   3.649  50.309  1.00  0.00     0.184 C
HETATM    8  N7  UNL     1      17.650   2.625  50.942  1.00  0.00    -0.064 NA
HETATM    9  N8  UNL     1      18.619   3.623  49.054  1.00  0.00    -0.363 N
ATOM     10  H8  UNL     1      18.144   2.843  48.599  1.00  0.00     0.162 HD
HETATM   11  C8  UNL     1      19.320   4.460  48.159  1.00  0.00     0.150 C
HETATM   12  C9  UNL     1      20.282   3.569  47.357  1.00  0.00     0.251 C
HETATM   13  N9  UNL     1      20.701   2.515  48.234  1.00  0.00    -0.072 N
ATOM     14  H91 UNL     1      20.077   1.709  48.192  1.00  0.00     0.277 HD
ATOM     15  H92 UNL     1      20.565   2.756  49.216  1.00  0.00     0.277 HD
HETATM   16  C10 UNL     1      22.091   2.151  47.943  1.00  0.00     0.259 C
HETATM   17  C11 UNL     1      22.904   2.231  49.213  1.00  0.00     0.259 C
HETATM   18  N10 UNL     1      23.877   3.318  49.162  1.00  0.00    -0.073 N
ATOM     19 1H10 UNL     1      23.614   4.015  48.465  1.00  0.00     0.277 HD
ATOM     20 2H10 UNL     1      24.758   3.004  48.755  1.00  0.00     0.277 HD
HETATM   21  C12 UNL     1      24.089   3.928  50.462  1.00  0.00     0.234 C
HETATM   22  C13 UNL     1      23.874   5.419  50.318  1.00  0.00     0.047 C
HETATM   23  C14 UNL     1      23.181   5.895  51.572  1.00  0.00     0.122 C
HETATM   24  N11 UNL     1      22.079   6.779  51.274  1.00  0.00    -0.377 N
ATOM     25  H11 UNL     1      22.296   7.729  50.973  1.00  0.00     0.160 HD
ENDROOT
BRANCH   1  26
HETATM   26  N4  UNL     1      20.186   8.656  51.554  1.00  0.00    -0.272 N
HETATM   27  C4  UNL     1      19.310   9.589  50.949  1.00  0.00     0.203 C
HETATM   28  N2  UNL     1      18.920  10.634  51.588  1.00  0.00    -0.363 N
HETATM   29  N3  UNL     1      18.875   9.341  49.626  1.00  0.00    -0.062 NA
ATOM     30  H2  UNL     1      18.288  11.278  51.114  1.00  0.00     0.162 HD
ATOM     31  H4  UNL     1      21.047   8.959  52.009  1.00  0.00     0.189 HD
BRANCH  28  32
HETATM   32  C3  UNL     1      19.321  10.946  52.927  1.00  0.00     0.124 C
BRANCH  32  33
HETATM   33  C2  UNL     1      18.175  10.818  53.908  1.00  0.00     0.047 C
BRANCH  33  34
HETATM   34  C1  UNL     1      17.816   9.343  54.067  1.00  0.00     0.231 C
BRANCH  34  35
HETATM   35  N1  UNL     1      17.405   9.145  55.447  1.00  0.00    -0.079 N
ATOM     36  H13 UNL     1      16.619   9.737  55.717  1.00  0.00     0.274 HD
ATOM     37  H12 UNL     1      16.951   8.246  55.602  1.00  0.00     0.274 HD
ATOM     38  H11 UNL     1      18.229   9.283  56.032  1.00  0.00     0.274 HD
ENDBRANCH  34  35
ENDBRANCH  33  34
ENDBRANCH  32  33
ENDBRANCH  28  32
ENDBRANCH   1  26
TORSDOF 5
ENDMDL