MODEL 5
REMARK VINA RESULT: -6.096798636      2.379      6.949
REMARK  9 active torsions:
REMARK  status: ('A' for Active; 'I' for Inactive)
REMARK       I    between atoms: N1_2  and  C2_4
REMARK    1  A    between atoms: C2_4  and  C3_6
REMARK    2  A    between atoms: C3_6  and  O2_7
REMARK    3  A    between atoms: C3_6  and  N2_9
REMARK    4  A    between atoms: N2_9  and  C4_11
REMARK    5  A    between atoms: C7_18  and  N5_19
REMARK    6  A    between atoms: N5_19  and  O3_21
REMARK    7  A    between atoms: C9_25  and  N7_26
REMARK    8  A    between atoms: N7_26  and  C10_28
REMARK    9  A    between atoms: C10_28  and  O4_30
ROOT
HETATM    1  C4  UNL     1      77.025  65.811  93.419  1.00  0.00     0.138 A
HETATM    2  N3  UNL     1      76.544  65.472  92.223  1.00  0.00    -0.337 N
ATOM      3  H3  UNL     1      77.176  64.983  91.590  1.00  0.00     0.168 HD
HETATM    4  C5  UNL     1      75.306  65.716  91.780  1.00  0.00     0.182 A
HETATM    5  N4  UNL     1      74.410  66.359  92.557  1.00  0.00    -0.347 N
ATOM      6  H4  UNL     1      73.464  66.549  92.227  1.00  0.00     0.167 HD
HETATM    7  C6  UNL     1      74.808  66.736  93.777  1.00  0.00     0.111 A
HETATM    8  C7  UNL     1      73.867  67.392  94.550  1.00  0.00     0.170 A
HETATM    9  N6  UNL     1      74.260  67.774  95.776  1.00  0.00    -0.173 N
ATOM     10  H6  UNL     1      73.599  68.261  96.381  1.00  0.00     0.186 HD
HETATM   11  C9  UNL     1      75.505  67.530  96.226  1.00  0.00     0.682 A
HETATM   12  N8  UNL     1      76.442  66.878  95.458  1.00  0.00    -0.186 N
ATOM     13  H8  UNL     1      77.380  66.703  95.817  1.00  0.00     0.184 HD
HETATM   14  C12 UNL     1      76.093  66.482  94.236  1.00  0.00     0.123 A
ENDROOT
BRANCH   1  15
HETATM   15  N2  UNL     1      78.331  65.531  93.838  1.00  0.00    -0.317 N
ATOM     16  H2  UNL     1      78.553  65.921  94.754  1.00  0.00     0.169 HD
BRANCH  15  17
HETATM   17  C3  UNL     1      79.382  64.839  93.270  1.00  0.00     0.211 C
BRANCH  17  18
HETATM   18  C2  UNL     1      79.654  63.444  93.250  1.00  0.00     0.292 C
HETATM   19  N1  UNL     1      80.732  62.957  92.413  1.00  0.00    -0.358 N
HETATM   20  C1  UNL     1      81.041  61.556  92.362  1.00  0.00     0.149 C
ATOM     21  H1  UNL     1      81.275  63.616  91.854  1.00  0.00     0.162 HD
HETATM   22  O1  UNL     1      79.056  62.581  93.884  1.00  0.00    -0.264 OA
ENDBRANCH  17  18
BRANCH  17  23
HETATM   23  O2  UNL     1      80.291  65.588  92.638  1.00  0.00    -0.342 OA
ATOM     24  H2  UNL     1      79.924  66.273  92.091  1.00  0.00     0.219 HD
ENDBRANCH  17  23
ENDBRANCH  15  17
ENDBRANCH   1  15
BRANCH   8  25
HETATM   25  N5  UNL     1      72.684  67.638  94.156  1.00  0.00    -0.248 N
ATOM     26  H5  UNL     1      72.574  68.332  93.417  1.00  0.00     0.196 HD
BRANCH  25  27
HETATM   27  O3  UNL     1      71.555  67.056  94.633  1.00  0.00    -0.284 OA
HETATM   28  C8  UNL     1      71.264  65.733  94.167  1.00  0.00     0.237 C
ENDBRANCH  25  27
ENDBRANCH   8  25
BRANCH  11  29
HETATM   29  N7  UNL     1      75.924  67.878  97.392  1.00  0.00    -0.200 N
ATOM     30  H7  UNL     1      75.763  67.221  98.155  1.00  0.00     0.180 HD
BRANCH  29  31
HETATM   31  C10 UNL     1      76.596  69.101  97.720  1.00  0.00     0.230 C
HETATM   32  C11 UNL     1      75.986  70.323  97.103  1.00  0.00     0.063 C
BRANCH  31  33
HETATM   33  O4  UNL     1      77.954  68.952  97.444  1.00  0.00    -0.377 OA
ATOM     34  H4  UNL     1      78.332  69.813  97.304  1.00  0.00     0.212 HD
ENDBRANCH  31  33
ENDBRANCH  29  31
ENDBRANCH  11  29
TORSDOF 9
ENDMDL