MODEL 1
REMARK VINA RESULT: -9.488106312      0.000      0.000
REMARK  8 active torsions:
REMARK  status: ('A' for Active; 'I' for Inactive)
REMARK    1  A    between atoms: O1_2  and  C2_3
REMARK       I    between atoms: C2_3  and  N1_5
REMARK    2  A    between atoms: C4_7  and  N2_8
REMARK    3  A    between atoms: N2_8  and  N3_10
REMARK    4  A    between atoms: N3_10  and  C5_12
REMARK    5  A    between atoms: C6_15  and  N5_16
REMARK    6  A    between atoms: C7_21  and  N7_22
REMARK    7  A    between atoms: N7_22  and  C8_24
REMARK    8  A    between atoms: C8_24  and  C10_26
ROOT
HETATM    1  C5  UNL     1      74.996  67.351  92.980  1.00  0.00     0.726 A
HETATM    2  N4  UNL     1      73.969  66.488  93.047  1.00  0.00    -0.020 N
ATOM      3  H4  UNL     1      73.880  65.790  92.308  1.00  0.00     0.203 HD
HETATM    4  C6  UNL     1      73.061  66.489  94.023  1.00  0.00     0.705 A
HETATM    5  N6  UNL     1      73.193  67.414  94.990  1.00  0.00    -0.022 N
ATOM      6  H6  UNL     1      72.514  67.441  95.750  1.00  0.00     0.203 HD
HETATM    7  C7  UNL     1      74.194  68.299  94.976  1.00  0.00     0.708 A
HETATM    8  N9  UNL     1      75.089  68.271  93.983  1.00  0.00    -0.020 N
ATOM      9  H9  UNL     1      75.853  68.947  93.974  1.00  0.00     0.203 HD
ENDROOT
BRANCH   1  10
HETATM   10  N3  UNL     1      75.875  67.353  92.039  1.00  0.00    -0.129 N
ATOM     11  H3  UNL     1      76.456  68.173  91.867  1.00  0.00     0.205 HD
BRANCH  10  12
HETATM   12  N2  UNL     1      76.010  66.205  91.262  1.00  0.00    -0.269 N
ATOM     13  H2  UNL     1      75.507  66.126  90.379  1.00  0.00     0.189 HD
BRANCH  12  14
HETATM   14  C4  UNL     1      76.847  65.147  91.698  1.00  0.00     0.154 A
HETATM   15  C3  UNL     1      78.214  65.012  91.577  1.00  0.00     0.174 A
HETATM   16  N1  UNL     1      78.618  63.855  92.126  1.00  0.00    -0.192 N
HETATM   17  C2  UNL     1      79.973  63.374  92.186  1.00  0.00     0.386 C
HETATM   18  N11 UNL     1      77.532  63.264  92.588  1.00  0.00    -0.230 N
HETATM   19  O2  UNL     1      80.907  64.057  91.697  1.00  0.00    -0.236 OA
HETATM   20  N10 UNL     1      76.454  64.022  92.343  1.00  0.00    -0.268 N
ATOM     21  H11 UNL     1      77.515  62.362  93.063  1.00  0.00     0.209 HD
ATOM     22  H10 UNL     1      75.495  63.790  92.599  1.00  0.00     0.190 HD
BRANCH  17  23
HETATM   23  O1  UNL     1      80.287  62.164  92.775  1.00  0.00    -0.307 OA
HETATM   24  C1  UNL     1      81.457  61.493  92.356  1.00  0.00     0.215 C
ENDBRANCH  17  23
ENDBRANCH  12  14
ENDBRANCH  10  12
ENDBRANCH   1  10
BRANCH   4  25
HETATM   25  N5  UNL     1      72.086  65.648  94.062  1.00  0.00    -0.234 N
ATOM     26  H52 UNL     1      71.125  65.972  93.943  1.00  0.00     0.174 HD
ATOM     27  H51 UNL     1      72.229  64.650  94.209  1.00  0.00     0.174 HD
ENDBRANCH   4  25
BRANCH   7  28
HETATM   28  N7  UNL     1      74.287  69.162  95.911  1.00  0.00    -0.213 N
ATOM     29  H7  UNL     1      73.422  69.472  96.355  1.00  0.00     0.178 HD
BRANCH  28  30
HETATM   30  C8  UNL     1      75.520  69.729  96.383  1.00  0.00     0.184 C
HETATM   31  C9  UNL     1      75.257  71.059  97.092  1.00  0.00     0.042 C
BRANCH  30  32
HETATM   32  C10 UNL     1      76.089  68.811  97.404  1.00  0.00     0.254 C
HETATM   33  N8  UNL     1      75.227  67.753  97.853  1.00  0.00    -0.060 NA
HETATM   34  O3  UNL     1      77.252  68.951  97.848  1.00  0.00    -0.275 OA
ENDBRANCH  30  32
ENDBRANCH  28  30
ENDBRANCH   7  28
TORSDOF 8
ENDMDL