MODEL 4
REMARK VINA RESULT: -8.405324649      1.155      1.769
REMARK  7 active torsions:
REMARK  status: ('A' for Active; 'I' for Inactive)
REMARK    1  A    between atoms: N1_2  and  C2_4
REMARK    2  A    between atoms: C3_7  and  N3_8
REMARK    3  A    between atoms: C4_13  and  N5_14
REMARK    4  A    between atoms: N5_14  and  C5_16
REMARK    5  A    between atoms: C5_16  and  C6_17
REMARK    6  A    between atoms: C6_17  and  N6_18
REMARK    7  A    between atoms: C10_28  and  C11_29
ROOT
HETATM    1  C6  UNL     1      75.492  66.494  91.084  1.00  0.00     0.141 C
ENDROOT
BRANCH   1   2
HETATM    2  C5  UNL     1      75.438  67.821  91.810  1.00  0.00     0.157 C
BRANCH   2   3
HETATM    3  N5  UNL     1      75.662  67.626  93.228  1.00  0.00    -0.224 N
ATOM      4  H5  UNL     1      76.603  67.522  93.606  1.00  0.00     0.177 HD
BRANCH   3   5
HETATM    5  C4  UNL     1      74.611  67.589  94.003  1.00  0.00     0.707 A
HETATM    6  N4  UNL     1      73.561  66.788  93.745  1.00  0.00    -0.022 N
HETATM    7  C3  UNL     1      72.470  66.733  94.529  1.00  0.00     0.705 A
ATOM      8  H4  UNL     1      73.595  66.194  92.916  1.00  0.00     0.203 HD
HETATM    9  N2  UNL     1      72.447  67.523  95.617  1.00  0.00    -0.022 N
HETATM   10  C2  UNL     1      73.488  68.347  95.914  1.00  0.00     0.706 A
ATOM     11  H2  UNL     1      71.634  67.504  96.232  1.00  0.00     0.203 HD
HETATM   12  N14 UNL     1      74.551  68.368  95.105  1.00  0.00    -0.022 N
ATOM     13  H14 UNL     1      75.334  68.984  95.325  1.00  0.00     0.203 HD
BRANCH   7  14
HETATM   14  N3  UNL     1      71.456  65.962  94.283  1.00  0.00    -0.234 N
ATOM     15  H32 UNL     1      70.558  66.051  94.760  1.00  0.00     0.174 HD
ATOM     16  H31 UNL     1      71.546  65.228  93.581  1.00  0.00     0.174 HD
ENDBRANCH   7  14
BRANCH  10  17
HETATM   17  N1  UNL     1      73.390  69.077  96.979  1.00  0.00    -0.229 N
HETATM   18  C1  UNL     1      74.024  70.375  96.969  1.00  0.00     0.165 C
ATOM     19  H1  UNL     1      72.882  68.745  97.798  1.00  0.00     0.177 HD
ENDBRANCH  10  17
ENDBRANCH   3   5
ENDBRANCH   2   3
ENDBRANCH   1   2
BRANCH   1  20
HETATM   20  N6  UNL     1      76.853  66.130  90.862  1.00  0.00    -0.374 N
HETATM   21  C7  UNL     1      77.526  65.260  91.513  1.00  0.00     0.119 A
HETATM   22  N7  UNL     1      77.002  64.557  92.530  1.00  0.00    -0.338 N
HETATM   23  C10 UNL     1      78.853  65.071  91.114  1.00  0.00     0.095 A
HETATM   24  C8  UNL     1      77.759  63.654  93.180  1.00  0.00     0.183 A
ATOM     25  H7  UNL     1      76.032  64.706  92.809  1.00  0.00     0.168 HD
HETATM   26  N8  UNL     1      79.051  63.444  92.818  1.00  0.00    -0.340 N
HETATM   27  C9  UNL     1      79.590  64.133  91.811  1.00  0.00     0.135 A
ATOM     28  H8  UNL     1      79.613  62.755  93.318  1.00  0.00     0.167 HD
HETATM   29  N9  UNL     1      80.944  63.957  91.385  1.00  0.00    -0.082 NA
ATOM     30  H6  UNL     1      77.339  66.613  90.106  1.00  0.00     0.161 HD
BRANCH  23  31
HETATM   31  C11 UNL     1      79.404  65.845  90.008  1.00  0.00     0.148 A
HETATM   32  N10 UNL     1      79.478  67.192  89.897  1.00  0.00    -0.269 N
HETATM   33  N11 UNL     1      80.045  67.527  88.749  1.00  0.00    -0.007 NA
ATOM     34  H10 UNL     1      79.145  67.853  90.597  1.00  0.00     0.185 HD
HETATM   35  N12 UNL     1      80.342  66.397  88.108  1.00  0.00    -0.007 NA
HETATM   36  N13 UNL     1      79.954  65.378  88.871  1.00  0.00    -0.269 N
ATOM     37  H13 UNL     1      80.057  64.392  88.631  1.00  0.00     0.185 HD
ENDBRANCH  23  31
ENDBRANCH   1  20
TORSDOF 7
ENDMDL