MODEL 4
REMARK VINA RESULT: -7.318440033      1.196      1.751
REMARK  6 active torsions:
REMARK  status: ('A' for Active; 'I' for Inactive)
REMARK    1  A    between atoms: N1_1  and  C1_4
REMARK       I    between atoms: N4_10  and  C3_12
REMARK    2  A    between atoms: C3_12  and  O2_14
REMARK    3  A    between atoms: O2_14  and  C4_15
REMARK    4  A    between atoms: C4_15  and  C5_16
REMARK       I    between atoms: C5_16  and  N5_18
REMARK    5  A    between atoms: N5_18  and  C6_20
REMARK    6  A    between atoms: C6_20  and  C7_21
ROOT
HETATM    1  C4  UNL     1      74.887  67.975  92.663  1.00  0.00     0.283 C
ENDROOT
BRANCH   1   2
HETATM    2  O2  UNL     1      76.141  67.882  92.060  1.00  0.00    -0.294 OA
BRANCH   2   3
HETATM    3  C3  UNL     1      76.383  67.153  90.929  1.00  0.00     0.367 C
HETATM    4  N4  UNL     1      77.600  66.454  90.789  1.00  0.00    -0.281 N
HETATM    5  C2  UNL     1      77.787  65.433  91.591  1.00  0.00     0.171 A
ATOM      6  H4  UNL     1      78.298  66.728  90.098  1.00  0.00     0.173 HD
HETATM    7  N3  UNL     1      76.985  64.946  92.536  1.00  0.00    -0.277 N
HETATM    8  S1  UNL     1      79.133  64.381  91.687  1.00  0.00    -0.015 SA
HETATM    9  N2  UNL     1      77.365  63.930  93.211  1.00  0.00    -0.278 N
ATOM     10  H3  UNL     1      76.080  65.379  92.718  1.00  0.00     0.189 HD
HETATM   11  C1  UNL     1      78.555  63.386  92.948  1.00  0.00     0.160 A
ATOM     12  H2  UNL     1      76.768  63.540  93.941  1.00  0.00     0.189 HD
HETATM   13  O1  UNL     1      75.543  67.095  90.013  1.00  0.00    -0.238 OA
BRANCH  11  14
HETATM   14  N1  UNL     1      79.113  62.348  93.531  1.00  0.00    -0.379 N
ATOM     15  H12 UNL     1      78.699  61.472  93.849  1.00  0.00     0.158 HD
ATOM     16  H11 UNL     1      80.095  62.223  93.778  1.00  0.00     0.158 HD
ENDBRANCH  11  14
ENDBRANCH   2   3
ENDBRANCH   1   2
BRANCH   1  17
HETATM   17  C5  UNL     1      74.937  67.386  94.027  1.00  0.00     0.242 C
HETATM   18  O3  UNL     1      73.965  66.742  94.439  1.00  0.00    -0.271 OA
HETATM   19  N5  UNL     1      76.075  67.546  94.868  1.00  0.00    -0.357 N
ATOM     20  H5  UNL     1      76.871  68.077  94.513  1.00  0.00     0.162 HD
BRANCH  19  21
HETATM   21  C6  UNL     1      76.155  67.004  96.174  1.00  0.00     0.148 C
BRANCH  21  22
HETATM   22  C7  UNL     1      75.564  67.889  97.273  1.00  0.00     0.108 A
HETATM   23  C8  UNL     1      76.170  69.237  97.157  1.00  0.00     0.100 A
HETATM   24  C9  UNL     1      75.201  70.326  97.019  1.00  0.00     0.097 A
HETATM   25  N6  UNL     1      75.753  71.654  96.903  1.00  0.00    -0.087 NA
HETATM   26  N7  UNL     1      73.943  70.157  96.998  1.00  0.00    -0.323 N
HETATM   27  C10 UNL     1      73.338  68.861  97.109  1.00  0.00     0.189 A
ATOM     28  H7  UNL     1      73.340  70.974  96.899  1.00  0.00     0.169 HD
HETATM   29  N8  UNL     1      71.928  68.680  97.086  1.00  0.00    -0.064 NA
HETATM   30  N9  UNL     1      74.146  67.881  97.231  1.00  0.00    -0.358 N
ATOM     31  H9  UNL     1      73.711  66.961  97.309  1.00  0.00     0.162 HD
ENDBRANCH  21  22
ENDBRANCH  19  21
ENDBRANCH   1  17
TORSDOF 6
ENDMDL