MODEL 4
REMARK VINA RESULT: -5.630561027      2.670      3.364
REMARK  8 active torsions:
REMARK  status: ('A' for Active; 'I' for Inactive)
REMARK    1  A    between atoms: N1_1  and  C1_4
REMARK    2  A    between atoms: C3_10  and  N4_11
REMARK    3  A    between atoms: N5_14  and  C6_15
REMARK    4  A    between atoms: C7_18  and  N7_19
REMARK    5  A    between atoms: C8_24  and  N9_25
REMARK    6  A    between atoms: N9_25  and  C9_27
REMARK    7  A    between atoms: C9_27  and  C10_28
REMARK    8  A    between atoms: C10_28  and  O1_29
ROOT
HETATM    1  N4  UNL     1      77.318  66.164  93.300  1.00  0.00    -0.214 N
HETATM    2  C4  UNL     1      77.353  65.780  94.695  1.00  0.00     0.161 C
HETATM    3  C5  UNL     1      76.808  66.876  95.593  1.00  0.00     0.161 C
HETATM    4  N5  UNL     1      75.562  67.365  95.071  1.00  0.00    -0.214 N
HETATM    5  C11 UNL     1      75.180  67.084  93.694  1.00  0.00     0.161 C
HETATM    6  C12 UNL     1      76.482  67.271  92.892  1.00  0.00     0.161 C
ENDROOT
BRANCH   4   7
HETATM    7  C6  UNL     1      74.684  68.135  95.868  1.00  0.00     0.709 A
HETATM    8  N6  UNL     1      73.885  67.519  96.768  1.00  0.00    -0.022 N
HETATM    9  C7  UNL     1      73.036  68.213  97.543  1.00  0.00     0.705 A
ATOM     10  H6  UNL     1      73.927  66.504  96.861  1.00  0.00     0.203 HD
HETATM   11  N8  UNL     1      72.998  69.563  97.402  1.00  0.00    -0.022 N
HETATM   12  C8  UNL     1      73.804  70.177  96.494  1.00  0.00     0.707 A
ATOM     13  H8  UNL     1      72.364  70.118  97.977  1.00  0.00     0.203 HD
HETATM   14  N10 UNL     1      74.645  69.470  95.729  1.00  0.00    -0.021 N
ATOM     15  H10 UNL     1      75.247  69.938  95.051  1.00  0.00     0.203 HD
BRANCH   9  16
HETATM   16  N7  UNL     1      72.271  67.637  98.409  1.00  0.00    -0.234 N
ATOM     17  H72 UNL     1      72.683  67.141  99.199  1.00  0.00     0.174 HD
ATOM     18  H71 UNL     1      71.255  67.657  98.332  1.00  0.00     0.174 HD
ENDBRANCH   9  16
BRANCH  12  19
HETATM   19  N9  UNL     1      73.766  71.467  96.368  1.00  0.00    -0.223 N
ATOM     20  H9  UNL     1      74.459  71.896  95.753  1.00  0.00     0.177 HD
BRANCH  19  21
HETATM   21  C9  UNL     1      72.837  72.342  97.017  1.00  0.00     0.164 C
BRANCH  21  22
HETATM   22  C10 UNL     1      73.501  73.602  97.453  1.00  0.00     0.184 C
BRANCH  22  23
HETATM   23  O1  UNL     1      72.600  74.591  97.784  1.00  0.00    -0.399 OA
ATOM     24  H1  UNL     1      72.752  75.399  97.309  1.00  0.00     0.209 HD
ENDBRANCH  22  23
ENDBRANCH  21  22
ENDBRANCH  19  21
ENDBRANCH  12  19
ENDBRANCH   4   7
BRANCH   1  25
HETATM   25  C3  UNL     1      78.085  65.483  92.328  1.00  0.00     0.695 A
HETATM   26  N3  UNL     1      77.672  65.508  91.034  1.00  0.00    -0.187 N
HETATM   27  C2  UNL     1      78.383  64.876  90.086  1.00  0.00     0.215 A
ATOM     28  H3  UNL     1      76.820  66.008  90.782  1.00  0.00     0.185 HD
HETATM   29  N2  UNL     1      79.508  64.221  90.426  1.00  0.00    -0.187 N
HETATM   30  C1  UNL     1      79.921  64.199  91.719  1.00  0.00     0.691 A
ATOM     31  H2  UNL     1      80.052  63.740  89.710  1.00  0.00     0.185 HD
HETATM   32  N11 UNL     1      79.220  64.822  92.668  1.00  0.00    -0.022 N
ATOM     33  H11 UNL     1      79.534  64.801  93.638  1.00  0.00     0.203 HD
BRANCH  30  34
HETATM   34  N1  UNL     1      81.009  63.553  91.944  1.00  0.00    -0.234 N
ATOM     35  H12 UNL     1      81.339  62.781  91.365  1.00  0.00     0.174 HD
ATOM     36  H11 UNL     1      81.542  63.857  92.759  1.00  0.00     0.174 HD
ENDBRANCH  30  34
ENDBRANCH   1  25
TORSDOF 8
ENDMDL