MODEL 1
REMARK VINA RESULT: -6.495130478      0.000      0.000
REMARK  6 active torsions:
REMARK  status: ('A' for Active; 'I' for Inactive)
REMARK    1  A    between atoms: O1_2  and  C2_3
REMARK    2  A    between atoms: C2_3  and  C3_5
REMARK    3  A    between atoms: C6_8  and  O3_9
REMARK    4  A    between atoms: C6_8  and  C7_11
REMARK       I    between atoms: N1_15  and  C9_16
REMARK       I    between atoms: C9_16  and  N5_23
REMARK    5  A    between atoms: N2_17  and  N3_19
REMARK    6  A    between atoms: N5_23  and  N6_25
ROOT
HETATM    1  N3  UNL     1      77.659  67.187  90.694  1.00  0.00    -0.222 N
ATOM      2  H3  UNL     1      77.423  66.442  90.037  1.00  0.00     0.200 HD
HETATM    3  C10 UNL     1      78.765  68.026  90.472  1.00  0.00     0.198 C
HETATM    4  N4  UNL     1      79.668  68.720  90.308  1.00  0.00    -0.170 NA
ENDROOT
BRANCH   1   5
HETATM    5  N2  UNL     1      76.904  67.403  91.823  1.00  0.00    -0.120 N
HETATM    6  C9  UNL     1      76.160  66.542  92.407  1.00  0.00     0.733 C
HETATM    7  N1  UNL     1      75.445  66.906  93.556  1.00  0.00    -0.117 N
HETATM    8  N5  UNL     1      76.062  65.231  91.898  1.00  0.00    -0.069 N
HETATM    9  C8  UNL     1      76.122  67.189  94.777  1.00  0.00     0.217 C
HETATM   10  N7  UNL     1      74.045  67.001  93.526  1.00  0.00    -0.288 N
HETATM   11  C6  UNL     1      75.374  68.157  95.665  1.00  0.00     0.169 C
HETATM   12  C5  UNL     1      73.937  67.839  95.859  1.00  0.00     0.109 C
HETATM   13  C4  UNL     1      73.339  67.018  94.754  1.00  0.00     0.035 C
HETATM   14  C3  UNL     1      72.214  66.390  95.005  1.00  0.00     0.108 C
ATOM     15  H7  UNL     1      73.546  67.056  92.638  1.00  0.00     0.187 HD
ATOM     16  H5  UNL     1      75.403  65.052  91.140  1.00  0.00     0.212 HD
ATOM     17  H2  UNL     1      76.940  68.337  92.234  1.00  0.00     0.206 HD
BRANCH  11  18
HETATM   18  O3  UNL     1      75.486  69.444  95.149  1.00  0.00    -0.377 OA
ATOM     19  H3  UNL     1      76.406  69.657  95.048  1.00  0.00     0.211 HD
ENDBRANCH  11  18
BRANCH  11  20
HETATM   20  C7  UNL     1      76.019  68.134  96.997  1.00  0.00     0.211 C
HETATM   21  O4  UNL     1      75.425  67.575  97.947  1.00  0.00    -0.646 OA
HETATM   22  O5  UNL     1      77.269  68.719  97.211  1.00  0.00    -0.646 OA
ENDBRANCH  11  20
BRANCH  14  23
HETATM   23  C2  UNL     1      71.463  65.552  94.112  1.00  0.00     0.284 C
HETATM   24  O2  UNL     1      71.911  64.458  93.661  1.00  0.00    -0.260 OA
BRANCH  23  25
HETATM   25  O1  UNL     1      70.203  65.910  93.702  1.00  0.00    -0.323 OA
HETATM   26  C1  UNL     1      69.456  66.946  94.343  1.00  0.00     0.213 C
ENDBRANCH  23  25
ENDBRANCH  14  23
BRANCH   8  27
HETATM   27  N6  UNL     1      76.829  64.160  92.383  1.00  0.00    -0.024 N
HETATM   28  O6  UNL     1      76.992  63.190  91.618  1.00  0.00    -0.516 OA
HETATM   29  O7  UNL     1      77.356  64.205  93.634  1.00  0.00    -0.516 OA
ENDBRANCH   8  27
ENDBRANCH   1   5
TORSDOF 6
ENDMDL