MODEL 2
REMARK VINA RESULT: -6.442849261      2.239      6.334
REMARK  8 active torsions:
REMARK  status: ('A' for Active; 'I' for Inactive)
REMARK    1  A    between atoms: N1_2  and  C3_4
REMARK    2  A    between atoms: C6_13  and  N5_14
REMARK    3  A    between atoms: N5_14  and  C7_16
REMARK    4  A    between atoms: C7_16  and  O1_17
REMARK    5  A    between atoms: C7_16  and  C8_21
REMARK    6  A    between atoms: O1_17  and  N6_18
REMARK       I    between atoms: C8_21  and  N7_23
REMARK    7  A    between atoms: N7_23  and  N8_25
REMARK    8  A    between atoms: C9_28  and  N9_29
REMARK       I    between atoms: N9_29  and  C10_31
ROOT
HETATM    1  C3  UNL     1      77.654  65.754  92.196  1.00  0.00     0.134 A
HETATM    2  N2  UNL     1      77.465  65.753  90.846  1.00  0.00    -0.337 N
ATOM      3  H2  UNL     1      78.126  65.266  90.240  1.00  0.00     0.168 HD
HETATM    4  C4  UNL     1      76.412  66.391  90.312  1.00  0.00     0.183 A
HETATM    5  N3  UNL     1      75.513  67.049  91.060  1.00  0.00    -0.337 N
ATOM      6  H3  UNL     1      74.724  67.524  90.624  1.00  0.00     0.168 HD
HETATM    7  C5  UNL     1      75.670  67.070  92.392  1.00  0.00     0.139 A
HETATM    8  N4  UNL     1      74.816  67.713  93.201  1.00  0.00    -0.324 N
ATOM      9  H4  UNL     1      74.021  68.194  92.778  1.00  0.00     0.169 HD
HETATM   10  C6  UNL     1      74.948  67.762  94.557  1.00  0.00     0.150 A
HETATM   11  C9  UNL     1      76.017  67.116  95.113  1.00  0.00     0.154 A
HETATM   12  N11 UNL     1      76.923  66.440  94.318  1.00  0.00    -0.333 N
ATOM     13  H11 UNL     1      77.718  65.961  94.740  1.00  0.00     0.168 HD
HETATM   14  C11 UNL     1      76.753  66.420  92.999  1.00  0.00     0.123 A
ENDROOT
BRANCH  10  15
HETATM   15  N5  UNL     1      74.116  68.380  95.278  1.00  0.00    -0.337 N
ATOM     16  H5  UNL     1      74.393  69.324  95.550  1.00  0.00     0.164 HD
BRANCH  15  17
HETATM   17  C7  UNL     1      72.849  67.954  95.766  1.00  0.00     0.346 C
BRANCH  17  18
HETATM   18  O1  UNL     1      73.063  67.362  97.020  1.00  0.00    -0.251 OA
BRANCH  18  19
HETATM   19  N6  UNL     1      72.761  68.150  98.048  1.00  0.00    -0.308 N
ATOM     20  H62 UNL     1      71.830  68.162  98.467  1.00  0.00     0.184 HD
ATOM     21  H61 UNL     1      73.537  68.728  98.371  1.00  0.00     0.184 HD
ENDBRANCH  18  19
ENDBRANCH  17  18
BRANCH  17  22
HETATM   22  C8  UNL     1      72.170  66.978  94.903  1.00  0.00     0.286 C
HETATM   23  O2  UNL     1      72.808  65.988  94.471  1.00  0.00    -0.267 OA
HETATM   24  N7  UNL     1      70.816  67.141  94.557  1.00  0.00    -0.273 N
ATOM     25  H7  UNL     1      70.311  67.951  94.917  1.00  0.00     0.189 HD
BRANCH  24  26
HETATM   26  N8  UNL     1      70.134  66.231  93.736  1.00  0.00    -0.342 N
ATOM     27  H82 UNL     1      70.691  65.638  93.119  1.00  0.00     0.176 HD
ATOM     28  H81 UNL     1      69.118  66.147  93.738  1.00  0.00     0.176 HD
ENDBRANCH  24  26
ENDBRANCH  17  22
ENDBRANCH  15  17
ENDBRANCH  10  15
BRANCH  11  29
HETATM   29  N9  UNL     1      76.255  67.085  96.364  1.00  0.00    -0.294 N
HETATM   30  C10 UNL     1      76.572  68.189  97.145  1.00  0.00     0.334 C
HETATM   31  N10 UNL     1      77.926  68.611  97.374  1.00  0.00    -0.040 NA
HETATM   32  O3  UNL     1      75.628  68.867  97.692  1.00  0.00    -0.251 OA
ATOM     33  H9  UNL     1      76.210  66.179  96.828  1.00  0.00     0.172 HD
ENDBRANCH  11  29
BRANCH   1  34
HETATM   34  N1  UNL     1      78.740  65.063  92.784  1.00  0.00    -0.374 N
HETATM   35  C1  UNL     1      78.549  63.742  93.346  1.00  0.00     0.150 C
HETATM   36  C2  UNL     1      80.062  65.648  92.842  1.00  0.00     0.150 C
ENDBRANCH   1  34
TORSDOF 8
ENDMDL