MODEL 5
REMARK VINA RESULT: -5.643256791      2.418      7.942
REMARK  7 active torsions:
REMARK  status: ('A' for Active; 'I' for Inactive)
REMARK    1  A    between atoms: C2_2  and  C11_31
REMARK    2  A    between atoms: N1_3  and  N2_5
REMARK       I    between atoms: N2_5  and  C3_7
REMARK    3  A    between atoms: C3_7  and  C4_9
REMARK    4  A    between atoms: C6_15  and  N6_16
REMARK    5  A    between atoms: N6_16  and  C7_18
REMARK    6  A    between atoms: C7_18  and  O2_20
REMARK    7  A    between atoms: C10_27  and  N10_28
ROOT
HETATM    1  C4  UNL     1      76.146  66.255  93.999  1.00  0.00     0.123 A
HETATM    2  C5  UNL     1      76.235  67.030  95.168  1.00  0.00     0.152 A
HETATM    3  N3  UNL     1      77.528  67.315  95.694  1.00  0.00    -0.080 NA
HETATM    4  N4  UNL     1      75.112  67.459  95.729  1.00  0.00    -0.262 N
ATOM      5  H4  UNL     1      75.191  68.019  96.578  1.00  0.00     0.190 HD
HETATM    6  N5  UNL     1      73.908  67.216  95.273  1.00  0.00    -0.155 N
HETATM    7  C6  UNL     1      72.779  67.702  95.918  1.00  0.00     0.151 A
HETATM    8  C8  UNL     1      71.543  67.433  95.420  1.00  0.00     0.071 A
HETATM    9  C9  UNL     1      71.453  66.656  94.248  1.00  0.00     0.113 A
HETATM   10  N8  UNL     1      72.583  66.226  93.687  1.00  0.00    -0.287 N
ATOM     11  H8  UNL     1      72.524  65.663  92.838  1.00  0.00     0.188 HD
HETATM   12  N9  UNL     1      73.781  66.499  94.187  1.00  0.00    -0.156 N
HETATM   13  C10 UNL     1      74.894  66.013  93.542  1.00  0.00     0.160 A
ENDROOT
BRANCH   1  14
HETATM   14  C3  UNL     1      77.345  65.777  93.372  1.00  0.00     0.277 C
HETATM   15  N2  UNL     1      78.339  64.999  93.943  1.00  0.00    -0.265 N
ATOM     16  H2  UNL     1      78.271  64.699  94.916  1.00  0.00     0.190 HD
HETATM   17  O1  UNL     1      77.508  66.115  92.134  1.00  0.00    -0.266 OA
BRANCH  15  18
HETATM   18  N1  UNL     1      79.465  64.625  93.142  1.00  0.00    -0.297 N
HETATM   19  C2  UNL     1      79.667  63.367  92.938  1.00  0.00     0.086 C
HETATM   20  C1  UNL     1      78.781  62.342  93.500  1.00  0.00     0.075 C
ATOM     21  H1  UNL     1      80.087  65.330  92.746  1.00  0.00     0.187 HD
BRANCH  19  22
HETATM   22  C11 UNL     1      80.836  63.017  92.108  1.00  0.00     0.278 C
HETATM   23  N11 UNL     1      81.374  61.704  92.075  1.00  0.00    -0.056 NA
HETATM   24  O3  UNL     1      81.404  63.891  91.388  1.00  0.00    -0.270 OA
ENDBRANCH  19  22
ENDBRANCH  15  18
ENDBRANCH   1  14
BRANCH  13  25
HETATM   25  N10 UNL     1      74.677  65.321  92.489  1.00  0.00    -0.382 N
ATOM     26 2H10 UNL     1      75.503  65.017  91.972  1.00  0.00     0.157 HD
ATOM     27 1H10 UNL     1      73.733  65.085  92.180  1.00  0.00     0.157 HD
ENDBRANCH  13  25
BRANCH   7  28
HETATM   28  N6  UNL     1      72.999  68.461  97.072  1.00  0.00    -0.308 N
ATOM     29  H6  UNL     1      72.425  68.223  97.881  1.00  0.00     0.170 HD
BRANCH  28  30
HETATM   30  C7  UNL     1      73.908  69.505  97.252  1.00  0.00     0.230 C
HETATM   31  N7  UNL     1      73.719  70.815  96.791  1.00  0.00    -0.056 NA
BRANCH  30  32
HETATM   32  O2  UNL     1      75.010  69.232  97.894  1.00  0.00    -0.335 OA
ATOM     33  H2  UNL     1      75.728  69.847  97.804  1.00  0.00     0.220 HD
ENDBRANCH  30  32
ENDBRANCH  28  30
ENDBRANCH   7  28
TORSDOF 7
ENDMDL