MODEL 5
REMARK VINA RESULT: -7.224941503      3.765      8.065
REMARK  9 active torsions:
REMARK  status: ('A' for Active; 'I' for Inactive)
REMARK    1  A    between atoms: N1_1  and  C1_5
REMARK    2  A    between atoms: C1_5  and  C2_6
REMARK    3  A    between atoms: C2_6  and  N2_7
REMARK    4  A    between atoms: N2_7  and  C3_9
REMARK    5  A    between atoms: C4_14  and  C5_15
REMARK    6  A    between atoms: C6_20  and  N7_21
REMARK       I    between atoms: N7_21  and  C7_23
REMARK    7  A    between atoms: C7_23  and  C8_25
REMARK    8  A    between atoms: C9_29  and  N8_30
REMARK    9  A    between atoms: N8_30  and  N9_32
ROOT
HETATM    1  C3  UNL     1      79.075  65.534  89.849  1.00  0.00     0.694 A
HETATM    2  N3  UNL     1      78.900  66.829  90.088  1.00  0.00    -0.132 N
ATOM      3  H3  UNL     1      79.517  67.492  89.619  1.00  0.00     0.205 HD
HETATM    4  N4  UNL     1      77.970  67.311  90.903  1.00  0.00    -0.280 N
ATOM      5  H4  UNL     1      77.884  68.317  91.047  1.00  0.00     0.188 HD
HETATM    6  C4  UNL     1      77.145  66.461  91.536  1.00  0.00     0.130 A
HETATM    7  C9  UNL     1      77.296  65.117  91.313  1.00  0.00     0.166 A
HETATM    8  N10 UNL     1      78.256  64.661  90.474  1.00  0.00    -0.172 N
ATOM      9  H10 UNL     1      78.360  63.659  90.313  1.00  0.00     0.186 HD
ENDROOT
BRANCH   6  10
HETATM   10  C5  UNL     1      76.100  66.927  92.446  1.00  0.00     0.124 A
HETATM   11  N5  UNL     1      74.969  67.519  92.106  1.00  0.00    -0.290 N
HETATM   12  N6  UNL     1      74.138  67.879  92.994  1.00  0.00    -0.279 N
ATOM     13  H5  UNL     1      74.763  67.687  91.121  1.00  0.00     0.188 HD
HETATM   14  C6  UNL     1      74.430  67.647  94.279  1.00  0.00     0.168 A
ATOM     15  H6  UNL     1      73.264  68.337  92.733  1.00  0.00     0.189 HD
HETATM   16  S1  UNL     1      75.956  66.886  94.147  1.00  0.00    -0.031 SA
BRANCH  14  17
HETATM   17  N7  UNL     1      73.716  67.935  95.338  1.00  0.00    -0.297 N
HETATM   18  C7  UNL     1      74.277  68.793  96.294  1.00  0.00     0.324 C
HETATM   19  O1  UNL     1      74.168  70.027  96.165  1.00  0.00    -0.260 OA
ATOM     20  H7  UNL     1      72.782  67.547  95.465  1.00  0.00     0.171 HD
BRANCH  18  21
HETATM   21  C8  UNL     1      74.981  68.246  97.431  1.00  0.00     0.270 C
HETATM   22  O2  UNL     1      74.468  67.380  98.200  1.00  0.00    -0.640 OA
HETATM   23  O3  UNL     1      76.286  68.634  97.764  1.00  0.00    -0.640 OA
ENDBRANCH  18  21
ENDBRANCH  14  17
ENDBRANCH   6  10
BRANCH   7  24
HETATM   24  N8  UNL     1      76.497  64.303  91.925  1.00  0.00    -0.290 N
ATOM     25  H8  UNL     1      75.501  64.509  92.003  1.00  0.00     0.188 HD
BRANCH  24  26
HETATM   26  N9  UNL     1      77.032  63.135  92.476  1.00  0.00    -0.344 N
ATOM     27  H92 UNL     1      77.372  62.394  91.864  1.00  0.00     0.176 HD
ATOM     28  H91 UNL     1      77.071  63.052  93.493  1.00  0.00     0.176 HD
ENDBRANCH  24  26
ENDBRANCH   7  24
BRANCH   1  29
HETATM   29  N2  UNL     1      79.973  65.055  89.060  1.00  0.00    -0.223 N
ATOM     30  H2  UNL     1      80.638  64.377  89.431  1.00  0.00     0.177 HD
BRANCH  29  31
HETATM   31  C2  UNL     1      80.077  65.434  87.688  1.00  0.00     0.165 C
BRANCH  31  32
HETATM   32  C1  UNL     1      80.836  66.759  87.590  1.00  0.00     0.249 C
BRANCH  32  33
HETATM   33  N1  UNL     1      81.476  66.870  86.292  1.00  0.00    -0.078 N
ATOM     34  H13 UNL     1      82.180  67.607  86.274  1.00  0.00     0.274 HD
ATOM     35  H12 UNL     1      82.087  66.076  86.097  1.00  0.00     0.274 HD
ATOM     36  H11 UNL     1      80.771  66.997  85.565  1.00  0.00     0.274 HD
ENDBRANCH  32  33
ENDBRANCH  31  32
ENDBRANCH  29  31
ENDBRANCH   1  29
TORSDOF 9
ENDMDL