MODEL 1
REMARK VINA RESULT: -6.532459496      0.000      0.000
REMARK  6 active torsions:
REMARK  status: ('A' for Active; 'I' for Inactive)
REMARK    1  A    between atoms: C2_2  and  C3_3
REMARK    2  A    between atoms: C3_3  and  N1_4
REMARK       I    between atoms: C4_6  and  N3_8
REMARK    3  A    between atoms: N3_8  and  C5_10
REMARK    4  A    between atoms: C6_13  and  C7_14
REMARK    5  A    between atoms: C8_17  and  O2_18
REMARK    6  A    between atoms: O2_18  and  C9_19
ROOT
HETATM    1  C5  UNL     1      76.787  66.189  93.933  1.00  0.00     0.690 C
HETATM    2  N4  UNL     1      77.830  65.468  93.824  1.00  0.00    -0.184 N
ATOM      3  H4  UNL     1      78.124  64.885  94.607  1.00  0.00     0.184 HD
HETATM    4  C6  UNL     1      78.606  65.467  92.597  1.00  0.00     0.146 C
HETATM    5  C8  UNL     1      78.257  66.214  91.569  1.00  0.00     0.116 C
HETATM    6  C10 UNL     1      77.099  67.088  91.629  1.00  0.00     0.188 C
HETATM    7  C11 UNL     1      76.007  66.901  90.612  1.00  0.00     0.155 C
HETATM    8  N7  UNL     1      74.894  67.681  91.251  1.00  0.00    -0.361 N
ATOM      9  H7  UNL     1      74.115  68.126  90.766  1.00  0.00     0.162 HD
HETATM   10  C12 UNL     1      75.106  67.687  92.551  1.00  0.00     0.206 C
HETATM   11  N8  UNL     1      74.324  68.297  93.566  1.00  0.00    -0.063 NA
HETATM   12  N9  UNL     1      76.308  66.948  92.849  1.00  0.00    -0.142 N
ENDROOT
BRANCH   1  13
HETATM   13  N3  UNL     1      76.032  66.190  95.147  1.00  0.00    -0.163 N
HETATM   14  C4  UNL     1      76.095  67.249  96.080  1.00  0.00     0.202 C
HETATM   15  N1  UNL     1      75.062  67.766  96.631  1.00  0.00    -0.364 N
HETATM   16  N2  UNL     1      77.375  67.765  96.422  1.00  0.00    -0.063 NA
ATOM     17  H1  UNL     1      74.152  67.382  96.373  1.00  0.00     0.162 HD
ATOM     18  H3  UNL     1      75.425  65.395  95.348  1.00  0.00     0.187 HD
BRANCH  15  19
HETATM   19  C3  UNL     1      75.076  68.832  97.576  1.00  0.00     0.122 C
BRANCH  19  20
HETATM   20  C2  UNL     1      74.449  70.108  97.054  1.00  0.00     0.015 C
HETATM   21  C1  UNL     1      75.491  71.209  97.132  1.00  0.00     0.006 C
ENDBRANCH  19  20
ENDBRANCH  15  19
ENDBRANCH   1  13
BRANCH   4  22
HETATM   22  C7  UNL     1      79.796  64.647  92.524  1.00  0.00     0.284 C
HETATM   23  N5  UNL     1      79.659  63.255  92.309  1.00  0.00    -0.056 NA
HETATM   24  O1  UNL     1      80.932  65.104  92.641  1.00  0.00    -0.269 OA
ENDBRANCH   4  22
BRANCH   5  25
HETATM   25  O2  UNL     1      78.987  66.207  90.396  1.00  0.00    -0.263 OA
BRANCH  25  26
HETATM   26  C9  UNL     1      79.551  67.314  89.841  1.00  0.00     0.377 C
HETATM   27  N6  UNL     1      80.206  67.189  88.561  1.00  0.00    -0.032 NA
HETATM   28  O3  UNL     1      79.516  68.409  90.396  1.00  0.00    -0.242 OA
ENDBRANCH  25  26
ENDBRANCH   5  25
TORSDOF 6
ENDMDL