MODEL 4
REMARK VINA RESULT: -2.299355926      1.785      2.578
REMARK  2 active torsions:
REMARK  status: ('A' for Active; 'I' for Inactive)
REMARK    1  A    between atoms: C4_11  and  N5_12
REMARK    2  A    between atoms: N5_12  and  N6_14
ROOT
HETATM    1  C1  UNL     1      57.365  41.277  46.783  1.00  0.00     0.180 C
HETATM    2  N1  UNL     1      56.817  40.356  45.801  1.00  0.00    -0.273 N
HETATM    3  N2  UNL     1      57.274  40.410  44.562  1.00  0.00    -0.270 N
ATOM      4  H2  UNL     1      57.994  41.098  44.340  1.00  0.00     0.190 HD
HETATM    5  C2  UNL     1      56.836  39.604  43.577  1.00  0.00     0.210 A
HETATM    6  N3  UNL     1      57.379  39.727  42.270  1.00  0.00    -0.062 NA
HETATM    7  N4  UNL     1      55.886  38.703  43.881  1.00  0.00    -0.293 N
ATOM      8  H4  UNL     1      55.542  38.084  43.147  1.00  0.00     0.172 HD
HETATM    9  C3  UNL     1      55.375  38.589  45.119  1.00  0.00     0.294 A
HETATM   10  O1  UNL     1      54.488  37.735  45.373  1.00  0.00    -0.264 OA
HETATM   11  C4  UNL     1      55.867  39.451  46.100  1.00  0.00     0.205 A
ENDROOT
BRANCH  11  12
HETATM   12  N5  UNL     1      55.422  39.396  47.302  1.00  0.00    -0.286 N
ATOM     13  H5  UNL     1      55.879  38.759  47.954  1.00  0.00     0.188 HD
BRANCH  12  14
HETATM   14  N6  UNL     1      54.359  40.152  47.767  1.00  0.00    -0.343 N
ATOM     15  H62 UNL     1      53.807  40.653  47.070  1.00  0.00     0.176 HD
ATOM     16  H61 UNL     1      54.104  40.230  48.752  1.00  0.00     0.176 HD
ENDBRANCH  12  14
ENDBRANCH  11  12
TORSDOF 2
ENDMDL