MODEL 5
REMARK VINA RESULT: -2.491538183      2.536      3.557
REMARK  1 active torsions:
REMARK  status: ('A' for Active; 'I' for Inactive)
REMARK    1  A    between atoms: N1_1  and  N2_4
ROOT
HETATM    1  N2  UNL     1      56.635  40.107  45.062  1.00  0.00    -0.159 N
HETATM    2  C1  UNL     1      55.853  39.669  46.063  1.00  0.00     0.351 A
HETATM    3  O1  UNL     1      55.814  40.325  47.127  1.00  0.00    -0.244 OA
HETATM    4  N3  UNL     1      55.121  38.547  45.931  1.00  0.00    -0.283 N
ATOM      5  H3  UNL     1      54.537  38.245  46.712  1.00  0.00     0.173 HD
HETATM    6  C2  UNL     1      55.133  37.812  44.806  1.00  0.00     0.183 A
HETATM    7  S1  UNL     1      54.238  36.444  44.655  1.00  0.00    -0.040 SA
HETATM    8  N4  UNL     1      55.917  38.249  43.804  1.00  0.00    -0.283 N
ATOM      9  H4  UNL     1      55.957  37.722  42.932  1.00  0.00     0.173 HD
HETATM   10  C3  UNL     1      56.648  39.373  43.936  1.00  0.00     0.351 A
HETATM   11  O2  UNL     1      57.373  39.772  43.000  1.00  0.00    -0.244 OA
ENDROOT
BRANCH   1  12
HETATM   12  N1  UNL     1      57.379  41.274  45.233  1.00  0.00    -0.330 N
ATOM     13  H12 UNL     1      58.369  41.282  45.479  1.00  0.00     0.177 HD
ATOM     14  H11 UNL     1      56.927  42.180  45.111  1.00  0.00     0.177 HD
ENDBRANCH   1  12
TORSDOF 1
ENDMDL