MODEL 2
REMARK VINA RESULT: -4.153099730      0.954      2.131
REMARK  3 active torsions:
REMARK  status: ('A' for Active; 'I' for Inactive)
REMARK    1  A    between atoms: N1_1  and  C1_4
REMARK    2  A    between atoms: C2_5  and  N2_6
REMARK       I    between atoms: N2_6  and  C3_8
REMARK    3  A    between atoms: N5_14  and  N6_15
ROOT
HETATM    1  C1  UNL     1      55.830  39.355  46.046  1.00  0.00     0.182 A
HETATM    2  C2  UNL     1      55.435  38.366  45.185  1.00  0.00     0.171 A
HETATM    3  N3  UNL     1      56.103  38.602  44.039  1.00  0.00    -0.264 N
ATOM      4  H3  UNL     1      56.027  38.037  43.193  1.00  0.00     0.186 HD
HETATM    5  N4  UNL     1      56.870  39.670  44.167  1.00  0.00     0.004 NA
HETATM    6  N5  UNL     1      56.719  40.153  45.396  1.00  0.00    -0.167 N
ENDROOT
BRANCH   2   7
HETATM    7  N2  UNL     1      54.596  37.432  45.474  1.00  0.00    -0.283 N
HETATM    8  C3  UNL     1      54.355  36.331  44.606  1.00  0.00     0.289 C
HETATM    9  O1  UNL     1      53.164  35.995  44.385  1.00  0.00    -0.629 OA
HETATM   10  O2  UNL     1      55.430  35.655  44.026  1.00  0.00    -0.629 OA
ATOM     11  H2  UNL     1      54.085  37.484  46.355  1.00  0.00     0.173 HD
ENDBRANCH   2   7
BRANCH   1  12
HETATM   12  N1  UNL     1      55.431  39.504  47.259  1.00  0.00    -0.380 N
ATOM     13  H12 UNL     1      54.836  38.856  47.776  1.00  0.00     0.158 HD
ATOM     14  H11 UNL     1      55.652  40.291  47.870  1.00  0.00     0.158 HD
ENDBRANCH   1  12
BRANCH   6  15
HETATM   15  N6  UNL     1      57.369  41.274  45.895  1.00  0.00    -0.324 N
ATOM     16  H62 UNL     1      58.185  41.253  46.507  1.00  0.00     0.178 HD
ATOM     17  H61 UNL     1      57.133  42.253  45.729  1.00  0.00     0.178 HD
ENDBRANCH   6  15
TORSDOF 3
ENDMDL