MODEL 4
REMARK VINA RESULT: -3.862830678      6.804      8.153
REMARK  1 active torsions:
REMARK  status: ('A' for Active; 'I' for Inactive)
REMARK    1  A    between atoms: N1_1  and  C1_4
ROOT
HETATM    1  C1  UNL     1      56.055  40.013  46.250  1.00  0.00     0.118 C
HETATM    2  C2  UNL     1      55.507  38.781  46.557  1.00  0.00     0.141 C
HETATM    3  N2  UNL     1      55.109  37.780  45.718  1.00  0.00    -0.315 N
ATOM      4  H2  UNL     1      54.591  37.016  46.151  1.00  0.00     0.170 HD
HETATM    5  C3  UNL     1      55.313  37.674  44.394  1.00  0.00     0.328 C
HETATM    6  O1  UNL     1      54.841  36.663  43.818  1.00  0.00    -0.247 OA
HETATM    7  N3  UNL     1      55.961  38.505  43.563  1.00  0.00    -0.260 N
ATOM      8  H3  UNL     1      55.942  38.259  42.573  1.00  0.00     0.175 HD
HETATM    9  C4  UNL     1      56.642  39.643  43.891  1.00  0.00     0.329 C
HETATM   10  O2  UNL     1      57.379  40.136  42.990  1.00  0.00    -0.246 OA
HETATM   11  N4  UNL     1      56.632  40.313  45.056  1.00  0.00    -0.294 N
ATOM     12  H4  UNL     1      57.143  41.196  45.043  1.00  0.00     0.172 HD
ENDROOT
BRANCH   1  13
HETATM   13  N1  UNL     1      56.024  40.947  47.142  1.00  0.00    -0.384 N
ATOM     14  H12 UNL     1      56.818  41.585  47.177  1.00  0.00     0.157 HD
ATOM     15  H11 UNL     1      55.217  41.005  47.764  1.00  0.00     0.157 HD
ENDBRANCH   1  13
TORSDOF 1
ENDMDL