MODEL 5
REMARK VINA RESULT: -4.120387564      6.394      7.809
REMARK  2 active torsions:
REMARK  status: ('A' for Active; 'I' for Inactive)
REMARK    1  A    between atoms: N1_1  and  C1_4
REMARK    2  A    between atoms: N3_9  and  N4_10
ROOT
HETATM    1  C1  UNL     1      50.084  33.472  42.922  1.00  0.00     0.696 A
HETATM    2  N2  UNL     1      49.051  33.096  43.722  1.00  0.00    -0.137 N
ATOM      3  H2  UNL     1      48.398  32.329  43.564  1.00  0.00     0.189 HD
HETATM    4  C2  UNL     1      49.071  33.938  44.754  1.00  0.00     0.380 A
HETATM    5  O1  UNL     1      48.284  33.946  45.728  1.00  0.00    -0.242 OA
HETATM    6  N3  UNL     1      50.089  34.817  44.602  1.00  0.00    -0.065 N
HETATM    7  N5  UNL     1      50.716  34.527  43.470  1.00  0.00    -0.102 N
ATOM      8  H5  UNL     1      51.526  35.013  43.085  1.00  0.00     0.208 HD
ENDROOT
BRANCH   1   9
HETATM    9  N1  UNL     1      50.389  32.885  41.807  1.00  0.00    -0.233 N
ATOM     10  H12 UNL     1      49.918  32.078  41.398  1.00  0.00     0.174 HD
ATOM     11  H11 UNL     1      51.157  33.174  41.201  1.00  0.00     0.174 HD
ENDBRANCH   1   9
BRANCH   6  12
HETATM   12  N4  UNL     1      50.400  35.827  45.515  1.00  0.00    -0.011 N
HETATM   13  O2  UNL     1      50.524  36.983  45.100  1.00  0.00    -0.515 OA
HETATM   14  O3  UNL     1      50.558  35.462  46.826  1.00  0.00    -0.515 OA
ENDBRANCH   6  12
TORSDOF 2
ENDMDL