MODEL 3
REMARK VINA RESULT: -3.526689632      1.014      3.352
REMARK  2 active torsions:
REMARK  status: ('A' for Active; 'I' for Inactive)
REMARK    1  A    between atoms: N1_1  and  N2_4
REMARK    2  A    between atoms: N2_4  and  C1_6
ROOT
HETATM    1  C1  UNL     1      55.417  38.066  44.779  1.00  0.00     0.702 A
HETATM    2  N3  UNL     1      55.012  38.542  45.968  1.00  0.00    -0.162 N
ATOM      3  H3  UNL     1      54.397  37.966  46.543  1.00  0.00     0.187 HD
HETATM    4  C2  UNL     1      55.390  39.752  46.431  1.00  0.00     0.210 A
HETATM    5  N4  UNL     1      54.948  40.230  47.692  1.00  0.00    -0.062 NA
HETATM    6  N5  UNL     1      56.203  40.534  45.699  1.00  0.00    -0.282 N
ATOM      7  H5  UNL     1      56.495  41.450  46.039  1.00  0.00     0.173 HD
HETATM    8  C3  UNL     1      56.621  40.073  44.502  1.00  0.00     0.341 A
HETATM    9  O1  UNL     1      57.378  40.774  43.792  1.00  0.00    -0.246 OA
HETATM   10  N6  UNL     1      56.230  38.847  44.045  1.00  0.00    -0.140 N
ATOM     11  H6  UNL     1      56.559  38.519  43.137  1.00  0.00     0.189 HD
ENDROOT
BRANCH   1  12
HETATM   12  N2  UNL     1      55.056  36.907  44.334  1.00  0.00    -0.138 N
ATOM     13  H2  UNL     1      54.058  36.719  44.234  1.00  0.00     0.205 HD
BRANCH  12  14
HETATM   14  N1  UNL     1      55.941  35.912  43.989  1.00  0.00    -0.331 N
ATOM     15  H12 UNL     1      55.877  35.541  43.041  1.00  0.00     0.177 HD
ATOM     16  H11 UNL     1      56.645  35.536  44.624  1.00  0.00     0.177 HD
ENDBRANCH  12  14
ENDBRANCH   1  12
TORSDOF 2
ENDMDL