MODEL 2
REMARK VINA RESULT: -3.423558487      1.118      2.763
REMARK  1 active torsions:
REMARK  status: ('A' for Active; 'I' for Inactive)
REMARK    1  A    between atoms: C4_11  and  N4_12
ROOT
HETATM    1  C1  UNL     1      50.181  36.090  46.437  1.00  0.00     0.180 C
HETATM    2  N1  UNL     1      49.867  35.087  45.440  1.00  0.00    -0.273 N
HETATM    3  N2  UNL     1      48.854  34.256  45.609  1.00  0.00    -0.248 N
ATOM      4  H2  UNL     1      48.287  34.323  46.454  1.00  0.00     0.192 HD
HETATM    5  C2  UNL     1      48.556  33.321  44.685  1.00  0.00     0.342 A
HETATM    6  O1  UNL     1      47.601  32.528  44.832  1.00  0.00    -0.245 OA
HETATM    7  N3  UNL     1      49.307  33.227  43.559  1.00  0.00    -0.271 N
ATOM      8  H3  UNL     1      49.078  32.519  42.861  1.00  0.00     0.174 HD
HETATM    9  C3  UNL     1      50.341  34.048  43.350  1.00  0.00     0.294 A
HETATM   10  O2  UNL     1      51.070  34.008  42.327  1.00  0.00    -0.264 OA
HETATM   11  C4  UNL     1      50.620  34.999  44.320  1.00  0.00     0.185 A
ENDROOT
BRANCH  11  12
HETATM   12  N4  UNL     1      51.598  35.831  44.198  1.00  0.00    -0.380 N
ATOM     13  H42 UNL     1      51.502  36.706  43.682  1.00  0.00     0.158 HD
ATOM     14  H41 UNL     1      52.483  35.581  44.640  1.00  0.00     0.158 HD
ENDBRANCH  11  12
TORSDOF 1
ENDMDL