MODEL 1
REMARK VINA RESULT: -5.392302159      0.000      0.000
REMARK  2 active torsions:
REMARK  status: ('A' for Active; 'I' for Inactive)
REMARK    1  A    between atoms: N1_1  and  N2_4
REMARK    2  A    between atoms: N2_4  and  C1_6
ROOT
HETATM    1  C1  UNL     1      55.933  40.724  47.100  1.00  0.00     0.714 A
HETATM    2  N3  UNL     1      55.091  39.675  47.115  1.00  0.00    -0.129 N
ATOM      3  H3  UNL     1      54.486  39.552  47.927  1.00  0.00     0.205 HD
HETATM    4  N4  UNL     1      55.006  38.792  46.131  1.00  0.00    -0.269 N
ATOM      5  H4  UNL     1      54.344  38.020  46.210  1.00  0.00     0.189 HD
HETATM    6  C2  UNL     1      55.772  38.891  45.028  1.00  0.00     0.200 A
HETATM    7  N5  UNL     1      55.718  37.977  43.952  1.00  0.00    -0.075 NA
HETATM    8  C3  UNL     1      56.642  39.964  44.999  1.00  0.00     0.302 A
HETATM    9  O1  UNL     1      57.379  40.098  43.987  1.00  0.00    -0.264 OA
HETATM   10  N6  UNL     1      56.714  40.851  46.012  1.00  0.00    -0.151 N
ATOM     11  H6  UNL     1      57.370  41.630  45.953  1.00  0.00     0.188 HD
ENDROOT
BRANCH   1  12
HETATM   12  N2  UNL     1      55.999  41.579  48.082  1.00  0.00    -0.137 N
ATOM     13  H2  UNL     1      56.909  41.917  48.395  1.00  0.00     0.205 HD
BRANCH  12  14
HETATM   14  N1  UNL     1      54.845  42.038  48.709  1.00  0.00    -0.331 N
ATOM     15  H12 UNL     1      54.699  43.044  48.787  1.00  0.00     0.177 HD
ATOM     16  H11 UNL     1      54.157  41.385  49.083  1.00  0.00     0.177 HD
ENDBRANCH  12  14
ENDBRANCH   1  12
TORSDOF 2
ENDMDL