MODEL 4
REMARK VINA RESULT: -4.075990715      1.515      3.103
REMARK  1 active torsions:
REMARK  status: ('A' for Active; 'I' for Inactive)
REMARK    1  A    between atoms: N2_6  and  N3_7
ROOT
HETATM    1  N1  UNL     1      50.363  32.980  41.758  1.00  0.00    -0.082 NA
HETATM    2  C1  UNL     1      50.242  33.689  42.983  1.00  0.00     0.125 A
HETATM    3  C2  UNL     1      51.152  34.671  43.323  1.00  0.00     0.121 A
HETATM    4  C3  UNL     1      51.016  35.354  44.530  1.00  0.00     0.273 A
HETATM    5  O1  UNL     1      51.868  36.241  44.798  1.00  0.00    -0.266 OA
HETATM    6  N2  UNL     1      49.997  35.049  45.351  1.00  0.00    -0.175 N
HETATM    7  C4  UNL     1      49.134  34.100  45.000  1.00  0.00     0.349 A
HETATM    8  O2  UNL     1      48.190  33.843  45.800  1.00  0.00    -0.244 OA
HETATM    9  N4  UNL     1      49.234  33.411  43.830  1.00  0.00    -0.295 N
ATOM     10  H4  UNL     1      48.550  32.690  43.598  1.00  0.00     0.172 HD
ENDROOT
BRANCH   6  11
HETATM   11  N3  UNL     1      49.864  35.738  46.560  1.00  0.00    -0.332 N
ATOM     12  H32 UNL     1      50.365  35.440  47.397  1.00  0.00     0.177 HD
ATOM     13  H31 UNL     1      49.253  36.553  46.604  1.00  0.00     0.177 HD
ENDBRANCH   6  11
TORSDOF 1
ENDMDL