MODEL 1
REMARK VINA RESULT: -6.030509948      0.000      0.000
REMARK  0 active torsions:
REMARK  status: ('A' for Active; 'I' for Inactive)
ROOT
HETATM    1  O1  UNL     1      47.899  32.762  44.344  1.00  0.00    -0.263 OA
HETATM    2  C1  UNL     1      48.975  33.302  44.067  1.00  0.00     0.305 A
HETATM    3  N1  UNL     1      49.857  33.033  43.087  1.00  0.00    -0.246 N
ATOM      4  H1  UNL     1      49.766  32.300  42.384  1.00  0.00     0.187 HD
HETATM    5  N2  UNL     1      50.862  33.885  43.197  1.00  0.00    -0.006 NA
HETATM    6  N3  UNL     1      50.660  34.709  44.227  1.00  0.00    -0.165 N
HETATM    7  C2  UNL     1      51.170  35.739  44.914  1.00  0.00     0.360 A
HETATM    8  O2  UNL     1      52.262  36.307  44.656  1.00  0.00    -0.243 OA
HETATM    9  N4  UNL     1      50.334  36.060  45.913  1.00  0.00    -0.248 N
ATOM     10  H4  UNL     1      50.457  36.801  46.601  1.00  0.00     0.192 HD
HETATM   11  N5  UNL     1      49.321  35.220  45.822  1.00  0.00    -0.276 N
ATOM     12  H5  UNL     1      48.516  35.214  46.449  1.00  0.00     0.189 HD
HETATM   13  C3  UNL     1      49.490  34.374  44.795  1.00  0.00     0.215 A
ENDROOT
TORSDOF 0
ENDMDL