MODEL 5
REMARK VINA RESULT: -5.288883674      2.339      4.007
REMARK  0 active torsions:
REMARK  status: ('A' for Active; 'I' for Inactive)
ROOT
HETATM    1  N1  UNL     1      51.652  36.308  45.101  1.00  0.00    -0.079 NA
HETATM    2  C1  UNL     1      50.633  35.326  45.004  1.00  0.00     0.160 A
HETATM    3  N2  UNL     1      50.606  34.454  43.966  1.00  0.00    -0.304 N
ATOM      4  H2  UNL     1      51.312  34.479  43.230  1.00  0.00     0.170 HD
HETATM    5  C2  UNL     1      49.603  33.556  43.952  1.00  0.00     0.315 A
HETATM    6  O1  UNL     1      49.545  32.732  43.005  1.00  0.00    -0.262 OA
HETATM    7  C3  UNL     1      48.630  33.491  44.930  1.00  0.00     0.315 A
HETATM    8  O2  UNL     1      47.706  32.634  44.881  1.00  0.00    -0.262 OA
HETATM    9  N3  UNL     1      48.711  34.381  45.933  1.00  0.00    -0.304 N
ATOM     10  H3  UNL     1      48.004  34.356  46.668  1.00  0.00     0.170 HD
HETATM   11  C4  UNL     1      49.680  35.299  46.005  1.00  0.00     0.160 A
HETATM   12  N4  UNL     1      49.751  36.237  47.077  1.00  0.00    -0.079 NA
ENDROOT
TORSDOF 0
ENDMDL