MODEL 3
REMARK VINA RESULT: -3.698363801      0.831      3.453
REMARK  3 active torsions:
REMARK  status: ('A' for Active; 'I' for Inactive)
REMARK    1  A    between atoms: C4_7  and  N3_8
REMARK    2  A    between atoms: C5_13  and  N5_14
REMARK    3  A    between atoms: N5_14  and  N6_16
ROOT
HETATM    1  C1  UNL     1      55.840  40.148  47.107  1.00  0.00     0.074 C
HETATM    2  C2  UNL     1      55.662  39.176  46.006  1.00  0.00     0.068 A
HETATM    3  N1  UNL     1      54.915  38.064  46.175  1.00  0.00    -0.285 N
ATOM      4  H1  UNL     1      54.455  37.864  47.063  1.00  0.00     0.187 HD
HETATM    5  N2  UNL     1      54.803  37.244  45.142  1.00  0.00    -0.128 N
HETATM    6  C3  UNL     1      54.003  36.025  45.279  1.00  0.00     0.197 C
HETATM    7  C4  UNL     1      55.398  37.481  43.958  1.00  0.00     0.694 A
HETATM    8  N4  UNL     1      56.156  38.599  43.767  1.00  0.00    -0.172 N
ATOM      9  H4  UNL     1      56.610  38.786  42.873  1.00  0.00     0.186 HD
HETATM   10  C5  UNL     1      56.283  39.449  44.809  1.00  0.00     0.159 A
ENDROOT
BRANCH  10  11
HETATM   11  N5  UNL     1      56.979  40.520  44.707  1.00  0.00    -0.290 N
ATOM     12  H5  UNL     1      57.519  40.820  45.518  1.00  0.00     0.188 HD
BRANCH  11  13
HETATM   13  N6  UNL     1      57.042  41.294  43.560  1.00  0.00    -0.344 N
ATOM     14  H62 UNL     1      56.458  42.129  43.533  1.00  0.00     0.176 HD
ATOM     15  H61 UNL     1      57.633  41.076  42.758  1.00  0.00     0.176 HD
ENDBRANCH  11  13
ENDBRANCH  10  11
BRANCH   7  16
HETATM   16  N3  UNL     1      55.244  36.645  43.011  1.00  0.00    -0.233 N
ATOM     17  H32 UNL     1      56.038  36.378  42.430  1.00  0.00     0.174 HD
ATOM     18  H31 UNL     1      54.319  36.249  42.846  1.00  0.00     0.174 HD
ENDBRANCH   7  16
TORSDOF 3
ENDMDL