MODEL 1
REMARK VINA RESULT: -5.032897359      0.000      0.000
REMARK  0 active torsions:
REMARK  status: ('A' for Active; 'I' for Inactive)
ROOT
HETATM    1  N1  UNL     1      54.043  36.746  45.689  1.00  0.00    -0.080 NA
HETATM    2  C1  UNL     1      54.816  37.924  45.777  1.00  0.00     0.150 A
HETATM    3  N2  UNL     1      54.798  38.676  46.894  1.00  0.00    -0.295 N
ATOM      4  H2  UNL     1      54.222  38.397  47.688  1.00  0.00     0.172 HD
HETATM    5  C2  UNL     1      55.541  39.795  46.961  1.00  0.00     0.328 A
HETATM    6  O1  UNL     1      55.526  40.504  48.010  1.00  0.00    -0.247 OA
HETATM    7  N3  UNL     1      56.290  40.149  45.913  1.00  0.00    -0.274 N
ATOM      8  H3  UNL     1      56.851  40.998  45.972  1.00  0.00     0.173 HD
HETATM    9  C3  UNL     1      56.329  39.416  44.778  1.00  0.00     0.277 A
HETATM   10  O2  UNL     1      57.042  39.779  43.818  1.00  0.00    -0.266 OA
HETATM   11  C4  UNL     1      55.581  38.262  44.672  1.00  0.00     0.155 A
HETATM   12  N4  UNL     1      55.606  37.476  43.490  1.00  0.00    -0.093 NA
ENDROOT
TORSDOF 0
ENDMDL