MODEL 4
REMARK VINA RESULT: -4.666899404      1.580      4.109
REMARK  1 active torsions:
REMARK  status: ('A' for Active; 'I' for Inactive)
REMARK    1  A    between atoms: C3_7  and  N3_8
ROOT
HETATM    1  C1  UNL     1      55.163  38.773  47.073  1.00  0.00     0.166 C
HETATM    2  N1  UNL     1      55.387  38.319  45.711  1.00  0.00    -0.255 N
HETATM    3  C2  UNL     1      56.052  39.049  44.796  1.00  0.00     0.344 A
HETATM    4  O1  UNL     1      56.503  40.165  45.118  1.00  0.00    -0.246 OA
HETATM    5  N2  UNL     1      56.253  38.615  43.532  1.00  0.00    -0.141 N
ATOM      6  H2  UNL     1      56.763  39.199  42.870  1.00  0.00     0.189 HD
HETATM    7  C3  UNL     1      55.784  37.417  43.145  1.00  0.00     0.683 A
HETATM    8  N4  UNL     1      55.119  36.684  44.053  1.00  0.00    -0.141 N
ATOM      9  H4  UNL     1      54.754  35.772  43.782  1.00  0.00     0.189 HD
HETATM   10  C4  UNL     1      54.919  37.121  45.316  1.00  0.00     0.344 A
HETATM   11  O2  UNL     1      54.291  36.427  46.172  1.00  0.00    -0.246 OA
ENDROOT
BRANCH   7  12
HETATM   12  N3  UNL     1      55.974  36.998  41.936  1.00  0.00    -0.234 N
ATOM     13  H32 UNL     1      56.758  36.392  41.693  1.00  0.00     0.174 HD
ATOM     14  H31 UNL     1      55.334  37.267  41.188  1.00  0.00     0.174 HD
ENDBRANCH   7  12
TORSDOF 1
ENDMDL