MODEL 2
REMARK VINA RESULT: -5.976027466      0.951      1.034
REMARK  2 active torsions:
REMARK  status: ('A' for Active; 'I' for Inactive)
REMARK    1  A    between atoms: N1_1  and  C1_4
REMARK    2  A    between atoms: N6_15  and  O1_16
ROOT
HETATM    1  C1  UNL     1      55.607  39.369  45.945  1.00  0.00     0.694 A
HETATM    2  N2  UNL     1      56.254  39.586  44.787  1.00  0.00    -0.170 N
ATOM      3  H2  UNL     1      56.822  40.423  44.661  1.00  0.00     0.186 HD
HETATM    4  C2  UNL     1      56.139  38.671  43.784  1.00  0.00     0.186 A
HETATM    5  N3  UNL     1      56.646  38.599  42.542  1.00  0.00    -0.267 N
ATOM      6  H3  UNL     1      57.261  39.286  42.105  1.00  0.00     0.190 HD
HETATM    7  N4  UNL     1      56.213  37.489  41.988  1.00  0.00    -0.239 N
ATOM      8  H4  UNL     1      56.450  37.191  41.043  1.00  0.00     0.208 HD
HETATM    9  N5  UNL     1      55.432  36.808  42.807  1.00  0.00    -0.265 N
ATOM     10  H5  UNL     1      54.970  35.918  42.620  1.00  0.00     0.190 HD
HETATM   11  C3  UNL     1      55.375  37.533  43.937  1.00  0.00     0.214 A
HETATM   12  N6  UNL     1      54.744  37.349  45.107  1.00  0.00    -0.127 N
HETATM   13  N7  UNL     1      54.874  38.247  46.050  1.00  0.00    -0.104 N
ATOM     14  H7  UNL     1      54.385  38.083  46.930  1.00  0.00     0.208 HD
ENDROOT
BRANCH   1  15
HETATM   15  N1  UNL     1      55.704  40.234  46.922  1.00  0.00    -0.233 N
ATOM     16  H12 UNL     1      54.895  40.739  47.285  1.00  0.00     0.174 HD
ATOM     17  H11 UNL     1      56.611  40.424  47.349  1.00  0.00     0.174 HD
ENDBRANCH   1  15
BRANCH  12  18
HETATM   18  O1  UNL     1      53.986  36.205  45.235  1.00  0.00    -0.266 OA
ATOM     19  H1  UNL     1      53.053  36.286  45.074  1.00  0.00     0.247 HD
ENDBRANCH  12  18
TORSDOF 2
ENDMDL