MODEL 5
REMARK VINA RESULT: -4.894779470      1.804      5.144
REMARK  3 active torsions:
REMARK  status: ('A' for Active; 'I' for Inactive)
REMARK       I    between atoms: C1_4  and  N3_6
REMARK    1  A    between atoms: C2_8  and  O1_10
REMARK    2  A    between atoms: O1_10  and  N5_11
REMARK    3  A    between atoms: N6_13  and  N7_15
ROOT
HETATM    1  N1  UNL     1      56.841  39.203  47.918  1.00  0.00    -0.373 N
ATOM      2  H11 UNL     1      57.657  38.775  47.481  1.00  0.00     0.158 HD
ATOM      3  H12 UNL     1      56.811  39.298  48.933  1.00  0.00     0.158 HD
HETATM    4  C1  UNL     1      55.866  39.615  47.187  1.00  0.00     0.188 C
HETATM    5  N2  UNL     1      54.730  40.212  47.796  1.00  0.00    -0.064 NA
HETATM    6  N3  UNL     1      55.909  39.484  45.786  1.00  0.00    -0.297 N
ATOM      7  H3  UNL     1      56.368  40.231  45.263  1.00  0.00     0.171 HD
HETATM    8  C2  UNL     1      55.425  38.515  45.111  1.00  0.00     0.260 C
HETATM    9  N4  UNL     1      54.759  37.403  45.703  1.00  0.00    -0.054 NA
ENDROOT
BRANCH   8  10
HETATM   10  O1  UNL     1      55.578  38.582  43.717  1.00  0.00    -0.187 OA
BRANCH  10  11
HETATM   11  N5  UNL     1      55.598  37.386  43.027  1.00  0.00    -0.185 N
HETATM   12  N6  UNL     1      56.223  37.272  41.944  1.00  0.00    -0.229 N
ATOM     13  H6  UNL     1      56.733  38.057  41.541  1.00  0.00     0.209 HD
ATOM     14  H5  UNL     1      55.098  36.581  43.404  1.00  0.00     0.218 HD
BRANCH  12  15
HETATM   15  N7  UNL     1      56.190  36.021  41.310  1.00  0.00    -0.329 N
ATOM     16  H72 UNL     1      55.555  35.293  41.638  1.00  0.00     0.178 HD
ATOM     17  H71 UNL     1      56.820  35.879  40.521  1.00  0.00     0.178 HD
ENDBRANCH  12  15
ENDBRANCH  10  11
ENDBRANCH   8  10
TORSDOF 3
ENDMDL