MODEL 5
REMARK VINA RESULT: -4.597873491      1.887      3.129
REMARK  0 active torsions:
REMARK  status: ('A' for Active; 'I' for Inactive)
REMARK       I    between atoms: N1_1  and  C1_4
ROOT
HETATM    1  N1  UNL     1      55.596  39.866  48.125  1.00  0.00    -0.234 N
ATOM      2  H11 UNL     1      54.981  39.336  48.742  1.00  0.00     0.174 HD
ATOM      3  H12 UNL     1      56.207  40.639  48.388  1.00  0.00     0.174 HD
HETATM    4  C1  UNL     1      55.625  39.546  46.874  1.00  0.00     0.679 C
HETATM    5  N2  UNL     1      56.435  40.246  46.060  1.00  0.00    -0.197 N
ATOM      6  H2  UNL     1      56.827  41.104  46.448  1.00  0.00     0.183 HD
HETATM    7  C2  UNL     1      56.795  39.948  44.783  1.00  0.00     0.180 C
HETATM    8  C3  UNL     1      56.362  38.901  43.996  1.00  0.00     0.265 C
HETATM    9  O1  UNL     1      56.951  38.857  42.884  1.00  0.00    -0.267 OA
HETATM   10  N3  UNL     1      55.444  37.967  44.237  1.00  0.00    -0.274 N
ATOM     11  H3  UNL     1      55.173  37.376  43.451  1.00  0.00     0.173 HD
HETATM   12  C4  UNL     1      54.832  37.724  45.422  1.00  0.00     0.341 C
HETATM   13  O2  UNL     1      54.206  36.654  45.538  1.00  0.00    -0.246 OA
HETATM   14  N4  UNL     1      54.817  38.525  46.525  1.00  0.00    -0.141 N
ATOM     15  H4  UNL     1      54.076  38.318  47.195  1.00  0.00     0.189 HD
ENDROOT
TORSDOF 0
ENDMDL