MODEL 3
REMARK VINA RESULT: -4.559916324      7.309      8.440
REMARK  1 active torsions:
REMARK  status: ('A' for Active; 'I' for Inactive)
REMARK    1  A    between atoms: N3_10  and  N4_11
ROOT
HETATM    1  N1  UNL     1      50.677  33.784  42.478  1.00  0.00    -0.080 NA
HETATM    2  C1  UNL     1      50.033  34.094  43.682  1.00  0.00     0.147 A
HETATM    3  C2  UNL     1      50.474  35.167  44.437  1.00  0.00     0.121 A
HETATM    4  C3  UNL     1      49.819  35.446  45.617  1.00  0.00     0.252 A
HETATM    5  O1  UNL     1      50.177  36.404  46.340  1.00  0.00    -0.268 OA
HETATM    6  N2  UNL     1      48.778  34.668  45.990  1.00  0.00    -0.274 N
ATOM      7  H2  UNL     1      48.287  34.867  46.862  1.00  0.00     0.173 HD
HETATM    8  C4  UNL     1      48.381  33.635  45.225  1.00  0.00     0.349 A
HETATM    9  O2  UNL     1      47.414  32.921  45.580  1.00  0.00    -0.244 OA
HETATM   10  N3  UNL     1      48.991  33.319  44.056  1.00  0.00    -0.198 N
ENDROOT
BRANCH  10  11
HETATM   11  N4  UNL     1      48.545  32.238  43.297  1.00  0.00    -0.333 N
ATOM     12  H42 UNL     1      49.063  31.359  43.296  1.00  0.00     0.177 HD
ATOM     13  H41 UNL     1      47.703  32.278  42.724  1.00  0.00     0.177 HD
ENDBRANCH  10  11
TORSDOF 1
ENDMDL