MODEL 4
REMARK VINA RESULT: -4.821772510      1.261      2.336
REMARK  2 active torsions:
REMARK  status: ('A' for Active; 'I' for Inactive)
REMARK    1  A    between atoms: N2_5  and  N3_6
REMARK    2  A    between atoms: N4_10  and  N5_12
ROOT
HETATM    1  N1  UNL     1      55.771  35.643  41.033  1.00  0.00    -0.190 NA
HETATM    2  C1  UNL     1      55.795  36.423  41.892  1.00  0.00     0.120 C
HETATM    3  C2  UNL     1      55.849  37.401  42.966  1.00  0.00     0.147 A
HETATM    4  C3  UNL     1      55.209  37.220  44.098  1.00  0.00     0.177 A
HETATM    5  N2  UNL     1      55.234  38.152  45.178  1.00  0.00    -0.099 N
HETATM    6  C4  UNL     1      55.986  39.347  45.040  1.00  0.00     0.731 A
HETATM    7  N4  UNL     1      56.037  40.221  45.997  1.00  0.00    -0.136 N
ATOM      8  H4  UNL     1      56.581  41.077  45.890  1.00  0.00     0.205 HD
HETATM    9  N6  UNL     1      56.705  39.583  43.812  1.00  0.00    -0.128 N
ATOM     10  H6  UNL     1      57.260  40.427  43.667  1.00  0.00     0.205 HD
HETATM   11  N7  UNL     1      56.600  38.598  42.836  1.00  0.00    -0.275 N
ATOM     12  H7  UNL     1      57.102  38.746  41.960  1.00  0.00     0.188 HD
ENDROOT
BRANCH   5  13
HETATM   13  N3  UNL     1      54.524  37.895  46.363  1.00  0.00    -0.324 N
ATOM     14  H32 UNL     1      53.526  38.095  46.418  1.00  0.00     0.178 HD
ATOM     15  H31 UNL     1      54.997  37.507  47.180  1.00  0.00     0.178 HD
ENDBRANCH   5  13
BRANCH   7  16
HETATM   16  N5  UNL     1      55.337  39.969  47.169  1.00  0.00    -0.331 N
ATOM     17  H52 UNL     1      55.819  39.552  47.966  1.00  0.00     0.177 HD
ATOM     18  H51 UNL     1      54.346  40.207  47.210  1.00  0.00     0.177 HD
ENDBRANCH   7  16
TORSDOF 2
ENDMDL