MODEL 3
REMARK VINA RESULT: -5.541108540      1.894      2.695
REMARK  0 active torsions:
REMARK  status: ('A' for Active; 'I' for Inactive)
ROOT
HETATM    1  O1  UNL     1      55.365  40.393  48.033  1.00  0.00    -0.247 OA
HETATM    2  C1  UNL     1      55.473  39.726  46.948  1.00  0.00     0.328 A
HETATM    3  N1  UNL     1      56.220  40.164  45.930  1.00  0.00    -0.273 N
ATOM      4  H1  UNL     1      56.715  41.051  46.022  1.00  0.00     0.173 HD
HETATM    5  C2  UNL     1      56.338  39.467  44.787  1.00  0.00     0.281 A
HETATM    6  O2  UNL     1      57.042  39.912  43.871  1.00  0.00    -0.265 OA
HETATM    7  C3  UNL     1      55.642  38.273  44.719  1.00  0.00     0.160 A
HETATM    8  N2  UNL     1      55.542  37.351  43.746  1.00  0.00    -0.276 N
ATOM      9  H2  UNL     1      56.002  37.399  42.838  1.00  0.00     0.184 HD
HETATM   10  N3  UNL     1      54.747  36.367  44.157  1.00  0.00    -0.020 NA
HETATM   11  N4  UNL     1      54.311  36.602  45.383  1.00  0.00    -0.267 N
ATOM     12  H4  UNL     1      53.691  36.012  45.938  1.00  0.00     0.186 HD
HETATM   13  C4  UNL     1      54.862  37.796  45.753  1.00  0.00     0.156 A
HETATM   14  N5  UNL     1      54.800  38.554  46.862  1.00  0.00    -0.291 N
ATOM     15  H5  UNL     1      54.235  38.241  47.652  1.00  0.00     0.172 HD
ENDROOT
TORSDOF 0
ENDMDL