MODEL 1
REMARK VINA RESULT: -8.562267044      0.000      0.000
REMARK  20 active torsions:
REMARK  status: ('A' for Active; 'I' for Inactive)
REMARK    1  A    between atoms: C1_2  and  O2_3
REMARK    2  A    between atoms: C1_2  and  C8_24
REMARK    3  A    between atoms: O2_3  and  C2_4
REMARK    4  A    between atoms: C2_4  and  C3_5
REMARK    5  A    between atoms: C2_4  and  C4_11
REMARK    6  A    between atoms: C3_5  and  O3_6
REMARK    7  A    between atoms: O3_6  and  S1_7
REMARK    8  A    between atoms: C4_11  and  N1_12
REMARK    9  A    between atoms: C6_14  and  C7_15
REMARK   10  A    between atoms: C7_15  and  O7_16
REMARK   11  A    between atoms: C7_15  and  O8_18
REMARK   12  A    between atoms: C9_27  and  N5_28
REMARK   13  A    between atoms: C10_33  and  C11_34
REMARK   14  A    between atoms: C11_34  and  C12_35
REMARK   15  A    between atoms: C14_37  and  O9_38
REMARK   16  A    between atoms: C15_40  and  O10_41
REMARK   17  A    between atoms: C16_43  and  O11_44
REMARK   18  A    between atoms: C18_47  and  C19_48
REMARK   19  A    between atoms: C19_48  and  O12_49
REMARK   20  A    between atoms: N9_58  and  O14_59
ROOT
HETATM    1  C8  UNL     1       7.032  31.188  29.146  1.00  0.00     0.139 A
HETATM    2  N4  UNL     1       7.883  30.453  28.457  1.00  0.00    -0.334 N
ATOM      3  H4  UNL     1       7.588  30.128  27.537  1.00  0.00     0.168 HD
HETATM    4  C9  UNL     1       9.143  30.090  28.886  1.00  0.00     0.131 A
HETATM    5  C20 UNL     1       9.504  30.507  30.081  1.00  0.00     0.085 A
HETATM    6  C21 UNL     1       8.652  31.309  30.871  1.00  0.00     0.100 A
HETATM    7  C22 UNL     1       7.408  31.655  30.396  1.00  0.00     0.099 A
HETATM    8  N8  UNL     1       6.804  32.523  31.238  1.00  0.00    -0.302 N
ATOM      9  H8  UNL     1       5.885  32.952  31.135  1.00  0.00     0.171 HD
HETATM   10  C23 UNL     1       7.672  32.693  32.230  1.00  0.00     0.351 A
HETATM   11  O13 UNL     1       7.427  33.464  33.220  1.00  0.00    -0.244 OA
HETATM   12  N9  UNL     1       8.779  31.969  32.026  1.00  0.00    -0.170 N
ENDROOT
BRANCH   1  13
HETATM   13  C1  UNL     1       5.672  31.377  28.695  1.00  0.00     0.313 C
HETATM   14  O1  UNL     1       5.291  32.506  28.367  1.00  0.00    -0.258 OA
BRANCH  13  15
HETATM   15  O2  UNL     1       4.724  30.332  28.578  1.00  0.00    -0.307 OA
BRANCH  15  16
HETATM   16  C2  UNL     1       4.607  29.800  27.282  1.00  0.00     0.177 C
BRANCH  16  17
HETATM   17  C3  UNL     1       4.897  30.633  26.094  1.00  0.00     0.227 C
BRANCH  17  18
HETATM   18  O3  UNL     1       5.087  29.555  25.124  1.00  0.00    -0.254 OA
BRANCH  18  19
HETATM   19  S1  UNL     1       6.682  29.294  24.812  1.00  0.00     0.251 S
HETATM   20  O4  UNL     1       7.516  30.428  25.444  1.00  0.00    -0.572 OA
HETATM   21  O5  UNL     1       6.832  29.664  23.278  1.00  0.00    -0.572 OA
HETATM   22  O6  UNL     1       7.384  27.865  25.083  1.00  0.00    -0.572 OA
ENDBRANCH  18  19
ENDBRANCH  17  18
ENDBRANCH  16  17
BRANCH  16  23
HETATM   23  C4  UNL     1       3.909  28.502  27.192  1.00  0.00     0.184 C
BRANCH  23  24
HETATM   24  N1  UNL     1       4.590  27.470  27.921  1.00  0.00    -0.284 N
HETATM   25  C5  UNL     1       4.391  26.431  28.642  1.00  0.00     0.143 A
HETATM   26  C6  UNL     1       5.601  25.831  28.941  1.00  0.00     0.098 A
HETATM   27  N2  UNL     1       6.530  26.601  28.348  1.00  0.00    -0.284 N
HETATM   28  N3  UNL     1       5.968  27.554  27.752  1.00  0.00    -0.240 N
ATOM     29  H2  UNL     1       7.537  26.437  28.377  1.00  0.00     0.188 HD
ATOM     30  H3  UNL     1       6.450  28.281  27.223  1.00  0.00     0.208 HD
BRANCH  26  31
HETATM   31  C7  UNL     1       5.900  24.606  29.739  1.00  0.00     0.308 C
BRANCH  31  32
HETATM   32  O7  UNL     1       7.036  24.628  30.466  1.00  0.00    -0.366 OA
ATOM     33  H7  UNL     1       7.844  24.751  29.982  1.00  0.00     0.213 HD
ENDBRANCH  31  32
BRANCH  31  34
HETATM   34  O8  UNL     1       4.745  24.464  30.537  1.00  0.00    -0.366 OA
ATOM     35  H8  UNL     1       4.625  23.522  30.567  1.00  0.00     0.213 HD
ENDBRANCH  31  34
ENDBRANCH  26  31
ENDBRANCH  23  24
ENDBRANCH  16  23
ENDBRANCH  15  16
ENDBRANCH  13  15
ENDBRANCH   1  13
BRANCH   4  36
HETATM   36  N5  UNL     1       9.954  29.633  27.749  1.00  0.00    -0.226 N
HETATM   37  N6  UNL     1       9.608  28.692  26.921  1.00  0.00    -0.234 N
HETATM   38  N7  UNL     1      10.195  28.894  25.731  1.00  0.00    -0.288 N
ATOM     39  H6  UNL     1       8.984  27.916  27.143  1.00  0.00     0.209 HD
HETATM   40  C10 UNL     1      10.954  30.023  25.810  1.00  0.00     0.058 A
ATOM     41  H7  UNL     1      10.092  28.302  24.907  1.00  0.00     0.188 HD
HETATM   42  C18 UNL     1      10.815  30.475  27.103  1.00  0.00     0.085 A
BRANCH  40  43
HETATM   43  C11 UNL     1      11.561  30.747  24.665  1.00  0.00     0.099 C
BRANCH  43  44
HETATM   44  C12 UNL     1      11.271  30.222  23.325  1.00  0.00    -0.047 A
HETATM   45  C13 UNL     1      12.064  29.244  22.754  1.00  0.00     0.047 A
HETATM   46  C14 UNL     1      11.711  28.601  21.584  1.00  0.00     0.102 A
HETATM   47  C15 UNL     1      10.560  28.946  20.997  1.00  0.00     0.132 A
HETATM   48  C16 UNL     1       9.736  29.941  21.546  1.00  0.00     0.102 A
HETATM   49  C17 UNL     1      10.122  30.564  22.712  1.00  0.00     0.047 A
BRANCH  46  50
HETATM   50  O9  UNL     1      12.533  27.653  21.021  1.00  0.00    -0.358 OA
ATOM     51  H9  UNL     1      13.284  27.906  20.495  1.00  0.00     0.217 HD
ENDBRANCH  46  50
BRANCH  47  52
HETATM   52  O10 UNL     1       9.949  28.386  19.831  1.00  0.00    -0.356 OA
ATOM     53  H10 UNL     1       9.932  28.733  18.947  1.00  0.00     0.218 HD
ENDBRANCH  47  52
BRANCH  48  54
HETATM   54  O11 UNL     1       8.555  30.265  20.886  1.00  0.00    -0.358 OA
ATOM     55  H11 UNL     1       8.275  31.173  20.875  1.00  0.00     0.217 HD
ENDBRANCH  48  54
ENDBRANCH  43  44
ENDBRANCH  40  43
BRANCH  42  56
HETATM   56  C19 UNL     1      11.424  31.657  27.671  1.00  0.00     0.225 C
BRANCH  56  57
HETATM   57  O12 UNL     1      12.780  31.271  28.027  1.00  0.00    -0.395 OA
ATOM     58  H12 UNL     1      12.708  30.808  28.854  1.00  0.00     0.209 HD
ENDBRANCH  56  57
ENDBRANCH  42  56
ENDBRANCH   4  36
BRANCH  12  59
HETATM   59  O14 UNL     1       9.865  31.873  32.866  1.00  0.00    -0.278 OA
ATOM     60  H14 UNL     1       9.967  32.363  33.674  1.00  0.00     0.245 HD
ENDBRANCH  12  59
TORSDOF 20
ENDMDL