MODEL 2
REMARK VINA RESULT: -10.048768544      4.455     15.367
REMARK  17 active torsions:
REMARK  status: ('A' for Active; 'I' for Inactive)
REMARK    1  A    between atoms: N5_15  and  C6_16
REMARK    2  A    between atoms: C7_18  and  C8_19
REMARK    3  A    between atoms: C8_19  and  O2_20
REMARK    4  A    between atoms: C10_23  and  N6_24
REMARK       I    between atoms: N6_24  and  C11_26
REMARK    5  A    between atoms: C11_26  and  C12_28
REMARK    6  A    between atoms: C13_31  and  C14_32
REMARK    7  A    between atoms: C15_35  and  N9_36
REMARK    8  A    between atoms: C16_41  and  N11_42
REMARK    9  A    between atoms: N11_42  and  C17_44
REMARK   10  A    between atoms: C17_44  and  C18_45
REMARK   11  A    between atoms: C18_45  and  C19_46
REMARK   12  A    between atoms: C19_46  and  S1_47
REMARK   13  A    between atoms: S1_47  and  C20_48
REMARK   14  A    between atoms: C21_51  and  C22_52
REMARK   15  A    between atoms: C22_52  and  O4_53
REMARK   16  A    between atoms: C22_52  and  C23_55
REMARK   17  A    between atoms: C23_55  and  O5_56
ROOT
HETATM    1  C12 UNL     1       8.963  29.364  18.960  1.00  0.00     0.240 A
HETATM    2  N7  UNL     1       9.721  29.661  20.003  1.00  0.00    -0.313 N
ATOM      3  H7  UNL     1      10.487  30.333  20.007  1.00  0.00     0.170 HD
HETATM    4  C13 UNL     1       9.317  28.939  21.044  1.00  0.00     0.163 A
HETATM    5  N15 UNL     1       8.287  28.183  20.627  1.00  0.00    -0.240 N
ATOM      6  H15 UNL     1       7.755  27.518  21.188  1.00  0.00     0.196 HD
HETATM    7  O6  UNL     1       8.100  28.461  19.371  1.00  0.00    -0.212 OA
ENDROOT
BRANCH   4   8
HETATM    8  C14 UNL     1       9.901  28.940  22.382  1.00  0.00     0.139 A
HETATM    9  N8  UNL     1       9.723  27.964  23.282  1.00  0.00    -0.182 N
HETATM   10  C15 UNL     1      10.255  27.907  24.508  1.00  0.00     0.678 A
ATOM     11  H8  UNL     1       9.122  27.187  23.004  1.00  0.00     0.185 HD
HETATM   12  N10 UNL     1      11.064  28.816  25.064  1.00  0.00    -0.171 N
HETATM   13  C16 UNL     1      11.497  29.943  24.513  1.00  0.00     0.161 A
ATOM     14  H10 UNL     1      11.382  28.621  26.013  1.00  0.00     0.186 HD
HETATM   15  S2  UNL     1      10.912  30.201  22.912  1.00  0.00    -0.032 SA
BRANCH  10  16
HETATM   16  N9  UNL     1       9.915  26.833  25.197  1.00  0.00    -0.234 N
ATOM     17  H92 UNL     1       8.929  26.643  25.376  1.00  0.00     0.174 HD
ATOM     18  H91 UNL     1      10.704  26.262  25.499  1.00  0.00     0.174 HD
ENDBRANCH  10  16
BRANCH  13  19
HETATM   19  N11 UNL     1      12.292  30.801  24.994  1.00  0.00    -0.370 N
ATOM     20  H11 UNL     1      13.029  31.109  24.359  1.00  0.00     0.161 HD
BRANCH  19  21
HETATM   21  C17 UNL     1      12.320  31.404  26.281  1.00  0.00     0.122 C
BRANCH  21  22
HETATM   22  C18 UNL     1      11.428  32.632  26.228  1.00  0.00     0.030 C
BRANCH  22  23
HETATM   23  C19 UNL     1      10.454  32.685  27.356  1.00  0.00     0.084 C
BRANCH  23  24
HETATM   24  S1  UNL     1      10.062  31.131  28.139  1.00  0.00    -0.092 SA
BRANCH  24  25
HETATM   25  C20 UNL     1       9.901  31.242  29.902  1.00  0.00     0.160 A
HETATM   26  N12 UNL     1       9.144  32.041  30.656  1.00  0.00    -0.322 N
HETATM   27  C21 UNL     1       9.346  31.754  31.933  1.00  0.00     0.129 A
ATOM     28  H12 UNL     1       8.512  32.761  30.304  1.00  0.00     0.169 HD
HETATM   29  N13 UNL     1      10.244  30.754  32.002  1.00  0.00    -0.285 N
HETATM   30  N14 UNL     1      10.582  30.444  30.752  1.00  0.00    -0.278 N
ATOM     31  H13 UNL     1      10.600  30.316  32.852  1.00  0.00     0.188 HD
ATOM     32  H14 UNL     1      11.248  29.721  30.480  1.00  0.00     0.189 HD
BRANCH  27  33
HETATM   33  C22 UNL     1       8.721  32.374  33.120  1.00  0.00     0.210 C
BRANCH  33  34
HETATM   34  O4  UNL     1       9.761  32.939  33.866  1.00  0.00    -0.386 OA
ATOM     35  H4  UNL     1       9.430  33.760  34.210  1.00  0.00     0.210 HD
ENDBRANCH  33  34
BRANCH  33  36
HETATM   36  C23 UNL     1       7.841  33.534  32.647  1.00  0.00     0.203 C
BRANCH  36  37
HETATM   37  O5  UNL     1       6.732  33.027  31.975  1.00  0.00    -0.398 OA
ATOM     38  H5  UNL     1       6.407  32.262  32.436  1.00  0.00     0.209 HD
ENDBRANCH  36  37
ENDBRANCH  33  36
ENDBRANCH  27  33
ENDBRANCH  24  25
ENDBRANCH  23  24
ENDBRANCH  22  23
ENDBRANCH  21  22
ENDBRANCH  19  21
ENDBRANCH  13  19
ENDBRANCH   4   8
BRANCH   1  39
HETATM   39  C11 UNL     1       9.049  29.924  17.596  1.00  0.00     0.296 C
HETATM   40  N6  UNL     1       9.103  29.011  16.507  1.00  0.00    -0.327 N
ATOM     41  H6  UNL     1       9.081  28.014  16.722  1.00  0.00     0.165 HD
HETATM   42  O3  UNL     1       9.075  31.173  17.451  1.00  0.00    -0.264 OA
BRANCH  40  43
HETATM   43  C10 UNL     1       9.186  29.397  15.118  1.00  0.00     0.231 C
HETATM   44  C9  UNL     1       7.906  29.002  14.428  1.00  0.00     0.088 C
HETATM   45  C7  UNL     1       7.993  27.513  14.176  1.00  0.00     0.154 C
HETATM   46  O1  UNL     1       8.901  27.325  13.118  1.00  0.00    -0.336 OA
HETATM   47  C6  UNL     1       9.932  28.245  13.243  1.00  0.00     0.382 C
HETATM   48  O7  UNL     1      10.194  28.549  14.580  1.00  0.00    -0.319 OA
BRANCH  45  49
HETATM   49  C8  UNL     1       6.690  26.859  13.854  1.00  0.00     0.196 C
BRANCH  49  50
HETATM   50  O2  UNL     1       6.427  27.082  12.486  1.00  0.00    -0.398 OA
ATOM     51  H2  UNL     1       5.518  26.856  12.327  1.00  0.00     0.209 HD
ENDBRANCH  49  50
ENDBRANCH  45  49
BRANCH  47  52
HETATM   52  N5  UNL     1      11.157  27.619  12.747  1.00  0.00    -0.277 N
HETATM   53  C2  UNL     1      11.561  26.357  12.781  1.00  0.00     0.156 A
HETATM   54  N2  UNL     1      10.959  25.266  13.275  1.00  0.00    -0.174 N
HETATM   55  C3  UNL     1      12.804  26.210  12.204  1.00  0.00     0.094 A
HETATM   56  C1  UNL     1      11.556  24.066  13.207  1.00  0.00     0.677 A
ATOM     57  H2  UNL     1      10.039  25.350  13.707  1.00  0.00     0.186 HD
HETATM   58  N1  UNL     1      10.927  23.036  13.700  1.00  0.00    -0.234 N
HETATM   59  N3  UNL     1      12.775  23.886  12.649  1.00  0.00    -0.200 N
ATOM     60  H12 UNL     1      10.008  23.172  14.121  1.00  0.00     0.174 HD
ATOM     61  H11 UNL     1      11.381  22.124  13.647  1.00  0.00     0.174 HD
HETATM   62  C4  UNL     1      13.391  24.961  12.149  1.00  0.00     0.139 A
ATOM     63  H3  UNL     1      13.208  22.964  12.611  1.00  0.00     0.183 HD
HETATM   64  N4  UNL     1      13.161  27.447  11.803  1.00  0.00    -0.348 N
HETATM   65  C5  UNL     1      12.156  28.297  12.134  1.00  0.00     0.190 A
ATOM     66  H4  UNL     1      14.031  27.698  11.334  1.00  0.00     0.167 HD
ENDBRANCH  47  52
ENDBRANCH  40  43
ENDBRANCH   1  39
TORSDOF 17
ENDMDL