MODEL 2
REMARK VINA RESULT: -9.447125064      2.527      7.651
REMARK  15 active torsions:
REMARK  status: ('A' for Active; 'I' for Inactive)
REMARK    1  A    between atoms: N3_6  and  C4_7
REMARK    2  A    between atoms: C5_9  and  N4_10
REMARK    3  A    between atoms: N4_10  and  C6_12
REMARK    4  A    between atoms: C7_13  and  O2_14
REMARK    5  A    between atoms: N5_16  and  C8_17
REMARK    6  A    between atoms: C8_17  and  C9_18
REMARK    7  A    between atoms: C10_21  and  O5_22
REMARK    8  A    between atoms: C11_24  and  C12_25
REMARK    9  A    between atoms: N6_26  and  C13_28
REMARK   10  A    between atoms: C13_28  and  C14_29
REMARK       I    between atoms: C14_29  and  N7_31
REMARK   11  A    between atoms: N7_31  and  N8_33
REMARK   12  A    between atoms: C15_35  and  C16_36
REMARK   13  A    between atoms: C17_37  and  O7_38
REMARK   14  A    between atoms: C21_43  and  N9_44
REMARK   15  A    between atoms: N10_50  and  O11_51
ROOT
HETATM    1  N1  UNL     1       6.025  26.090  22.947  1.00  0.00    -0.191 NA
HETATM    2  C1  UNL     1       5.707  26.547  23.960  1.00  0.00     0.108 C
HETATM    3  C2  UNL     1       5.321  27.136  25.225  1.00  0.00     0.153 A
HETATM    4  C3  UNL     1       5.491  28.485  25.446  1.00  0.00     0.152 A
HETATM    5  N2  UNL     1       6.046  29.288  24.427  1.00  0.00    -0.080 NA
HETATM    6  N3  UNL     1       5.140  29.080  26.623  1.00  0.00    -0.243 N
HETATM    7  C24 UNL     1       4.625  28.290  27.553  1.00  0.00     0.333 A
HETATM    8  O12 UNL     1       4.288  28.786  28.654  1.00  0.00    -0.246 OA
HETATM    9  N11 UNL     1       4.444  26.961  27.377  1.00  0.00    -0.274 N
ATOM     10  H11 UNL     1       4.043  26.402  28.130  1.00  0.00     0.173 HD
HETATM   11  C25 UNL     1       4.785  26.370  26.223  1.00  0.00     0.273 A
HETATM   12  O13 UNL     1       4.622  25.133  26.043  1.00  0.00    -0.266 OA
ENDROOT
BRANCH   6  13
HETATM   13  C4  UNL     1       5.355  30.508  26.747  1.00  0.00     0.341 C
HETATM   14  O1  UNL     1       5.859  30.917  27.937  1.00  0.00    -0.326 OA
HETATM   15  C5  UNL     1       5.111  31.962  28.424  1.00  0.00     0.240 C
HETATM   16  C23 UNL     1       4.429  32.481  27.178  1.00  0.00     0.179 C
HETATM   17  N10 UNL     1       4.152  31.237  26.423  1.00  0.00    -0.147 NA
BRANCH  15  18
HETATM   18  N4  UNL     1       5.882  32.959  29.130  1.00  0.00    -0.356 N
ATOM     19  H4  UNL     1       5.471  33.868  29.344  1.00  0.00     0.162 HD
BRANCH  18  20
HETATM   20  C6  UNL     1       7.209  32.669  29.525  1.00  0.00     0.133 A
HETATM   21  C7  UNL     1       7.513  32.405  30.870  1.00  0.00     0.176 A
HETATM   22  N5  UNL     1       8.762  32.127  31.274  1.00  0.00    -0.296 N
HETATM   23  C10 UNL     1       9.772  32.093  30.382  1.00  0.00     0.160 A
HETATM   24  C11 UNL     1       9.551  32.340  29.045  1.00  0.00     0.083 A
HETATM   25  C22 UNL     1       8.261  32.623  28.652  1.00  0.00     0.218 A
HETATM   26  O10 UNL     1       8.084  32.842  27.431  1.00  0.00    -0.285 OA
BRANCH  21  27
HETATM   27  O2  UNL     1       6.516  32.427  31.834  1.00  0.00    -0.344 OA
ATOM     28  H2  UNL     1       5.959  31.669  31.967  1.00  0.00     0.219 HD
ENDBRANCH  21  27
BRANCH  22  29
HETATM   29  C8  UNL     1       9.114  31.849  32.652  1.00  0.00     0.246 C
BRANCH  29  30
HETATM   30  C9  UNL     1       8.933  30.460  33.035  1.00  0.00     0.192 C
HETATM   31  O3  UNL     1       9.884  29.652  32.956  1.00  0.00    -0.647 OA
HETATM   32  O4  UNL     1       7.710  30.007  33.489  1.00  0.00    -0.647 OA
ENDBRANCH  29  30
ENDBRANCH  22  29
BRANCH  23  33
HETATM   33  O5  UNL     1      11.083  31.805  30.783  1.00  0.00    -0.345 OA
ATOM     34  H5  UNL     1      11.586  31.117  30.361  1.00  0.00     0.219 HD
ENDBRANCH  23  33
BRANCH  24  35
HETATM   35  C12 UNL     1      10.616  32.313  28.067  1.00  0.00     0.103 C
HETATM   36  N6  UNL     1      11.727  32.958  28.167  1.00  0.00    -0.389 N
ATOM     37  H6  UNL     1      11.936  33.552  28.970  1.00  0.00     0.159 HD
BRANCH  36  38
HETATM   38  C13 UNL     1      12.667  32.792  27.068  1.00  0.00     0.223 C
BRANCH  38  39
HETATM   39  C14 UNL     1      12.413  31.514  26.330  1.00  0.00     0.253 C
HETATM   40  O6  UNL     1      13.128  30.544  26.624  1.00  0.00    -0.270 OA
HETATM   41  N7  UNL     1      11.405  31.471  25.358  1.00  0.00    -0.269 N
ATOM     42  H7  UNL     1      10.866  32.319  25.186  1.00  0.00     0.190 HD
BRANCH  41  43
HETATM   43  N8  UNL     1      11.102  30.361  24.629  1.00  0.00    -0.308 N
HETATM   44  C15 UNL     1       9.939  29.897  24.423  1.00  0.00     0.124 C
ATOM     45  H8  UNL     1      11.883  29.856  24.210  1.00  0.00     0.186 HD
BRANCH  44  46
HETATM   46  C16 UNL     1       9.835  28.696  23.610  1.00  0.00     0.047 A
HETATM   47  C17 UNL     1      10.064  27.464  24.209  1.00  0.00     0.079 A
HETATM   48  C18 UNL     1       9.957  26.304  23.482  1.00  0.00     0.037 A
HETATM   49  C19 UNL     1       9.620  26.379  22.148  1.00  0.00     0.005 A
HETATM   50  C20 UNL     1       9.392  27.582  21.545  1.00  0.00     0.037 A
HETATM   51  C21 UNL     1       9.503  28.763  22.292  1.00  0.00     0.117 A
BRANCH  47  52
HETATM   52  O7  UNL     1      10.402  27.380  25.546  1.00  0.00    -0.360 OA
ATOM     53  H7  UNL     1      10.206  26.598  26.049  1.00  0.00     0.217 HD
ENDBRANCH  47  52
BRANCH  51  54
HETATM   54  N9  UNL     1       9.242  29.941  21.559  1.00  0.00    -0.115 N
HETATM   55  O8  UNL     1      10.053  30.396  20.758  1.00  0.00    -0.532 OA
HETATM   56  O9  UNL     1       8.010  30.572  21.738  1.00  0.00    -0.532 OA
ENDBRANCH  51  54
ENDBRANCH  44  46
ENDBRANCH  41  43
ENDBRANCH  38  39
ENDBRANCH  36  38
ENDBRANCH  24  35
ENDBRANCH  18  20
ENDBRANCH  15  18
BRANCH  17  57
HETATM   57  O11 UNL     1       3.049  30.678  26.970  1.00  0.00    -0.309 OA
ATOM     58  H11 UNL     1       2.346  30.575  26.339  1.00  0.00     0.237 HD
ENDBRANCH  17  57
ENDBRANCH   6  13
TORSDOF 15
ENDMDL