MODEL 3
REMARK VINA RESULT: -7.325257688      2.346      7.939
REMARK  23 active torsions:
REMARK  status: ('A' for Active; 'I' for Inactive)
REMARK    1  A    between atoms: C2_2  and  O1_3
REMARK    2  A    between atoms: O1_3  and  C3_4
REMARK    3  A    between atoms: C3_4  and  C4_6
REMARK    4  A    between atoms: C4_6  and  O3_7
REMARK    5  A    between atoms: C4_6  and  C27_53
REMARK    6  A    between atoms: O3_7  and  C5_8
REMARK    7  A    between atoms: C5_8  and  O4_9
REMARK    8  A    between atoms: O4_9  and  C6_10
REMARK    9  A    between atoms: C6_10  and  C7_12
REMARK   10  A    between atoms: C7_12  and  O6_13
REMARK   11  A    between atoms: C7_12  and  C16_31
REMARK   12  A    between atoms: O6_13  and  C8_14
REMARK   13  A    between atoms: C8_14  and  C9_16
REMARK   14  A    between atoms: C9_16  and  C10_17
REMARK   15  A    between atoms: C11_18  and  O8_19
REMARK   16  A    between atoms: C13_21  and  O9_22
REMARK   17  A    between atoms: C17_32  and  O12_33
REMARK   18  A    between atoms: C19_36  and  O13_37
REMARK   19  A    between atoms: C23_43  and  O15_44
REMARK   20  A    between atoms: C24_46  and  O16_47
REMARK   21  A    between atoms: C25_49  and  O17_50
REMARK   22  A    between atoms: C27_53  and  O18_54
REMARK   23  A    between atoms: C27_53  and  O19_56
ROOT
HETATM    1  C7  UNL     1       8.174  29.646  26.461  1.00  0.00     0.271 C
ENDROOT
BRANCH   1   2
HETATM    2  C6  UNL     1       7.506  28.487  27.113  1.00  0.00     0.295 C
HETATM    3  O5  UNL     1       8.083  27.581  27.728  1.00  0.00    -0.262 OA
BRANCH   2   4
HETATM    4  O4  UNL     1       6.096  28.362  27.055  1.00  0.00    -0.293 OA
BRANCH   4   5
HETATM    5  C5  UNL     1       5.297  28.657  28.182  1.00  0.00     0.349 C
BRANCH   5   6
HETATM    6  O3  UNL     1       4.080  29.128  27.735  1.00  0.00    -0.346 OA
BRANCH   6   7
HETATM    7  C4  UNL     1       3.989  29.406  26.401  1.00  0.00     0.278 C
BRANCH   7   8
HETATM    8  C3  UNL     1       3.406  30.735  26.081  1.00  0.00     0.293 C
HETATM    9  O2  UNL     1       3.758  31.298  24.987  1.00  0.00    -0.262 OA
BRANCH   8  10
HETATM   10  O1  UNL     1       2.519  31.405  26.866  1.00  0.00    -0.320 OA
BRANCH  10  11
HETATM   11  C2  UNL     1       2.278  32.768  26.685  1.00  0.00     0.174 C
HETATM   12  C1  UNL     1       2.962  33.636  27.708  1.00  0.00     0.034 C
ENDBRANCH  10  11
ENDBRANCH   8  10
ENDBRANCH   7   8
BRANCH   7  13
HETATM   13  C27 UNL     1       3.313  28.300  25.610  1.00  0.00     0.292 C
BRANCH  13  14
HETATM   14  O18 UNL     1       2.290  28.816  24.804  1.00  0.00    -0.368 OA
ATOM     15  H18 UNL     1       1.546  29.085  25.330  1.00  0.00     0.212 HD
ENDBRANCH  13  14
BRANCH  13  16
HETATM   16  O19 UNL     1       4.228  27.704  24.740  1.00  0.00    -0.368 OA
ATOM     17  H19 UNL     1       4.325  26.783  24.950  1.00  0.00     0.212 HD
ENDBRANCH  13  16
ENDBRANCH   7  13
ENDBRANCH   6   7
ENDBRANCH   5   6
ENDBRANCH   4   5
ENDBRANCH   2   4
ENDBRANCH   1   2
BRANCH   1  18
HETATM   18  O6  UNL     1       7.296  30.695  26.217  1.00  0.00    -0.300 OA
BRANCH  18  19
HETATM   19  C8  UNL     1       7.225  31.847  27.026  1.00  0.00     0.265 C
HETATM   20  O7  UNL     1       6.145  32.040  27.602  1.00  0.00    -0.265 OA
BRANCH  19  21
HETATM   21  C9  UNL     1       8.389  32.742  27.153  1.00  0.00     0.173 C
BRANCH  21  22
HETATM   22  C10 UNL     1       9.171  32.443  28.370  1.00  0.00     0.082 A
HETATM   23  C11 UNL     1      10.509  32.072  28.418  1.00  0.00     0.129 A
HETATM   24  C13 UNL     1      10.861  31.869  29.757  1.00  0.00     0.136 A
HETATM   25  C14 UNL     1       9.716  32.125  30.476  1.00  0.00     0.171 A
HETATM   26  C15 UNL     1       9.205  32.164  31.757  1.00  0.00     0.338 A
HETATM   27  N2  UNL     1       8.721  32.464  29.656  1.00  0.00    -0.228 N
HETATM   28  O10 UNL     1       9.800  31.915  32.839  1.00  0.00    -0.255 OA
HETATM   29  O11 UNL     1       7.954  32.516  31.660  1.00  0.00    -0.177 OA
HETATM   30  N1  UNL     1       7.679  32.690  30.420  1.00  0.00    -0.191 N
ATOM     31  H1  UNL     1       6.763  32.969  30.070  1.00  0.00     0.217 HD
BRANCH  23  32
HETATM   32  O8  UNL     1      11.428  31.903  27.406  1.00  0.00    -0.351 OA
HETATM   33  C12 UNL     1      12.118  32.923  26.732  1.00  0.00     0.210 C
ENDBRANCH  23  32
BRANCH  24  34
HETATM   34  O9  UNL     1      12.084  31.493  30.253  1.00  0.00    -0.356 OA
ATOM     35  H9  UNL     1      12.779  32.057  30.572  1.00  0.00     0.218 HD
ENDBRANCH  24  34
ENDBRANCH  21  22
ENDBRANCH  19  21
ENDBRANCH  18  19
ENDBRANCH   1  18
BRANCH   1  36
HETATM   36  C16 UNL     1       8.996  29.211  25.355  1.00  0.00     0.065 C
HETATM   37  C17 UNL     1      10.357  29.142  25.577  1.00  0.00     0.081 C
HETATM   38  C18 UNL     1      11.369  29.228  24.621  1.00  0.00     0.074 C
HETATM   39  C19 UNL     1      11.280  29.302  23.260  1.00  0.00     0.075 C
HETATM   40  C20 UNL     1      10.143  29.203  22.459  1.00  0.00    -0.009 C
HETATM   41  C21 UNL     1       8.840  29.069  22.889  1.00  0.00     0.033 C
HETATM   42  C26 UNL     1      10.530  29.262  21.043  1.00  0.00     0.076 C
HETATM   43  C22 UNL     1       8.387  28.854  24.161  1.00  0.00     0.193 C
HETATM   44  C23 UNL     1       7.735  29.154  21.902  1.00  0.00     0.187 C
HETATM   45  O14 UNL     1       7.287  28.255  24.245  1.00  0.00    -0.287 OA
HETATM   46  C24 UNL     1       8.234  28.431  20.650  1.00  0.00     0.180 C
HETATM   47  C25 UNL     1       9.371  29.259  20.095  1.00  0.00     0.154 C
BRANCH  37  48
HETATM   48  O12 UNL     1      10.800  28.971  26.862  1.00  0.00    -0.360 OA
ATOM     49  H12 UNL     1      11.118  29.731  27.335  1.00  0.00     0.217 HD
ENDBRANCH  37  48
BRANCH  39  50
HETATM   50  O13 UNL     1      12.490  29.502  22.594  1.00  0.00    -0.360 OA
ATOM     51  H13 UNL     1      13.268  29.267  23.086  1.00  0.00     0.217 HD
ENDBRANCH  39  50
BRANCH  44  52
HETATM   52  O15 UNL     1       7.541  30.492  21.485  1.00  0.00    -0.388 OA
ATOM     53  H15 UNL     1       8.281  31.032  21.739  1.00  0.00     0.210 HD
ENDBRANCH  44  52
BRANCH  46  54
HETATM   54  O16 UNL     1       7.198  28.300  19.738  1.00  0.00    -0.390 OA
ATOM     55  H16 UNL     1       7.238  29.004  19.101  1.00  0.00     0.210 HD
ENDBRANCH  46  54
BRANCH  47  56
HETATM   56  O17 UNL     1       9.801  28.752  18.853  1.00  0.00    -0.393 OA
ATOM     57  H17 UNL     1       9.656  27.814  18.801  1.00  0.00     0.210 HD
ENDBRANCH  47  56
ENDBRANCH   1  36
TORSDOF 23
ENDMDL