MODEL 2
REMARK VINA RESULT: -8.196144179      2.818      8.178
REMARK  19 active torsions:
REMARK  status: ('A' for Active; 'I' for Inactive)
REMARK    1  A    between atoms: C3_4  and  O2_5
REMARK    2  A    between atoms: O2_5  and  N1_6
REMARK    3  A    between atoms: N1_6  and  C4_7
REMARK    4  A    between atoms: C4_7  and  C5_8
REMARK    5  A    between atoms: C5_8  and  C6_9
REMARK    6  A    between atoms: C7_11  and  O4_12
REMARK    7  A    between atoms: C8_14  and  C9_15
REMARK    8  A    between atoms: C9_15  and  N2_16
REMARK    9  A    between atoms: C9_15  and  O6_19
REMARK   10  A    between atoms: O6_19  and  C10_20
REMARK   11  A    between atoms: C11_21  and  O7_22
REMARK   12  A    between atoms: C12_24  and  O8_25
REMARK   13  A    between atoms: O8_25  and  S1_26
REMARK   14  A    between atoms: C14_31  and  O12_32
REMARK   15  A    between atoms: C18_39  and  O15_40
REMARK   16  A    between atoms: C20_43  and  O16_44
REMARK   17  A    between atoms: O16_44  and  C21_45
REMARK   18  A    between atoms: C21_45  and  C22_47
REMARK   19  A    between atoms: C23_50  and  O20_51
ROOT
HETATM    1  N2  UNL     1       9.567  32.034  32.356  1.00  0.00    -0.256 NA
HETATM    2  O5  UNL     1       9.833  32.651  33.396  1.00  0.00    -0.216 OA
ATOM      3  H5  UNL     1       9.932  33.186  34.174  1.00  0.00     0.261 HD
ENDROOT
BRANCH   1   4
HETATM    4  C9  UNL     1       9.446  31.374  31.394  1.00  0.00     0.273 C
BRANCH   4   5
HETATM    5  C8  UNL     1       9.772  31.824  30.020  1.00  0.00     0.143 A
HETATM    6  C7  UNL     1      11.087  31.853  29.593  1.00  0.00     0.203 A
HETATM    7  O3  UNL     1      11.347  32.253  28.375  1.00  0.00    -0.289 OA
HETATM    8  C6  UNL     1      10.394  32.635  27.527  1.00  0.00     0.094 A
HETATM    9  C18 UNL     1       9.071  32.618  27.915  1.00  0.00     0.147 A
HETATM   10  C17 UNL     1       8.741  32.200  29.206  1.00  0.00     0.228 A
HETATM   11  O14 UNL     1       7.518  32.194  29.539  1.00  0.00    -0.284 OA
BRANCH   6  12
HETATM   12  O4  UNL     1      12.076  31.455  30.481  1.00  0.00    -0.340 OA
ATOM     13  H4  UNL     1      12.553  30.638  30.387  1.00  0.00     0.220 HD
ENDBRANCH   6  12
BRANCH   8  14
HETATM   14  C5  UNL     1      10.728  33.086  26.158  1.00  0.00     0.086 C
BRANCH  14  15
HETATM   15  C4  UNL     1      10.910  31.941  25.187  1.00  0.00     0.149 C
BRANCH  15  16
HETATM   16  N1  UNL     1       9.628  31.285  24.959  1.00  0.00    -0.098 NA
BRANCH  16  17
HETATM   17  O2  UNL     1       9.485  30.866  23.703  1.00  0.00    -0.254 OA
BRANCH  17  18
HETATM   18  C3  UNL     1      10.388  29.849  23.397  1.00  0.00     0.286 C
HETATM   19  O1  UNL     1       9.851  28.665  23.769  1.00  0.00    -0.352 OA
HETATM   20  C2  UNL     1       9.053  27.990  22.919  1.00  0.00     0.152 C
HETATM   21  C1  UNL     1       7.600  28.313  23.243  1.00  0.00     0.042 C
HETATM   22  C23 UNL     1       9.259  28.174  21.468  1.00  0.00     0.176 C
HETATM   23  C20 UNL     1       9.464  29.643  21.178  1.00  0.00     0.168 C
HETATM   24  C19 UNL     1      10.746  29.991  21.950  1.00  0.00     0.098 C
BRANCH  22  25
HETATM   25  O20 UNL     1      10.410  27.486  21.071  1.00  0.00    -0.390 OA
ATOM     26  H20 UNL     1      11.169  28.043  21.198  1.00  0.00     0.210 HD
ENDBRANCH  22  25
BRANCH  23  27
HETATM   27  O16 UNL     1       9.559  29.949  19.822  1.00  0.00    -0.304 OA
BRANCH  27  28
HETATM   28  C21 UNL     1       8.457  30.067  18.972  1.00  0.00     0.360 C
HETATM   29  O17 UNL     1       7.661  31.017  19.180  1.00  0.00    -0.252 OA
BRANCH  28  30
HETATM   30  C22 UNL     1       8.219  29.140  17.880  1.00  0.00     0.277 C
HETATM   31  O18 UNL     1       7.683  28.029  18.056  1.00  0.00    -0.640 OA
HETATM   32  O19 UNL     1       8.597  29.493  16.593  1.00  0.00    -0.640 OA
ENDBRANCH  28  30
ENDBRANCH  27  28
ENDBRANCH  23  27
ENDBRANCH  17  18
ENDBRANCH  16  17
ENDBRANCH  15  16
ENDBRANCH  14  15
ENDBRANCH   8  14
BRANCH   9  33
HETATM   33  O15 UNL     1       8.013  32.985  27.119  1.00  0.00    -0.355 OA
ATOM     34  H15 UNL     1       7.964  32.848  26.180  1.00  0.00     0.218 HD
ENDBRANCH   9  33
ENDBRANCH   4   5
BRANCH   4  35
HETATM   35  O6  UNL     1       8.951  30.040  31.534  1.00  0.00    -0.273 OA
BRANCH  35  36
HETATM   36  C10 UNL     1       9.782  28.958  31.286  1.00  0.00     0.165 C
HETATM   37  C11 UNL     1       9.823  28.434  30.008  1.00  0.00     0.139 C
HETATM   38  C12 UNL     1      10.807  27.642  29.410  1.00  0.00     0.130 C
HETATM   39  C13 UNL     1      11.968  27.142  29.953  1.00  0.00     0.077 C
HETATM   40  C14 UNL     1      12.287  27.030  31.313  1.00  0.00     0.072 C
HETATM   41  C15 UNL     1      11.593  27.611  32.380  1.00  0.00     0.094 C
HETATM   42  C16 UNL     1      10.518  28.477  32.352  1.00  0.00     0.211 C
HETATM   43  O13 UNL     1      10.153  28.891  33.480  1.00  0.00    -0.285 OA
BRANCH  37  44
HETATM   44  O7  UNL     1       8.722  28.759  29.239  1.00  0.00    -0.355 OA
ATOM     45  H7  UNL     1       8.225  28.004  28.945  1.00  0.00     0.218 HD
ENDBRANCH  37  44
BRANCH  38  46
HETATM   46  O8  UNL     1      10.572  27.321  28.090  1.00  0.00    -0.211 OA
BRANCH  46  47
HETATM   47  S1  UNL     1       9.844  25.810  27.753  1.00  0.00     0.257 S
HETATM   48  O9  UNL     1      10.722  24.674  28.136  1.00  0.00    -0.572 OA
HETATM   49  O10 UNL     1       9.499  25.794  26.297  1.00  0.00    -0.572 OA
HETATM   50  O11 UNL     1       8.373  25.768  28.603  1.00  0.00    -0.572 OA
ENDBRANCH  46  47
ENDBRANCH  38  46
BRANCH  40  51
HETATM   51  O12 UNL     1      13.393  26.274  31.655  1.00  0.00    -0.360 OA
ATOM     52  H12 UNL     1      13.473  25.407  31.275  1.00  0.00     0.217 HD
ENDBRANCH  40  51
ENDBRANCH  35  36
ENDBRANCH   4  35
ENDBRANCH   1   4
TORSDOF 19
ENDMDL