MODEL 2
REMARK VINA RESULT: -7.924937195      3.432      6.508
REMARK  19 active torsions:
REMARK  status: ('A' for Active; 'I' for Inactive)
REMARK    1  A    between atoms: C3_5  and  O3_6
REMARK    2  A    between atoms: C4_8  and  O4_9
REMARK    3  A    between atoms: C6_13  and  C7_14
REMARK    4  A    between atoms: C7_14  and  O5_15
REMARK    5  A    between atoms: C7_14  and  O6_17
REMARK    6  A    between atoms: C11_24  and  O9_25
REMARK    7  A    between atoms: O9_25  and  C12_26
REMARK    8  A    between atoms: C13_28  and  C14_29
REMARK    9  A    between atoms: C14_29  and  O11_30
REMARK   10  A    between atoms: C15_32  and  O12_33
REMARK   11  A    between atoms: O12_33  and  C16_34
REMARK   12  A    between atoms: C16_34  and  C17_35
REMARK   13  A    between atoms: C16_34  and  C18_38
REMARK   14  A    between atoms: C17_35  and  O13_36
REMARK   15  A    between atoms: C18_38  and  O14_39
REMARK   16  A    between atoms: C19_41  and  O15_42
REMARK   17  A    between atoms: C20_44  and  C21_45
REMARK   18  A    between atoms: C21_45  and  N1_46
REMARK   19  A    between atoms: N1_46  and  C22_48
ROOT
HETATM    1  O1  UNL     1       3.037  31.576  26.769  1.00  0.00    -0.259 OA
HETATM    2  C1  UNL     1       4.094  31.027  26.953  1.00  0.00     0.299 C
HETATM    3  O2  UNL     1       4.669  31.331  28.140  1.00  0.00    -0.271 OA
HETATM    4  C2  UNL     1       5.924  31.163  28.478  1.00  0.00     0.133 C
HETATM    5  C3  UNL     1       5.923  31.151  29.888  1.00  0.00     0.136 C
HETATM    6  C4  UNL     1       6.998  31.616  30.689  1.00  0.00     0.120 C
HETATM    7  C5  UNL     1       8.276  31.962  30.266  1.00  0.00     0.063 C
HETATM    8  S1  UNL     1       9.265  32.823  31.516  1.00  0.00    -0.049 SA
HETATM    9  C6  UNL     1       8.894  31.735  29.075  1.00  0.00     0.067 C
HETATM   10  C8  UNL     1       8.325  31.394  27.851  1.00  0.00     0.201 C
HETATM   11  O7  UNL     1       9.115  31.428  26.891  1.00  0.00    -0.287 OA
HETATM   12  C9  UNL     1       7.005  31.044  27.629  1.00  0.00     0.104 C
HETATM   13  C10 UNL     1       7.012  30.559  26.322  1.00  0.00     0.223 C
HETATM   14  O8  UNL     1       8.153  30.536  25.825  1.00  0.00    -0.284 OA
HETATM   15  C11 UNL     1       5.939  30.114  25.549  1.00  0.00     0.137 C
HETATM   16  C20 UNL     1       4.648  30.139  26.001  1.00  0.00     0.072 C
ENDROOT
BRANCH  15  17
HETATM   17  O9  UNL     1       6.220  29.666  24.340  1.00  0.00    -0.313 OA
BRANCH  17  18
HETATM   18  C12 UNL     1       7.355  29.203  23.678  1.00  0.00     0.298 C
HETATM   19  O10 UNL     1       7.641  29.890  22.515  1.00  0.00    -0.348 OA
HETATM   20  C13 UNL     1       7.704  28.972  21.455  1.00  0.00     0.180 C
HETATM   21  C15 UNL     1       8.305  27.742  22.083  1.00  0.00     0.186 C
HETATM   22  C19 UNL     1       7.472  27.750  23.406  1.00  0.00     0.205 C
BRANCH  20  23
HETATM   23  C14 UNL     1       8.723  29.531  20.461  1.00  0.00     0.198 C
BRANCH  23  24
HETATM   24  O11 UNL     1       9.177  28.534  19.583  1.00  0.00    -0.398 OA
ATOM     25  H11 UNL     1      10.120  28.569  19.480  1.00  0.00     0.209 HD
ENDBRANCH  23  24
ENDBRANCH  20  23
BRANCH  21  26
HETATM   26  O12 UNL     1       9.634  28.040  22.279  1.00  0.00    -0.371 OA
BRANCH  26  27
HETATM   27  C16 UNL     1      10.410  27.296  23.103  1.00  0.00     0.169 C
BRANCH  27  28
HETATM   28  C17 UNL     1      10.991  28.150  24.163  1.00  0.00     0.198 C
BRANCH  28  29
HETATM   29  O13 UNL     1      12.407  28.026  24.027  1.00  0.00    -0.398 OA
ATOM     30  H13 UNL     1      12.583  28.075  23.095  1.00  0.00     0.209 HD
ENDBRANCH  28  29
ENDBRANCH  27  28
BRANCH  27  31
HETATM   31  C18 UNL     1      11.729  26.912  22.246  1.00  0.00     0.198 C
BRANCH  31  32
HETATM   32  O14 UNL     1      12.009  25.643  22.745  1.00  0.00    -0.398 OA
ATOM     33  H14 UNL     1      12.712  25.839  23.353  1.00  0.00     0.209 HD
ENDBRANCH  31  32
ENDBRANCH  27  31
ENDBRANCH  26  27
ENDBRANCH  21  26
BRANCH  22  34
HETATM   34  O15 UNL     1       6.241  27.229  23.004  1.00  0.00    -0.388 OA
ATOM     35  H15 UNL     1       6.103  26.371  23.389  1.00  0.00     0.210 HD
ENDBRANCH  22  34
ENDBRANCH  17  18
ENDBRANCH  15  17
BRANCH  16  36
HETATM   36  C21 UNL     1       3.621  29.239  25.449  1.00  0.00     0.167 C
BRANCH  36  37
HETATM   37  N1  UNL     1       4.189  27.870  25.323  1.00  0.00    -0.384 N
ATOM     38  H1  UNL     1       4.581  27.511  24.453  1.00  0.00     0.160 HD
BRANCH  37  39
HETATM   39  C22 UNL     1       4.138  27.101  26.529  1.00  0.00     0.046 A
HETATM   40  C23 UNL     1       2.981  26.581  27.073  1.00  0.00     0.119 A
HETATM   41  N2  UNL     1       3.042  25.805  28.212  1.00  0.00    -0.342 N
HETATM   42  C24 UNL     1       4.158  25.507  28.852  1.00  0.00     0.178 A
ATOM     43  H2  UNL     1       2.167  25.437  28.585  1.00  0.00     0.167 HD
HETATM   44  C25 UNL     1       5.347  26.014  28.338  1.00  0.00     0.124 A
HETATM   45  O17 UNL     1       4.464  24.762  30.002  1.00  0.00    -0.307 OA
HETATM   46  C26 UNL     1       5.349  26.797  27.196  1.00  0.00     0.072 A
HETATM   47  O16 UNL     1       6.359  25.594  29.152  1.00  0.00    -0.321 OA
HETATM   48  C27 UNL     1       5.849  24.799  30.231  1.00  0.00     0.353 A
ENDBRANCH  37  39
ENDBRANCH  36  37
ENDBRANCH  16  36
BRANCH   5  49
HETATM   49  O3  UNL     1       4.819  30.655  30.492  1.00  0.00    -0.356 OA
ATOM     50  H3  UNL     1       4.912  29.817  30.930  1.00  0.00     0.218 HD
ENDBRANCH   5  49
BRANCH   9  51
HETATM   51  C7  UNL     1      10.366  31.837  28.986  1.00  0.00     0.293 C
BRANCH  51  52
HETATM   52  O5  UNL     1      10.723  32.902  28.149  1.00  0.00    -0.367 OA
ATOM     53  H5  UNL     1      11.231  33.541  28.636  1.00  0.00     0.213 HD
ENDBRANCH  51  52
BRANCH  51  54
HETATM   54  O6  UNL     1      10.881  30.684  28.363  1.00  0.00    -0.367 OA
ATOM     55  H6  UNL     1      10.918  29.972  28.992  1.00  0.00     0.213 HD
ENDBRANCH  51  54
ENDBRANCH   9  51
BRANCH   6  56
HETATM   56  O4  UNL     1       6.776  31.747  32.018  1.00  0.00    -0.357 OA
ATOM     57  H4  UNL     1       6.011  31.316  32.380  1.00  0.00     0.218 HD
ENDBRANCH   6  56
TORSDOF 19
ENDMDL