MODEL 4
REMARK VINA RESULT: -8.293951396      2.868      5.306
REMARK  21 active torsions:
REMARK  status: ('A' for Active; 'I' for Inactive)
REMARK    1  A    between atoms: C3_3  and  C4_4
REMARK    2  A    between atoms: C4_4  and  O2_6
REMARK    3  A    between atoms: O2_6  and  C5_7
REMARK    4  A    between atoms: C5_7  and  O3_8
REMARK    5  A    between atoms: C7_12  and  O5_13
REMARK    6  A    between atoms: C8_15  and  O6_16
REMARK    7  A    between atoms: O6_16  and  C9_17
REMARK    8  A    between atoms: C10_18  and  C11_19
REMARK    9  A    between atoms: C11_19  and  C12_20
REMARK   10  A    between atoms: C12_20  and  C13_21
REMARK   11  A    between atoms: C13_21  and  O7_22
REMARK   12  A    between atoms: O7_22  and  C14_23
REMARK   13  A    between atoms: C15_27  and  O8_28
REMARK   14  A    between atoms: C16_30  and  C17_31
REMARK   15  A    between atoms: C17_31  and  O9_32
REMARK   16  A    between atoms: C18_35  and  O11_36
REMARK   17  A    between atoms: C20_39  and  O12_40
REMARK   18  A    between atoms: C21_42  and  O13_43
REMARK   19  A    between atoms: C24_51  and  O17_52
REMARK   20  A    between atoms: C25_54  and  O18_55
REMARK   21  A    between atoms: O18_55  and  C26_56
ROOT
HETATM    1  C9  UNL     1       7.414  28.368  26.099  1.00  0.00     0.153 A
HETATM    2  C10 UNL     1       7.987  27.189  26.607  1.00  0.00     0.017 A
HETATM    3  C18 UNL     1       8.737  26.426  25.762  1.00  0.00     0.105 A
HETATM    4  C19 UNL     1       8.942  26.799  24.414  1.00  0.00     0.119 A
HETATM    5  C20 UNL     1       9.708  26.001  23.593  1.00  0.00     0.155 A
HETATM    6  C21 UNL     1       9.885  26.392  22.295  1.00  0.00     0.224 A
HETATM    7  O14 UNL     1       9.325  27.505  21.877  1.00  0.00    -0.234 OA
HETATM    8  C22 UNL     1       8.596  28.248  22.690  1.00  0.00     0.382 A
HETATM    9  O15 UNL     1       8.100  29.296  22.203  1.00  0.00    -0.237 OA
HETATM   10  N2  UNL     1       8.373  27.932  23.985  1.00  0.00    -0.216 N
HETATM   11  C23 UNL     1       7.624  28.714  24.784  1.00  0.00     0.291 A
HETATM   12  O16 UNL     1       7.129  29.767  24.288  1.00  0.00    -0.264 OA
ENDROOT
BRANCH   1  13
HETATM   13  O6  UNL     1       6.662  29.129  26.955  1.00  0.00    -0.303 OA
BRANCH  13  14
HETATM   14  C8  UNL     1       7.111  30.074  27.859  1.00  0.00     0.122 C
HETATM   15  C7  UNL     1       6.327  30.356  28.885  1.00  0.00     0.150 C
HETATM   16  C6  UNL     1       6.739  31.339  29.870  1.00  0.00     0.249 C
HETATM   17  C5  UNL     1       8.196  31.485  30.102  1.00  0.00     0.269 C
HETATM   18  O4  UNL     1       5.853  32.009  30.468  1.00  0.00    -0.284 OA
HETATM   19  C25 UNL     1       8.818  31.698  28.736  1.00  0.00     0.238 C
HETATM   20  C24 UNL     1       8.395  30.735  27.692  1.00  0.00     0.213 C
BRANCH  15  21
HETATM   21  O5  UNL     1       5.085  29.718  29.048  1.00  0.00    -0.355 OA
ATOM     22  H5  UNL     1       4.784  29.127  28.368  1.00  0.00     0.218 HD
ENDBRANCH  15  21
BRANCH  17  23
HETATM   23  O2  UNL     1       8.516  32.589  30.887  1.00  0.00    -0.269 OA
BRANCH  23  24
HETATM   24  C4  UNL     1       8.690  32.621  32.249  1.00  0.00     0.285 C
HETATM   25  O1  UNL     1       9.609  31.918  32.717  1.00  0.00    -0.260 OA
BRANCH  24  26
HETATM   26  C3  UNL     1       7.812  33.453  33.057  1.00  0.00     0.078 C
HETATM   27  C2  UNL     1       8.166  34.589  33.596  1.00  0.00    -0.025 C
HETATM   28  C1  UNL     1       9.530  35.128  33.418  1.00  0.00     0.036 C
ENDBRANCH  24  26
ENDBRANCH  23  24
ENDBRANCH  17  23
BRANCH  17  29
HETATM   29  O3  UNL     1       8.728  30.294  30.601  1.00  0.00    -0.357 OA
ATOM     30  H3  UNL     1       8.174  29.892  31.260  1.00  0.00     0.213 HD
ENDBRANCH  17  29
BRANCH  19  31
HETATM   31  O18 UNL     1      10.237  31.659  28.957  1.00  0.00    -0.307 OA
BRANCH  31  32
HETATM   32  C26 UNL     1      11.084  32.510  28.275  1.00  0.00     0.255 C
HETATM   33  C27 UNL     1      12.483  32.771  28.707  1.00  0.00     0.126 C
HETATM   34  O19 UNL     1      10.640  33.081  27.251  1.00  0.00    -0.266 OA
ENDBRANCH  31  32
ENDBRANCH  19  31
BRANCH  20  35
HETATM   35  O17 UNL     1       8.368  31.435  26.457  1.00  0.00    -0.386 OA
ATOM     36  H17 UNL     1       8.544  30.809  25.764  1.00  0.00     0.210 HD
ENDBRANCH  20  35
ENDBRANCH  13  14
ENDBRANCH   1  13
BRANCH   2  37
HETATM   37  C11 UNL     1       7.767  26.817  28.024  1.00  0.00     0.046 C
BRANCH  37  38
HETATM   38  C12 UNL     1       9.049  27.163  28.769  1.00  0.00     0.031 C
BRANCH  38  39
HETATM   39  C13 UNL     1       9.287  26.275  29.944  1.00  0.00     0.173 C
BRANCH  39  40
HETATM   40  O7  UNL     1      10.599  26.021  30.258  1.00  0.00    -0.339 OA
BRANCH  40  41
HETATM   41  C14 UNL     1      10.996  26.428  31.511  1.00  0.00     0.472 C
HETATM   42  N1  UNL     1       9.922  27.077  32.194  1.00  0.00     0.004 N
HETATM   43  C15 UNL     1      10.329  28.454  32.421  1.00  0.00     0.355 C
ATOM     44  H12 UNL     1       9.031  27.000  31.704  1.00  0.00     0.286 HD
ATOM     45  H11 UNL     1       9.643  26.596  33.050  1.00  0.00     0.286 HD
HETATM   46  C16 UNL     1      11.847  28.287  32.414  1.00  0.00     0.206 C
HETATM   47  O10 UNL     1      12.016  27.411  31.370  1.00  0.00    -0.327 OA
BRANCH  43  48
HETATM   48  O8  UNL     1       9.909  28.956  33.634  1.00  0.00    -0.368 OA
ATOM     49  H8  UNL     1      10.216  29.839  33.803  1.00  0.00     0.212 HD
ENDBRANCH  43  48
BRANCH  46  50
HETATM   50  C17 UNL     1      12.451  29.644  32.121  1.00  0.00     0.200 C
BRANCH  50  51
HETATM   51  O9  UNL     1      11.564  30.482  31.478  1.00  0.00    -0.398 OA
ATOM     52  H9  UNL     1      11.650  30.441  30.533  1.00  0.00     0.209 HD
ENDBRANCH  50  51
ENDBRANCH  46  50
ENDBRANCH  40  41
ENDBRANCH  39  40
ENDBRANCH  38  39
ENDBRANCH  37  38
ENDBRANCH   2  37
BRANCH   3  53
HETATM   53  O11 UNL     1       9.338  25.258  26.162  1.00  0.00    -0.358 OA
ATOM     54  H11 UNL     1       9.865  25.201  26.950  1.00  0.00     0.217 HD
ENDBRANCH   3  53
BRANCH   5  55
HETATM   55  O12 UNL     1      10.284  24.840  24.051  1.00  0.00    -0.354 OA
ATOM     56  H12 UNL     1      11.212  24.667  23.940  1.00  0.00     0.218 HD
ENDBRANCH   5  55
BRANCH   6  57
HETATM   57  O13 UNL     1      10.648  25.613  21.450  1.00  0.00    -0.338 OA
ATOM     58  H13 UNL     1      10.871  25.942  20.587  1.00  0.00     0.220 HD
ENDBRANCH   6  57
TORSDOF 21
ENDMDL