MODEL 1
REMARK VINA RESULT: -8.664655059      0.000      0.000
REMARK  15 active torsions:
REMARK  status: ('A' for Active; 'I' for Inactive)
REMARK    1  A    between atoms: O1_2  and  C2_3
REMARK    2  A    between atoms: C2_3  and  C3_7
REMARK    3  A    between atoms: C6_14  and  C7_15
REMARK       I    between atoms: N6_20  and  C8_21
REMARK       I    between atoms: C8_21  and  N7_23
REMARK    4  A    between atoms: N7_23  and  N8_25
REMARK       I    between atoms: N8_25  and  C9_27
REMARK    5  A    between atoms: C9_27  and  C10_29
REMARK    6  A    between atoms: C10_29  and  N9_30
REMARK    7  A    between atoms: C10_29  and  C14_39
REMARK    8  A    between atoms: N9_30  and  O4_31
REMARK    9  A    between atoms: O4_31  and  C11_32
REMARK   10  A    between atoms: C11_32  and  C12_33
REMARK   11  A    between atoms: C12_33  and  C13_34
REMARK   12  A    between atoms: C13_34  and  N10_35
REMARK   13  A    between atoms: C16_42  and  N11_43
REMARK   14  A    between atoms: C21_55  and  O5_56
REMARK   15  A    between atoms: N15_58  and  O6_59
ROOT
HETATM    1  C7  UNL     1      11.826  26.768  12.257  1.00  0.00     0.137 A
HETATM    2  N4  UNL     1      11.550  27.932  11.673  1.00  0.00    -0.279 N
ATOM      3  H4  UNL     1      11.892  28.233  10.760  1.00  0.00     0.189 HD
HETATM    4  N5  UNL     1      10.779  28.620  12.451  1.00  0.00    -0.230 N
ATOM      5  H5  UNL     1      10.426  29.552  12.230  1.00  0.00     0.209 HD
HETATM    6  N6  UNL     1      10.499  27.954  13.593  1.00  0.00    -0.173 N
HETATM    7  C8  UNL     1       9.681  28.464  14.627  1.00  0.00     0.362 C
HETATM    8  O2  UNL     1       9.175  29.611  14.478  1.00  0.00    -0.243 OA
HETATM    9  N7  UNL     1       9.381  27.787  15.816  1.00  0.00    -0.247 N
ATOM     10  H7  UNL     1       9.772  26.857  15.972  1.00  0.00     0.192 HD
HETATM   11  C17 UNL     1      11.154  26.790  13.478  1.00  0.00     0.176 A
HETATM   12  N13 UNL     1      11.192  25.723  14.412  1.00  0.00    -0.078 NA
ENDROOT
BRANCH   1  13
HETATM   13  C6  UNL     1      12.646  25.644  11.799  1.00  0.00     0.138 A
HETATM   14  N3  UNL     1      13.593  25.863  10.926  1.00  0.00    -0.337 N
HETATM   15  C5  UNL     1      14.456  24.939  10.383  1.00  0.00     0.096 A
ATOM     16  H3  UNL     1      13.704  26.827  10.612  1.00  0.00     0.167 HD
HETATM   17  C4  UNL     1      15.444  25.366   9.429  1.00  0.00     0.112 A
HETATM   18  C23 UNL     1      14.255  23.658  10.847  1.00  0.00     0.121 A
HETATM   19  N2  UNL     1      16.407  24.860   8.721  1.00  0.00    -0.328 N
HETATM   20  C24 UNL     1      15.488  26.735   9.052  1.00  0.00     0.188 A
HETATM   21  C3  UNL     1      17.063  25.743   7.935  1.00  0.00     0.201 A
ATOM     22  H2  UNL     1      16.651  23.870   8.756  1.00  0.00     0.168 HD
HETATM   23  O7  UNL     1      16.452  26.861   8.188  1.00  0.00    -0.272 OA
HETATM   24  N16 UNL     1      14.638  27.779   9.527  1.00  0.00    -0.072 NA
HETATM   25  C18 UNL     1      13.235  23.423  11.788  1.00  0.00     0.066 A
HETATM   26  N15 UNL     1      14.999  22.650  10.423  1.00  0.00    -0.197 N
HETATM   27  N14 UNL     1      12.452  24.401  12.247  1.00  0.00    -0.338 N
HETATM   28  C19 UNL     1      12.995  22.157  12.277  1.00  0.00     0.036 A
ATOM     29  H14 UNL     1      11.718  24.203  12.928  1.00  0.00     0.167 HD
HETATM   30  C20 UNL     1      13.786  21.143  11.813  1.00  0.00     0.060 A
HETATM   31  C21 UNL     1      14.769  21.397  10.900  1.00  0.00     0.169 A
BRANCH  21  32
HETATM   32  C2  UNL     1      18.176  25.460   7.045  1.00  0.00     0.188 C
HETATM   33  N1  UNL     1      18.167  25.901   5.839  1.00  0.00    -0.376 N
ATOM     34  H12 UNL     1      18.948  25.702   5.214  1.00  0.00     0.158 HD
ATOM     35  H11 UNL     1      17.361  26.448   5.535  1.00  0.00     0.158 HD
BRANCH  32  36
HETATM   36  O1  UNL     1      19.263  24.721   7.455  1.00  0.00    -0.338 OA
HETATM   37  C1  UNL     1      20.195  25.218   8.418  1.00  0.00     0.211 C
ENDBRANCH  32  36
ENDBRANCH  21  32
BRANCH  31  38
HETATM   38  O5  UNL     1      15.555  20.376  10.443  1.00  0.00    -0.339 OA
HETATM   39  C22 UNL     1      15.603  19.146  11.112  1.00  0.00     0.211 C
ENDBRANCH  31  38
BRANCH  26  40
HETATM   40  O6  UNL     1      15.997  22.817   9.513  1.00  0.00    -0.280 OA
ATOM     41  H6  UNL     1      16.241  23.703   9.273  1.00  0.00     0.245 HD
ENDBRANCH  26  40
ENDBRANCH   1  13
BRANCH   9  42
HETATM   42  N8  UNL     1       8.550  28.362  16.807  1.00  0.00    -0.264 N
HETATM   43  C9  UNL     1       7.166  28.102  16.888  1.00  0.00     0.263 C
HETATM   44  O3  UNL     1       6.639  27.325  16.053  1.00  0.00    -0.269 OA
ATOM     45  H8  UNL     1       8.969  28.992  17.491  1.00  0.00     0.190 HD
BRANCH  43  46
HETATM   46  C10 UNL     1       6.343  28.738  17.947  1.00  0.00     0.250 C
BRANCH  46  47
HETATM   47  N9  UNL     1       6.385  28.009  19.198  1.00  0.00    -0.080 NA
BRANCH  47  48
HETATM   48  O4  UNL     1       7.651  28.057  19.633  1.00  0.00    -0.285 OA
BRANCH  48  49
HETATM   49  C11 UNL     1       7.780  28.427  20.959  1.00  0.00     0.197 C
BRANCH  49  50
HETATM   50  C12 UNL     1       8.415  29.796  21.082  1.00  0.00     0.055 C
BRANCH  50  51
HETATM   51  C13 UNL     1       9.468  29.926  19.994  1.00  0.00     0.231 C
BRANCH  51  52
HETATM   52  N10 UNL     1      10.407  28.819  20.038  1.00  0.00    -0.079 N
ATOM     53 3H10 UNL     1      11.352  29.118  19.794  1.00  0.00     0.274 HD
ATOM     54 2H10 UNL     1      10.583  28.513  20.995  1.00  0.00     0.274 HD
ATOM     55 1H10 UNL     1      10.094  28.047  19.449  1.00  0.00     0.274 HD
ENDBRANCH  51  52
ENDBRANCH  50  51
ENDBRANCH  49  50
ENDBRANCH  48  49
ENDBRANCH  47  48
ENDBRANCH  46  47
BRANCH  46  56
HETATM   56  C14 UNL     1       4.902  28.854  17.470  1.00  0.00     0.049 A
HETATM   57  C15 UNL     1       3.907  28.253  18.194  1.00  0.00     0.080 A
HETATM   58  S1  UNL     1       2.516  28.652  17.289  1.00  0.00    -0.064 SA
HETATM   59  C16 UNL     1       3.274  29.553  16.053  1.00  0.00     0.142 A
HETATM   60  N12 UNL     1       4.562  29.504  16.395  1.00  0.00    -0.338 N
ATOM     61  H12 UNL     1       5.268  29.968  15.823  1.00  0.00     0.168 HD
BRANCH  59  62
HETATM   62  N11 UNL     1       2.737  30.154  15.012  1.00  0.00    -0.380 N
ATOM     63 2H11 UNL     1       1.779  30.076  14.670  1.00  0.00     0.158 HD
ATOM     64 1H11 UNL     1       3.163  30.805  14.353  1.00  0.00     0.158 HD
ENDBRANCH  59  62
ENDBRANCH  46  56
ENDBRANCH  43  46
ENDBRANCH   9  42
TORSDOF 15
ENDMDL