MODEL 5
REMARK VINA RESULT: -7.532938160      3.578      6.293
REMARK  16 active torsions:
REMARK  status: ('A' for Active; 'I' for Inactive)
REMARK    1  A    between atoms: O1_2  and  C2_3
REMARK    2  A    between atoms: C2_3  and  C5_19
REMARK    3  A    between atoms: N1_4  and  N2_6
REMARK       I    between atoms: N2_6  and  C3_8
REMARK       I    between atoms: C3_8  and  N3_10
REMARK    4  A    between atoms: N3_10  and  S1_12
REMARK    5  A    between atoms: S1_12  and  N4_15
REMARK    6  A    between atoms: N4_15  and  O4_17
REMARK    7  A    between atoms: C5_19  and  O5_20
REMARK    8  A    between atoms: C5_19  and  C6_22
REMARK    9  A    between atoms: C9_30  and  O8_31
REMARK   10  A    between atoms: C9_30  and  N6_33
REMARK   11  A    between atoms: C11_37  and  N8_38
REMARK   12  A    between atoms: C13_45  and  S2_46
REMARK   13  A    between atoms: S2_46  and  S3_47
REMARK   14  A    between atoms: S3_47  and  C14_48
REMARK   15  A    between atoms: C15_49  and  S4_50
REMARK   16  A    between atoms: S4_50  and  S5_51
ROOT
HETATM    1  C6  UNL     1       8.715  31.749  30.364  1.00  0.00     0.180 C
HETATM    2  O6  UNL     1       8.647  30.404  30.017  1.00  0.00    -0.344 OA
HETATM    3  C7  UNL     1       9.013  30.126  28.737  1.00  0.00     0.411 C
HETATM    4  N5  UNL     1       7.942  30.714  27.891  1.00  0.00    -0.014 N
ATOM      5  H51 UNL     1       6.982  30.523  28.181  1.00  0.00     0.283 HD
ATOM      6  H52 UNL     1       7.823  30.304  26.965  1.00  0.00     0.283 HD
HETATM    7  C8  UNL     1       8.354  32.094  27.928  1.00  0.00     0.346 C
HETATM    8  O7  UNL     1       9.755  32.062  27.752  1.00  0.00    -0.299 OA
HETATM    9  C9  UNL     1      10.197  30.827  28.175  1.00  0.00     0.313 C
HETATM   10  C13 UNL     1       8.125  32.636  29.325  1.00  0.00     0.147 C
ENDROOT
BRANCH   1  11
HETATM   11  C5  UNL     1       8.047  31.863  31.743  1.00  0.00     0.224 C
BRANCH  11  12
HETATM   12  C2  UNL     1       9.015  31.630  32.842  1.00  0.00     0.164 C
HETATM   13  N1  UNL     1       9.527  30.540  33.082  1.00  0.00    -0.277 N
ATOM     14  H1  UNL     1      10.143  30.677  33.884  1.00  0.00     0.189 HD
BRANCH  12  15
HETATM   15  O1  UNL     1       9.395  32.700  33.686  1.00  0.00    -0.341 OA
HETATM   16  C1  UNL     1       8.994  34.037  33.339  1.00  0.00     0.211 C
ENDBRANCH  12  15
BRANCH  13  17
HETATM   17  N2  UNL     1       9.621  29.263  32.746  1.00  0.00    -0.249 N
HETATM   18  C3  UNL     1      10.908  28.729  32.374  1.00  0.00     0.347 C
HETATM   19  O2  UNL     1      11.893  29.480  32.380  1.00  0.00    -0.245 OA
HETATM   20  N3  UNL     1      11.027  27.380  32.013  1.00  0.00    -0.250 N
ATOM     21  H3  UNL     1      10.204  26.776  32.011  1.00  0.00     0.182 HD
ATOM     22  H2  UNL     1       8.795  28.665  32.749  1.00  0.00     0.192 HD
BRANCH  20  23
HETATM   23  S1  UNL     1      12.558  26.749  31.574  1.00  0.00     0.129 S
HETATM   24  C4  UNL     1      12.317  25.261  30.637  1.00  0.00     0.162 C
HETATM   25  O3  UNL     1      13.431  26.518  32.752  1.00  0.00    -0.227 OA
BRANCH  23  26
HETATM   26  N4  UNL     1      13.314  27.765  30.632  1.00  0.00    -0.211 N
ATOM     27  H4  UNL     1      14.312  27.948  30.736  1.00  0.00     0.205 HD
BRANCH  26  28
HETATM   28  O4  UNL     1      12.561  28.394  29.661  1.00  0.00    -0.281 OA
ATOM     29  H4  UNL     1      13.010  28.638  28.860  1.00  0.00     0.245 HD
ENDBRANCH  26  28
ENDBRANCH  23  26
ENDBRANCH  20  23
ENDBRANCH  13  17
ENDBRANCH  11  12
BRANCH  11  30
HETATM   30  O5  UNL     1       7.124  30.795  31.860  1.00  0.00    -0.385 OA
ATOM     31  H5  UNL     1       6.531  31.074  32.548  1.00  0.00     0.210 HD
ENDBRANCH  11  30
ENDBRANCH   1  11
BRANCH  10  32
HETATM   32  S2  UNL     1       6.451  33.156  29.512  1.00  0.00    -0.079 SA
BRANCH  32  33
HETATM   33  S3  UNL     1       4.947  31.735  29.365  1.00  0.00    -0.037 SA
BRANCH  33  34
HETATM   34  C14 UNL     1       4.218  31.749  27.740  1.00  0.00     0.106 A
HETATM   35  C15 UNL     1       4.260  30.932  26.715  1.00  0.00     0.113 A
HETATM   36  C17 UNL     1       3.390  31.807  25.953  1.00  0.00     0.266 A
HETATM   37  O10 UNL     1       2.862  31.833  24.803  1.00  0.00    -0.267 OA
HETATM   38  N10 UNL     1       3.364  32.666  27.072  1.00  0.00    -0.315 N
ATOM     39  H10 UNL     1       2.924  33.558  27.302  1.00  0.00     0.170 HD
BRANCH  35  40
HETATM   40  S4  UNL     1       5.006  29.365  26.251  1.00  0.00    -0.050 SA
BRANCH  40  41
HETATM   41  S5  UNL     1       5.136  28.046  27.895  1.00  0.00    -0.097 SA
HETATM   42  C16 UNL     1       6.763  27.215  27.945  1.00  0.00     0.103 C
ENDBRANCH  40  41
ENDBRANCH  35  40
ENDBRANCH  33  34
ENDBRANCH  32  33
ENDBRANCH  10  32
BRANCH   9  43
HETATM   43  O8  UNL     1      11.272  30.874  29.064  1.00  0.00    -0.345 OA
ATOM     44  H8  UNL     1      11.981  31.427  28.757  1.00  0.00     0.215 HD
ENDBRANCH   9  43
BRANCH   9  45
HETATM   45  N6  UNL     1      10.717  30.090  27.019  1.00  0.00    -0.234 N
HETATM   46  C10 UNL     1      10.221  28.865  26.754  1.00  0.00     0.210 A
HETATM   47  N7  UNL     1      10.643  28.124  25.714  1.00  0.00    -0.188 N
HETATM   48  C11 UNL     1      11.594  28.600  24.892  1.00  0.00     0.680 A
ATOM     49  H7  UNL     1      10.242  27.201  25.549  1.00  0.00     0.185 HD
HETATM   50  N9  UNL     1      12.091  29.822  25.154  1.00  0.00    -0.141 N
HETATM   51  C12 UNL     1      11.665  30.574  26.207  1.00  0.00     0.346 A
ATOM     52  H9  UNL     1      12.814  30.199  24.541  1.00  0.00     0.189 HD
HETATM   53  O9  UNL     1      12.187  31.702  26.371  1.00  0.00    -0.246 OA
BRANCH  48  54
HETATM   54  N8  UNL     1      12.019  27.893  23.873  1.00  0.00    -0.234 N
ATOM     55  H82 UNL     1      11.682  28.068  22.926  1.00  0.00     0.174 HD
ATOM     56  H81 UNL     1      12.701  27.145  24.003  1.00  0.00     0.174 HD
ENDBRANCH  48  54
ENDBRANCH   9  45
TORSDOF 16
ENDMDL