MODEL 4
REMARK VINA RESULT: -8.282454600      1.466      2.256
REMARK  8 active torsions:
REMARK  status: ('A' for Active; 'I' for Inactive)
REMARK    1  A    between atoms: N1_1  and  C1_4
REMARK    2  A    between atoms: N4_10  and  N5_11
REMARK       I    between atoms: N5_11  and  C3_13
REMARK    3  A    between atoms: C3_13  and  C4_15
REMARK    4  A    between atoms: C4_15  and  S1_16
REMARK    5  A    between atoms: S1_16  and  C5_17
REMARK    6  A    between atoms: C6_22  and  C7_23
REMARK    7  A    between atoms: C9_25  and  N8_26
REMARK       I    between atoms: N8_26  and  C10_28
REMARK       I    between atoms: C10_28  and  N9_29
REMARK       I    between atoms: C10_28  and  N10_33
REMARK    8  A    between atoms: N13_42  and  N14_43
ROOT
HETATM    1  C5  UNL     1      -8.350  39.011  33.837  1.00  0.00     0.182 A
HETATM    2  N6  UNL     1      -7.829  40.202  33.456  1.00  0.00    -0.277 N
ATOM      3  H6  UNL     1      -7.043  40.325  32.817  1.00  0.00     0.189 HD
HETATM    4  N7  UNL     1      -8.499  41.178  34.041  1.00  0.00    -0.280 N
ATOM      5  H7  UNL     1      -8.310  42.174  33.923  1.00  0.00     0.188 HD
HETATM    6  C6  UNL     1      -9.479  40.652  34.824  1.00  0.00     0.170 A
HETATM    7  N13 UNL     1      -9.351  39.322  34.668  1.00  0.00    -0.219 N
ENDROOT
BRANCH   6   8
HETATM    8  C7  UNL     1     -10.438  41.395  35.639  1.00  0.00     0.084 A
HETATM    9  C8  UNL     1     -11.770  41.345  35.318  1.00  0.00     0.081 A
HETATM   10  C9  UNL     1     -12.705  42.033  36.059  1.00  0.00     0.106 A
HETATM   11  N11 UNL     1     -12.291  42.762  37.111  1.00  0.00    -0.339 N
HETATM   12  C11 UNL     1     -10.989  42.820  37.438  1.00  0.00     0.182 A
ATOM     13  H11 UNL     1     -12.974  43.276  37.668  1.00  0.00     0.168 HD
HETATM   14  N12 UNL     1     -10.083  42.136  36.697  1.00  0.00    -0.349 N
ATOM     15  H12 UNL     1      -9.097  42.186  36.955  1.00  0.00     0.166 HD
BRANCH  10  16
HETATM   16  N8  UNL     1     -13.933  41.960  35.726  1.00  0.00    -0.327 N
HETATM   17  C10 UNL     1     -15.018  41.763  36.658  1.00  0.00     0.481 C
HETATM   18  N9  UNL     1     -15.357  42.998  37.352  1.00  0.00    -0.033 N
HETATM   19  N10 UNL     1     -16.185  41.387  35.883  1.00  0.00    -0.033 N
ATOM     20  H93 UNL     1     -14.541  43.406  37.809  1.00  0.00     0.278 HD
ATOM     21  H92 UNL     1     -15.563  43.751  36.695  1.00  0.00     0.278 HD
ATOM     22  H91 UNL     1     -16.123  42.858  38.010  1.00  0.00     0.278 HD
ATOM     23 3H10 UNL     1     -16.407  42.057  35.146  1.00  0.00     0.278 HD
ATOM     24 2H10 UNL     1     -16.023  40.580  35.282  1.00  0.00     0.278 HD
ATOM     25 1H10 UNL     1     -16.951  41.247  36.542  1.00  0.00     0.278 HD
ATOM     26  H8  UNL     1     -14.165  42.048  34.736  1.00  0.00     0.164 HD
ENDBRANCH  10  16
ENDBRANCH   6   8
BRANCH   7  27
HETATM   27  N14 UNL     1     -10.172  38.387  35.305  1.00  0.00    -0.335 N
ATOM     28 2H14 UNL     1      -9.874  37.438  35.533  1.00  0.00     0.177 HD
ATOM     29 1H14 UNL     1     -11.133  38.564  35.596  1.00  0.00     0.177 HD
ENDBRANCH   7  27
BRANCH   1  30
HETATM   30  S1  UNL     1      -7.748  37.422  33.290  1.00  0.00    -0.081 SA
BRANCH  30  31
HETATM   31  C4  UNL     1      -5.952  37.321  33.400  1.00  0.00     0.186 C
BRANCH  31  32
HETATM   32  C3  UNL     1      -5.440  37.926  32.090  1.00  0.00     0.246 C
HETATM   33  N5  UNL     1      -5.512  37.110  30.968  1.00  0.00    -0.247 N
ATOM     34  H5  UNL     1      -5.901  36.182  31.135  1.00  0.00     0.191 HD
HETATM   35  O1  UNL     1      -5.022  39.079  32.206  1.00  0.00    -0.271 OA
BRANCH  33  36
HETATM   36  N4  UNL     1      -5.136  37.359  29.653  1.00  0.00    -0.077 N
HETATM   37  C1  UNL     1      -4.019  37.887  29.172  1.00  0.00     0.712 A
HETATM   38  N2  UNL     1      -4.084  37.931  27.800  1.00  0.00    -0.130 N
HETATM   39  N3  UNL     1      -5.241  37.429  27.454  1.00  0.00    -0.279 N
ATOM     40  H2  UNL     1      -3.365  38.287  27.170  1.00  0.00     0.205 HD
HETATM   41  C2  UNL     1      -5.898  37.075  28.554  1.00  0.00     0.242 A
ATOM     42  H3  UNL     1      -5.582  37.326  26.498  1.00  0.00     0.188 HD
BRANCH  37  43
HETATM   43  N1  UNL     1      -2.976  38.329  29.764  1.00  0.00    -0.232 N
ATOM     44  H12 UNL     1      -2.632  39.280  29.896  1.00  0.00     0.174 HD
ATOM     45  H11 UNL     1      -2.332  37.669  30.199  1.00  0.00     0.174 HD
ENDBRANCH  37  43
ENDBRANCH  33  36
ENDBRANCH  31  32
ENDBRANCH  30  31
ENDBRANCH   1  30
TORSDOF 8
ENDMDL