MODEL 5
REMARK VINA RESULT: -6.777601669      1.663      1.930
REMARK  12 active torsions:
REMARK  status: ('A' for Active; 'I' for Inactive)
REMARK    1  A    between atoms: C2_2  and  C4_16
REMARK    2  A    between atoms: N1_3  and  N2_5
REMARK       I    between atoms: N2_5  and  C3_7
REMARK       I    between atoms: C3_7  and  N4_11
REMARK    3  A    between atoms: N4_11  and  N5_13
REMARK    4  A    between atoms: C4_16  and  N6_17
REMARK    5  A    between atoms: C4_16  and  O4_28
REMARK    6  A    between atoms: N6_17  and  N7_19
REMARK    7  A    between atoms: N7_19  and  O3_20
REMARK    8  A    between atoms: N7_19  and  C5_22
REMARK    9  A    between atoms: O4_28  and  C8_29
REMARK   10  A    between atoms: C8_29  and  C9_31
REMARK   11  A    between atoms: C9_31  and  N10_35
REMARK   12  A    between atoms: N10_35  and  N11_37
ROOT
HETATM    1  C4  UNL     1     -13.640  39.774  37.565  1.00  0.00     0.296 C
ENDROOT
BRANCH   1   2
HETATM    2  C2  UNL     1     -12.818  39.277  36.437  1.00  0.00     0.050 C
HETATM    3  C1  UNL     1     -13.453  38.388  35.430  1.00  0.00     0.070 C
HETATM    4  N1  UNL     1     -11.589  39.612  36.341  1.00  0.00    -0.291 N
ATOM      5  H1  UNL     1     -11.186  40.223  37.051  1.00  0.00     0.187 HD
BRANCH   4   6
HETATM    6  N2  UNL     1     -10.782  39.167  35.295  1.00  0.00    -0.131 N
HETATM    7  C3  UNL     1      -9.691  39.984  34.899  1.00  0.00     0.709 C
HETATM    8  N3  UNL     1      -9.315  40.997  35.586  1.00  0.00    -0.232 N
HETATM    9  N4  UNL     1      -9.004  39.660  33.704  1.00  0.00    -0.071 N
ATOM     10  H32 UNL     1      -9.809  41.231  36.447  1.00  0.00     0.174 HD
ATOM     11  H31 UNL     1      -8.531  41.584  35.302  1.00  0.00     0.174 HD
ATOM     12  H4  UNL     1      -9.275  40.117  32.833  1.00  0.00     0.212 HD
ATOM     13  H2  UNL     1     -10.969  38.280  34.828  1.00  0.00     0.205 HD
BRANCH   9  14
HETATM   14  N5  UNL     1      -7.971  38.735  33.694  1.00  0.00    -0.024 N
HETATM   15  O1  UNL     1      -7.865  37.822  34.561  1.00  0.00    -0.516 OA
HETATM   16  O2  UNL     1      -6.972  38.740  32.728  1.00  0.00    -0.516 OA
ENDBRANCH   9  14
ENDBRANCH   4   6
ENDBRANCH   1   2
BRANCH   1  17
HETATM   17  N6  UNL     1     -13.918  38.686  38.461  1.00  0.00    -0.274 N
ATOM     18  H6  UNL     1     -14.884  38.386  38.584  1.00  0.00     0.186 HD
BRANCH  17  19
HETATM   19  N7  UNL     1     -12.903  38.017  39.175  1.00  0.00    -0.141 N
BRANCH  19  20
HETATM   20  O3  UNL     1     -12.225  38.696  39.961  1.00  0.00    -0.266 OA
ATOM     21  H3  UNL     1     -11.899  38.259  40.740  1.00  0.00     0.247 HD
ENDBRANCH  19  20
BRANCH  19  22
HETATM   22  C5  UNL     1     -12.725  36.628  38.953  1.00  0.00     0.185 C
HETATM   23  N8  UNL     1     -13.276  35.668  39.562  1.00  0.00    -0.367 N
HETATM   24  C6  UNL     1     -12.981  34.334  39.208  1.00  0.00     0.132 C
ATOM     25  H8  UNL     1     -13.939  35.857  40.314  1.00  0.00     0.161 HD
HETATM   26  C7  UNL     1     -11.597  34.227  38.598  1.00  0.00     0.102 C
HETATM   27  S1  UNL     1     -11.637  35.866  37.741  1.00  0.00    -0.089 SA
ENDBRANCH  19  22
ENDBRANCH  17  19
ENDBRANCH   1  17
BRANCH   1  28
HETATM   28  O4  UNL     1     -13.004  40.856  38.215  1.00  0.00    -0.282 OA
BRANCH  28  29
HETATM   29  C8  UNL     1     -12.706  42.005  37.507  1.00  0.00     0.330 C
HETATM   30  O5  UNL     1     -11.561  42.510  37.586  1.00  0.00    -0.256 OA
BRANCH  29  31
HETATM   31  C9  UNL     1     -13.729  42.624  36.671  1.00  0.00     0.190 C
HETATM   32  N9  UNL     1     -14.674  43.336  37.170  1.00  0.00    -0.379 N
ATOM     33  H92 UNL     1     -14.696  43.464  38.182  1.00  0.00     0.158 HD
ATOM     34  H91 UNL     1     -15.390  43.769  36.585  1.00  0.00     0.158 HD
BRANCH  31  35
HETATM   35  N10 UNL     1     -13.698  42.444  35.255  1.00  0.00    -0.287 N
ATOM     36  H10 UNL     1     -14.549  42.219  34.739  1.00  0.00     0.188 HD
BRANCH  35  37
HETATM   37  N11 UNL     1     -12.480  42.584  34.592  1.00  0.00    -0.343 N
ATOM     38 2H11 UNL     1     -12.000  43.484  34.599  1.00  0.00     0.176 HD
ATOM     39 1H11 UNL     1     -12.091  41.773  34.111  1.00  0.00     0.176 HD
ENDBRANCH  35  37
ENDBRANCH  31  35
ENDBRANCH  29  31
ENDBRANCH  28  29
ENDBRANCH   1  28
TORSDOF 12
ENDMDL