MODEL 5
REMARK VINA RESULT: -6.602541101      1.907      2.425
REMARK  10 active torsions:
REMARK  status: ('A' for Active; 'I' for Inactive)
REMARK    1  A    between atoms: S1_2  and  C2_3
REMARK    2  A    between atoms: C2_3  and  C3_4
REMARK    3  A    between atoms: C2_3  and  N2_9
REMARK    4  A    between atoms: C3_4  and  N1_5
REMARK    5  A    between atoms: N2_9  and  C4_11
REMARK    6  A    between atoms: C5_14  and  N4_15
REMARK       I    between atoms: N5_18  and  C6_19
REMARK       I    between atoms: C6_19  and  N6_21
REMARK    7  A    between atoms: N6_21  and  C7_23
REMARK    8  A    between atoms: C7_23  and  C8_24
REMARK    9  A    between atoms: C8_24  and  C9_25
REMARK   10  A    between atoms: C9_25  and  N7_26
ROOT
HETATM    1  C4  UNL     1     -11.219  40.895  34.272  1.00  0.00     0.178 A
HETATM    2  N3  UNL     1     -10.028  41.239  33.780  1.00  0.00    -0.168 N
ATOM      3  H3  UNL     1      -9.898  42.138  33.317  1.00  0.00     0.186 HD
HETATM    4  C5  UNL     1      -9.035  40.407  33.902  1.00  0.00     0.695 A
HETATM    5  N5  UNL     1      -9.240  39.239  34.512  1.00  0.00    -0.060 N
HETATM    6  C6  UNL     1      -8.381  38.136  34.796  1.00  0.00     0.347 C
HETATM    7  O1  UNL     1      -8.937  37.152  35.420  1.00  0.00    -0.245 OA
HETATM    8  N6  UNL     1      -7.031  38.006  34.479  1.00  0.00    -0.342 N
ATOM      9  H6  UNL     1      -6.561  38.765  33.987  1.00  0.00     0.164 HD
HETATM   10  S2  UNL     1     -10.905  39.354  34.916  1.00  0.00     0.052 SA
ENDROOT
BRANCH   4  11
HETATM   11  N4  UNL     1      -7.833  40.685  33.438  1.00  0.00    -0.233 N
ATOM     12  H42 UNL     1      -7.365  41.535  33.753  1.00  0.00     0.174 HD
ATOM     13  H41 UNL     1      -7.358  40.074  32.773  1.00  0.00     0.174 HD
ENDBRANCH   4  11
BRANCH   8  14
HETATM   14  C7  UNL     1      -6.264  36.803  34.834  1.00  0.00     0.126 C
BRANCH  14  15
HETATM   15  C8  UNL     1      -5.756  36.160  33.589  1.00  0.00     0.040 C
BRANCH  15  16
HETATM   16  C9  UNL     1      -6.142  36.699  32.290  1.00  0.00     0.129 C
BRANCH  16  17
HETATM   17  N7  UNL     1      -5.192  37.405  31.467  1.00  0.00    -0.339 N
HETATM   18  C10 UNL     1      -4.237  38.333  31.989  1.00  0.00     0.251 C
HETATM   19  N8  UNL     1      -3.233  38.657  31.020  1.00  0.00    -0.348 N
HETATM   20  C11 UNL     1      -3.227  38.376  29.781  1.00  0.00     0.191 C
ATOM     21  H8  UNL     1      -2.427  39.176  31.366  1.00  0.00     0.163 HD
HETATM   22  N9  UNL     1      -2.117  38.807  28.969  1.00  0.00    -0.063 NA
HETATM   23  N10 UNL     1      -4.265  37.568  29.257  1.00  0.00    -0.305 N
HETATM   24  C12 UNL     1      -5.166  37.131  30.044  1.00  0.00     0.194 C
ATOM     25  H10 UNL     1      -4.290  37.339  28.263  1.00  0.00     0.171 HD
HETATM   26  N11 UNL     1      -6.257  36.312  29.569  1.00  0.00    -0.063 NA
ENDBRANCH  16  17
ENDBRANCH  15  16
ENDBRANCH  14  15
ENDBRANCH   8  14
BRANCH   1  27
HETATM   27  N2  UNL     1     -12.332  41.587  34.249  1.00  0.00    -0.354 N
ATOM     28  H2  UNL     1     -12.424  42.441  33.700  1.00  0.00     0.163 HD
BRANCH  27  29
HETATM   29  C2  UNL     1     -13.422  41.072  35.048  1.00  0.00     0.170 C
BRANCH  29  30
HETATM   30  S1  UNL     1     -13.786  42.123  36.482  1.00  0.00    -0.146 SA
HETATM   31  C1  UNL     1     -12.682  41.740  37.870  1.00  0.00     0.092 C
ENDBRANCH  29  30
BRANCH  29  32
HETATM   32  C3  UNL     1     -14.703  40.984  34.240  1.00  0.00     0.265 C
BRANCH  32  33
HETATM   33  N1  UNL     1     -14.580  41.740  33.008  1.00  0.00    -0.077 N
ATOM     34  H13 UNL     1     -14.349  41.141  32.216  1.00  0.00     0.274 HD
ATOM     35  H12 UNL     1     -15.483  42.082  32.681  1.00  0.00     0.274 HD
ATOM     36  H11 UNL     1     -13.905  42.497  33.120  1.00  0.00     0.274 HD
ENDBRANCH  32  33
ENDBRANCH  29  32
ENDBRANCH  27  29
ENDBRANCH   1  27
TORSDOF 10
ENDMDL