MODEL 1
REMARK VINA RESULT: -7.314506812      0.000      0.000
REMARK  10 active torsions:
REMARK  status: ('A' for Active; 'I' for Inactive)
REMARK    1  A    between atoms: C2_2  and  N1_5
REMARK    2  A    between atoms: C5_10  and  C6_11
REMARK    3  A    between atoms: C6_11  and  O1_12
REMARK    4  A    between atoms: C6_11  and  N4_14
REMARK    5  A    between atoms: N4_14  and  N5_15
REMARK       I    between atoms: N5_15  and  C7_17
REMARK    6  A    between atoms: C7_17  and  C8_19
REMARK    7  A    between atoms: C8_19  and  S1_20
REMARK    8  A    between atoms: S1_20  and  C9_21
REMARK    9  A    between atoms: C10_29  and  C11_30
REMARK   10  A    between atoms: C12_33  and  N11_34
ROOT
HETATM    1  N1  UNL     1      -7.709  38.131  33.582  1.00  0.00    -0.253 N
HETATM    2  N2  UNL     1      -7.462  39.334  33.073  1.00  0.00    -0.238 N
ATOM      3  H2  UNL     1      -6.514  39.560  32.772  1.00  0.00     0.208 HD
HETATM    4  N3  UNL     1      -8.397  40.233  32.947  1.00  0.00    -0.285 N
ATOM      5  H3  UNL     1      -8.151  41.139  32.549  1.00  0.00     0.188 HD
HETATM    6  C5  UNL     1      -9.706  40.014  33.327  1.00  0.00     0.092 A
HETATM    7  C10 UNL     1     -10.007  38.801  33.854  1.00  0.00     0.102 A
HETATM    8  C12 UNL     1      -8.947  37.851  33.970  1.00  0.00     0.135 A
ENDROOT
BRANCH   6   9
HETATM    9  C6  UNL     1     -10.678  41.075  33.096  1.00  0.00     0.284 C
BRANCH   9  10
HETATM   10  O1  UNL     1     -10.123  42.006  32.142  1.00  0.00    -0.372 OA
ATOM     11  H1  UNL     1     -10.798  42.231  31.512  1.00  0.00     0.212 HD
ENDBRANCH   9  10
BRANCH   9  12
HETATM   12  N4  UNL     1     -10.762  41.873  34.323  1.00  0.00    -0.100 NA
BRANCH  12  13
HETATM   13  N5  UNL     1     -12.062  42.011  34.774  1.00  0.00    -0.271 N
HETATM   14  C7  UNL     1     -12.301  42.147  36.163  1.00  0.00     0.242 C
HETATM   15  O2  UNL     1     -11.359  42.141  36.965  1.00  0.00    -0.271 OA
ATOM     16  H5  UNL     1     -12.839  42.014  34.114  1.00  0.00     0.185 HD
BRANCH  14  17
HETATM   17  C8  UNL     1     -13.675  42.299  36.698  1.00  0.00     0.186 C
BRANCH  17  18
HETATM   18  S1  UNL     1     -14.434  40.653  36.770  1.00  0.00    -0.082 SA
BRANCH  18  19
HETATM   19  C9  UNL     1     -13.699  39.632  38.015  1.00  0.00     0.173 A
HETATM   20  N6  UNL     1     -14.266  38.515  38.514  1.00  0.00    -0.261 N
HETATM   21  N7  UNL     1     -13.453  38.001  39.421  1.00  0.00    -0.005 NA
ATOM     22  H6  UNL     1     -15.170  38.131  38.238  1.00  0.00     0.186 HD
HETATM   23  N8  UNL     1     -12.393  38.784  39.489  1.00  0.00    -0.224 N
HETATM   24  N9  UNL     1     -12.518  39.784  38.644  1.00  0.00    -0.266 N
ATOM     25  H8  UNL     1     -11.594  38.635  40.105  1.00  0.00     0.205 HD
ATOM     26  H9  UNL     1     -11.845  40.536  38.492  1.00  0.00     0.190 HD
ENDBRANCH  18  19
ENDBRANCH  17  18
ENDBRANCH  14  17
ENDBRANCH  12  13
ENDBRANCH   9  12
ENDBRANCH   6   9
BRANCH   7  27
HETATM   27  C11 UNL     1     -11.302  38.444  34.348  1.00  0.00     0.270 C
HETATM   28  N10 UNL     1     -12.366  37.790  33.740  1.00  0.00    -0.057 NA
HETATM   29  O3  UNL     1     -11.575  38.772  35.572  1.00  0.00    -0.271 OA
ENDBRANCH   7  27
BRANCH   8  30
HETATM   30  N11 UNL     1      -9.290  36.735  34.468  1.00  0.00    -0.383 N
ATOM     31 2H11 UNL     1      -9.457  35.998  33.782  1.00  0.00     0.157 HD
ATOM     32 1H11 UNL     1      -9.395  36.574  35.469  1.00  0.00     0.157 HD
ENDBRANCH   8  30
BRANCH   1  33
HETATM   33  C2  UNL     1      -6.626  37.153  33.706  1.00  0.00     0.046 C
HETATM   34  C1  UNL     1      -6.211  36.899  35.117  1.00  0.00     0.040 C
HETATM   35  C3  UNL     1      -5.409  37.795  33.006  1.00  0.00     0.040 C
HETATM   36  C4  UNL     1      -6.919  35.904  32.940  1.00  0.00     0.040 C
ENDBRANCH   1  33
TORSDOF 10
ENDMDL