MODEL 1
REMARK VINA RESULT: -8.137262523      0.000      0.000
REMARK  10 active torsions:
REMARK  status: ('A' for Active; 'I' for Inactive)
REMARK    1  A    between atoms: C2_2  and  N1_4
REMARK    2  A    between atoms: N1_4  and  C4_6
REMARK    3  A    between atoms: C5_9  and  N3_10
REMARK    4  A    between atoms: C6_15  and  N6_16
REMARK    5  A    between atoms: C8_25  and  N10_26
REMARK    6  A    between atoms: N10_26  and  C9_28
REMARK    7  A    between atoms: C9_28  and  C10_29
REMARK    8  A    between atoms: C10_29  and  N11_30
REMARK    9  A    between atoms: N11_30  and  C11_32
REMARK   10  A    between atoms: C14_38  and  N14_39
ROOT
HETATM    1  C4  UNL     1     -11.928  40.507  33.862  1.00  0.00     0.163 A
HETATM    2  N2  UNL     1     -12.820  41.022  34.760  1.00  0.00    -0.169 N
ATOM      3  H2  UNL     1     -13.817  40.932  34.560  1.00  0.00     0.186 HD
HETATM    4  C5  UNL     1     -12.449  41.640  35.893  1.00  0.00     0.737 A
HETATM    5  N8  UNL     1     -11.134  41.761  36.159  1.00  0.00    -0.125 N
ATOM      6  H8  UNL     1     -10.850  42.230  37.019  1.00  0.00     0.206 HD
HETATM    7  N9  UNL     1     -10.213  41.304  35.365  1.00  0.00    -0.264 N
HETATM    8  C7  UNL     1      -8.782  41.404  35.612  1.00  0.00     0.180 C
HETATM    9  C8  UNL     1     -10.581  40.658  34.179  1.00  0.00     0.167 A
ENDROOT
BRANCH   9  10
HETATM   10  N10 UNL     1      -9.660  40.279  33.446  1.00  0.00    -0.350 N
ATOM     11  H10 UNL     1      -9.012  41.038  33.236  1.00  0.00     0.166 HD
BRANCH  10  12
HETATM   12  C9  UNL     1      -9.274  39.101  32.834  1.00  0.00     0.082 C
BRANCH  12  13
HETATM   13  C10 UNL     1      -8.201  38.321  33.585  1.00  0.00     0.165 C
BRANCH  13  14
HETATM   14  N11 UNL     1      -6.917  38.894  33.309  1.00  0.00    -0.371 N
ATOM     15  H11 UNL     1      -6.800  39.886  33.517  1.00  0.00     0.161 HD
BRANCH  14  16
HETATM   16  C11 UNL     1      -5.797  38.215  32.775  1.00  0.00     0.120 A
HETATM   17  C12 UNL     1      -5.580  36.862  33.047  1.00  0.00     0.094 A
HETATM   18  C13 UNL     1      -4.514  36.168  32.541  1.00  0.00     0.135 A
HETATM   19  N12 UNL     1      -4.347  34.777  32.856  1.00  0.00    -0.082 NA
HETATM   20  N13 UNL     1      -3.647  36.818  31.754  1.00  0.00    -0.179 N
HETATM   21  C14 UNL     1      -3.836  38.134  31.474  1.00  0.00     0.678 A
ATOM     22  H13 UNL     1      -2.844  36.324  31.365  1.00  0.00     0.185 HD
HETATM   23  N15 UNL     1      -4.885  38.791  31.980  1.00  0.00    -0.177 N
ATOM     24  H15 UNL     1      -4.997  39.778  31.748  1.00  0.00     0.185 HD
BRANCH  21  25
HETATM   25  N14 UNL     1      -2.968  38.683  30.718  1.00  0.00    -0.234 N
ATOM     26 2H14 UNL     1      -2.876  38.465  29.725  1.00  0.00     0.174 HD
ATOM     27 1H14 UNL     1      -2.352  39.368  31.156  1.00  0.00     0.174 HD
ENDBRANCH  21  25
ENDBRANCH  14  16
ENDBRANCH  13  14
ENDBRANCH  12  13
ENDBRANCH  10  12
ENDBRANCH   9  10
BRANCH   1  28
HETATM   28  N1  UNL     1     -12.295  39.894  32.828  1.00  0.00    -0.369 N
ATOM     29  H1  UNL     1     -12.060  38.901  32.847  1.00  0.00     0.161 HD
BRANCH  28  30
HETATM   30  C2  UNL     1     -12.955  40.277  31.659  1.00  0.00     0.075 C
HETATM   31  C1  UNL     1     -13.495  39.209  30.763  1.00  0.00     0.031 C
HETATM   32  C3  UNL     1     -12.025  41.124  30.746  1.00  0.00     0.031 C
ENDBRANCH  28  30
ENDBRANCH   1  28
BRANCH   4  33
HETATM   33  N3  UNL     1     -13.423  42.143  36.802  1.00  0.00     0.011 N
HETATM   34  N4  UNL     1     -13.569  41.752  38.053  1.00  0.00    -0.191 N
HETATM   35  N5  UNL     1     -14.588  42.425  38.620  1.00  0.00    -0.115 N
ATOM     36  H4  UNL     1     -12.997  41.048  38.520  1.00  0.00     0.211 HD
HETATM   37  C6  UNL     1     -15.079  43.247  37.695  1.00  0.00     0.708 A
ATOM     38  H5  UNL     1     -14.922  42.323  39.579  1.00  0.00     0.207 HD
HETATM   39  N7  UNL     1     -14.350  43.060  36.587  1.00  0.00    -0.093 N
ATOM     40  H7  UNL     1     -14.491  43.553  35.705  1.00  0.00     0.208 HD
BRANCH  37  41
HETATM   41  N6  UNL     1     -16.057  44.064  37.814  1.00  0.00    -0.232 N
ATOM     42  H62 UNL     1     -17.033  43.853  37.609  1.00  0.00     0.174 HD
ATOM     43  H61 UNL     1     -16.024  45.034  38.127  1.00  0.00     0.174 HD
ENDBRANCH  37  41
ENDBRANCH   4  33
TORSDOF 10
ENDMDL