MODEL 2
REMARK VINA RESULT: -7.893272804      1.825      8.338
REMARK  10 active torsions:
REMARK  status: ('A' for Active; 'I' for Inactive)
REMARK    1  A    between atoms: N1_1  and  C1_4
REMARK    2  A    between atoms: C3_10  and  C4_11
REMARK    3  A    between atoms: N5_14  and  C5_15
REMARK    4  A    between atoms: C5_15  and  C6_16
REMARK    5  A    between atoms: C6_16  and  N6_17
REMARK    6  A    between atoms: C6_16  and  C7_21
REMARK    7  A    between atoms: C7_21  and  C8_22
REMARK    8  A    between atoms: C10_26  and  C11_27
REMARK    9  A    between atoms: N10_33  and  N11_34
REMARK   10  A    between atoms: N12_37  and  N13_38
ROOT
HETATM    1  C6  UNL     1      -7.803  37.475  34.435  1.00  0.00     0.207 C
ENDROOT
BRANCH   1   2
HETATM    2  C5  UNL     1      -6.310  37.208  34.225  1.00  0.00     0.162 C
BRANCH   2   3
HETATM    3  N5  UNL     1      -6.020  36.813  32.885  1.00  0.00    -0.348 N
HETATM    4  C3  UNL     1      -5.228  37.404  31.991  1.00  0.00     0.129 A
HETATM    5  C2  UNL     1      -5.260  36.649  30.836  1.00  0.00     0.095 A
HETATM    6  N3  UNL     1      -4.794  36.547  29.580  1.00  0.00    -0.296 N
HETATM    7  C14 UNL     1      -6.087  35.580  31.034  1.00  0.00     0.055 A
HETATM    8  N2  UNL     1      -5.304  35.459  29.003  1.00  0.00    -0.285 N
ATOM      9  H3  UNL     1      -4.150  37.202  29.135  1.00  0.00     0.187 HD
HETATM   10  C1  UNL     1      -6.104  34.835  29.858  1.00  0.00     0.127 A
ATOM     11  H2  UNL     1      -5.109  35.153  28.050  1.00  0.00     0.188 HD
HETATM   12  C13 UNL     1      -6.543  35.714  32.318  1.00  0.00     0.109 A
BRANCH   4  13
HETATM   13  C4  UNL     1      -4.442  38.647  32.166  1.00  0.00     0.283 C
HETATM   14  N4  UNL     1      -3.074  38.653  31.836  1.00  0.00    -0.056 NA
HETATM   15  O1  UNL     1      -4.937  39.712  32.601  1.00  0.00    -0.269 OA
ENDBRANCH   4  13
BRANCH  10  16
HETATM   16  N1  UNL     1      -6.770  33.758  29.663  1.00  0.00    -0.384 N
ATOM     17  H12 UNL     1      -7.144  33.442  28.768  1.00  0.00     0.157 HD
ATOM     18  H11 UNL     1      -7.031  33.054  30.353  1.00  0.00     0.157 HD
ENDBRANCH  10  16
ENDBRANCH   2   3
ENDBRANCH   1   2
BRANCH   1  19
HETATM   19  N6  UNL     1      -8.139  37.431  35.835  1.00  0.00    -0.073 N
ATOM     20  H63 UNL     1      -8.538  36.530  36.099  1.00  0.00     0.274 HD
ATOM     21  H62 UNL     1      -7.306  37.408  36.423  1.00  0.00     0.274 HD
ATOM     22  H61 UNL     1      -8.755  38.205  36.084  1.00  0.00     0.274 HD
ENDBRANCH   1  19
BRANCH   1  23
HETATM   23  C7  UNL     1      -8.087  38.779  33.776  1.00  0.00     0.095 C
BRANCH  23  24
HETATM   24  C8  UNL     1      -9.442  39.281  33.988  1.00  0.00     0.053 A
HETATM   25  C9  UNL     1     -10.622  38.897  33.431  1.00  0.00     0.117 A
HETATM   26  N7  UNL     1     -11.564  39.666  33.962  1.00  0.00    -0.346 N
HETATM   27  C10 UNL     1     -11.020  40.562  34.870  1.00  0.00     0.174 A
ATOM     28  H7  UNL     1     -12.557  39.607  33.732  1.00  0.00     0.167 HD
HETATM   29  N12 UNL     1      -9.734  40.298  34.859  1.00  0.00    -0.246 N
BRANCH  27  30
HETATM   30  C11 UNL     1     -11.871  41.514  35.581  1.00  0.00     0.189 A
HETATM   31  N8  UNL     1     -12.326  42.671  34.981  1.00  0.00    -0.280 N
HETATM   32  N9  UNL     1     -13.060  43.334  35.837  1.00  0.00    -0.293 N
ATOM     33  H8  UNL     1     -12.122  42.962  34.025  1.00  0.00     0.188 HD
HETATM   34  C12 UNL     1     -13.131  42.683  36.997  1.00  0.00     0.224 A
ATOM     35  H9  UNL     1     -13.516  44.225  35.642  1.00  0.00     0.187 HD
HETATM   36  N10 UNL     1     -12.367  41.538  36.798  1.00  0.00    -0.236 N
BRANCH  36  37
HETATM   37  N11 UNL     1     -12.217  40.609  37.822  1.00  0.00    -0.336 N
ATOM     38 2H11 UNL     1     -11.730  40.863  38.680  1.00  0.00     0.177 HD
ATOM     39 1H11 UNL     1     -12.538  39.641  37.860  1.00  0.00     0.177 HD
ENDBRANCH  36  37
ENDBRANCH  27  30
BRANCH  29  40
HETATM   40  N13 UNL     1      -8.724  40.936  35.614  1.00  0.00    -0.337 N
ATOM     41 2H13 UNL     1      -7.942  40.494  36.098  1.00  0.00     0.177 HD
ATOM     42 1H13 UNL     1      -8.709  41.950  35.736  1.00  0.00     0.177 HD
ENDBRANCH  29  40
ENDBRANCH  23  24
ENDBRANCH   1  23
TORSDOF 10
ENDMDL