MODEL 1
REMARK VINA RESULT: -8.649570630      0.000      0.000
REMARK  8 active torsions:
REMARK  status: ('A' for Active; 'I' for Inactive)
REMARK    1  A    between atoms: N4_11  and  C5_12
REMARK    2  A    between atoms: C5_12  and  N5_13
REMARK    3  A    between atoms: N5_13  and  C6_16
REMARK    4  A    between atoms: C6_16  and  O1_17
REMARK    5  A    between atoms: C6_16  and  C7_19
REMARK    6  A    between atoms: C7_19  and  N6_20
REMARK    7  A    between atoms: C8_27  and  N10_28
REMARK       I    between atoms: N10_28  and  C9_30
REMARK    8  A    between atoms: C13_39  and  N14_40
ROOT
HETATM    1  C1  UNL     1      -9.443  31.764  31.617  1.00  0.00     0.090 C
HETATM    2  C2  UNL     1      -8.272  32.649  31.486  1.00  0.00     0.093 A
HETATM    3  N1  UNL     1      -7.086  32.359  30.969  1.00  0.00    -0.288 N
ATOM      4  H1  UNL     1      -6.809  31.460  30.577  1.00  0.00     0.188 HD
HETATM    5  N2  UNL     1      -6.311  33.456  31.050  1.00  0.00    -0.282 N
ATOM      6  H2  UNL     1      -5.346  33.513  30.725  1.00  0.00     0.188 HD
HETATM    7  C3  UNL     1      -6.984  34.457  31.615  1.00  0.00     0.152 A
HETATM    8  C4  UNL     1      -6.637  35.819  31.934  1.00  0.00     0.121 A
HETATM    9  N3  UNL     1      -7.553  36.644  32.530  1.00  0.00    -0.292 N
ATOM     10  H3  UNL     1      -8.471  36.247  32.730  1.00  0.00     0.187 HD
HETATM   11  N4  UNL     1      -7.362  37.872  32.861  1.00  0.00    -0.276 N
HETATM   12  C10 UNL     1      -6.189  38.461  32.633  1.00  0.00     0.137 A
HETATM   13  C11 UNL     1      -5.196  37.721  32.036  1.00  0.00     0.090 A
HETATM   14  C12 UNL     1      -3.909  38.298  31.765  1.00  0.00     0.103 C
HETATM   15  N13 UNL     1      -2.864  38.766  31.537  1.00  0.00    -0.191 NA
HETATM   16  C13 UNL     1      -5.411  36.369  31.674  1.00  0.00     0.080 A
HETATM   17  N15 UNL     1      -8.212  33.925  31.881  1.00  0.00    -0.328 N
ATOM     18  H15 UNL     1      -8.980  34.432  32.320  1.00  0.00     0.169 HD
ENDROOT
BRANCH  16  19
HETATM   19  N14 UNL     1      -4.493  35.755  31.146  1.00  0.00    -0.396 N
ATOM     20 2H14 UNL     1      -3.637  35.607  31.681  1.00  0.00     0.156 HD
ATOM     21 1H14 UNL     1      -4.538  35.383  30.198  1.00  0.00     0.156 HD
ENDBRANCH  16  19
BRANCH  11  22
HETATM   22  C5  UNL     1      -8.458  38.604  33.493  1.00  0.00     0.382 C
BRANCH  22  23
HETATM   23  N5  UNL     1      -7.958  39.937  33.767  1.00  0.00    -0.030 N
ATOM     24  H52 UNL     1      -7.306  39.928  34.551  1.00  0.00     0.282 HD
ATOM     25  H51 UNL     1      -7.326  40.248  33.030  1.00  0.00     0.282 HD
BRANCH  23  26
HETATM   26  C6  UNL     1      -9.016  40.900  33.984  1.00  0.00     0.341 C
BRANCH  26  27
HETATM   27  O1  UNL     1      -8.547  41.929  34.818  1.00  0.00    -0.368 OA
ATOM     28  H1  UNL     1      -9.179  42.637  34.831  1.00  0.00     0.212 HD
ENDBRANCH  26  27
BRANCH  26  29
HETATM   29  C7  UNL     1     -10.190  40.286  34.706  1.00  0.00     0.230 C
BRANCH  29  30
HETATM   30  N6  UNL     1     -11.196  41.318  34.851  1.00  0.00    -0.102 N
HETATM   31  N7  UNL     1     -11.619  42.076  33.861  1.00  0.00    -0.211 N
HETATM   32  N8  UNL     1     -12.518  42.878  34.374  1.00  0.00    -0.213 N
ATOM     33  H7  UNL     1     -11.308  42.045  32.889  1.00  0.00     0.210 HD
HETATM   34  N9  UNL     1     -12.674  42.645  35.668  1.00  0.00    -0.115 N
ATOM     35  H8  UNL     1     -13.029  43.587  33.849  1.00  0.00     0.210 HD
HETATM   36  C8  UNL     1     -11.824  41.636  35.989  1.00  0.00     0.718 A
ATOM     37  H9  UNL     1     -13.310  43.129  36.301  1.00  0.00     0.207 HD
BRANCH  36  38
HETATM   38  N10 UNL     1     -11.645  41.090  37.140  1.00  0.00    -0.161 N
HETATM   39  C9  UNL     1     -12.727  40.705  37.954  1.00  0.00     0.200 C
HETATM   40  N11 UNL     1     -12.581  39.658  38.718  1.00  0.00    -0.373 N
HETATM   41  N12 UNL     1     -13.953  41.417  37.964  1.00  0.00    -0.063 NA
ATOM     42 2H11 UNL     1     -11.699  39.146  38.712  1.00  0.00     0.158 HD
ATOM     43 1H11 UNL     1     -13.365  39.379  39.308  1.00  0.00     0.158 HD
ATOM     44  H10 UNL     1     -10.694  40.932  37.473  1.00  0.00     0.187 HD
ENDBRANCH  36  38
ENDBRANCH  29  30
ENDBRANCH  26  29
ENDBRANCH  23  26
ENDBRANCH  22  23
ENDBRANCH  11  22
TORSDOF 8
ENDMDL