MODEL 4
REMARK VINA RESULT: -7.490382030      1.023      1.268
REMARK  9 active torsions:
REMARK  status: ('A' for Active; 'I' for Inactive)
REMARK    1  A    between atoms: C2_2  and  O1_3
REMARK    2  A    between atoms: O1_3  and  C3_4
REMARK    3  A    between atoms: C3_4  and  O2_5
REMARK    4  A    between atoms: C3_4  and  C4_7
REMARK    5  A    between atoms: C5_9  and  C6_10
REMARK       I    between atoms: C6_10  and  N1_12
REMARK    6  A    between atoms: N1_12  and  C7_14
REMARK    7  A    between atoms: C8_23  and  C9_24
REMARK    8  A    between atoms: C9_24  and  N7_27
REMARK    9  A    between atoms: N7_27  and  N8_28
ROOT
HETATM    1  C9  UNL     1     -10.345  41.315  34.387  1.00  0.00     0.242 C
HETATM    2  C10 UNL     1     -10.572  41.730  32.977  1.00  0.00     0.087 C
HETATM    3  N6  UNL     1     -10.735  42.055  31.881  1.00  0.00    -0.195 NA
ENDROOT
BRANCH   1   4
HETATM    4  C8  UNL     1     -11.001  40.045  34.672  1.00  0.00     0.033 A
HETATM    5  C5  UNL     1     -10.807  38.826  34.069  1.00  0.00     0.154 A
HETATM    6  O3  UNL     1     -11.614  37.950  34.680  1.00  0.00    -0.303 OA
HETATM    7  C4  UNL     1     -12.304  38.532  35.628  1.00  0.00     0.123 A
HETATM    8  C11 UNL     1     -11.960  39.862  35.675  1.00  0.00     0.057 A
HETATM    9  C12 UNL     1     -12.439  40.880  36.566  1.00  0.00     0.150 A
HETATM   10  N9  UNL     1     -13.551  41.617  36.411  1.00  0.00    -0.268 N
HETATM   11  N12 UNL     1     -11.885  41.317  37.733  1.00  0.00    -0.268 N
HETATM   12  N10 UNL     1     -13.641  42.442  37.436  1.00  0.00    -0.227 N
ATOM     13  H9  UNL     1     -14.211  41.550  35.636  1.00  0.00     0.190 HD
HETATM   14  N11 UNL     1     -12.625  42.270  38.256  1.00  0.00    -0.227 N
ATOM     15  H10 UNL     1     -14.392  43.119  37.574  1.00  0.00     0.210 HD
ATOM     16  H11 UNL     1     -12.447  42.775  39.124  1.00  0.00     0.210 HD
ATOM     17  H12 UNL     1     -11.023  40.957  38.141  1.00  0.00     0.190 HD
BRANCH   5  18
HETATM   18  C6  UNL     1      -9.909  38.492  32.970  1.00  0.00     0.294 C
HETATM   19  O4  UNL     1     -10.077  38.816  31.783  1.00  0.00    -0.265 OA
HETATM   20  N1  UNL     1      -8.734  37.731  33.242  1.00  0.00    -0.151 N
ATOM     21  H1  UNL     1      -8.817  36.800  33.652  1.00  0.00     0.188 HD
BRANCH  20  22
HETATM   22  C7  UNL     1      -7.588  38.204  32.978  1.00  0.00     0.716 A
HETATM   23  N2  UNL     1      -6.603  37.619  32.258  1.00  0.00    -0.115 N
HETATM   24  N3  UNL     1      -5.569  38.417  32.205  1.00  0.00    -0.213 N
ATOM     25  H2  UNL     1      -6.659  36.698  31.825  1.00  0.00     0.207 HD
HETATM   26  N4  UNL     1      -5.897  39.510  32.891  1.00  0.00    -0.213 N
ATOM     27  H3  UNL     1      -4.685  38.237  31.730  1.00  0.00     0.210 HD
HETATM   28  N5  UNL     1      -7.116  39.385  33.360  1.00  0.00    -0.115 N
ATOM     29  H4  UNL     1      -5.293  40.320  33.031  1.00  0.00     0.210 HD
ATOM     30  H5  UNL     1      -7.615  40.075  33.921  1.00  0.00     0.207 HD
ENDBRANCH  20  22
ENDBRANCH   5  18
BRANCH   7  31
HETATM   31  C3  UNL     1     -13.289  37.802  36.483  1.00  0.00     0.316 C
BRANCH  31  32
HETATM   32  O1  UNL     1     -12.706  37.475  37.698  1.00  0.00    -0.355 OA
BRANCH  32  33
HETATM   33  C2  UNL     1     -12.455  36.109  37.800  1.00  0.00     0.167 C
HETATM   34  C1  UNL     1     -10.972  35.945  38.137  1.00  0.00     0.033 C
ENDBRANCH  32  33
ENDBRANCH  31  32
BRANCH  31  35
HETATM   35  O2  UNL     1     -13.585  36.562  35.865  1.00  0.00    -0.365 OA
ATOM     36  H2  UNL     1     -14.248  36.759  35.215  1.00  0.00     0.213 HD
ENDBRANCH  31  35
ENDBRANCH   7  31
ENDBRANCH   1   4
BRANCH   1  37
HETATM   37  N7  UNL     1      -8.907  41.322  34.636  1.00  0.00    -0.124 NA
BRANCH  37  38
HETATM   38  N8  UNL     1      -8.655  41.139  36.016  1.00  0.00    -0.347 N
ATOM     39  H82 UNL     1      -7.724  41.133  36.433  1.00  0.00     0.172 HD
ATOM     40  H81 UNL     1      -9.534  41.018  36.518  1.00  0.00     0.172 HD
ENDBRANCH  37  38
ENDBRANCH   1  37
TORSDOF 9
ENDMDL