MODEL 5
REMARK VINA RESULT: -6.731722884      4.694      8.154
REMARK  11 active torsions:
REMARK  status: ('A' for Active; 'I' for Inactive)
REMARK    1  A    between atoms: N1_1  and  C1_4
REMARK    2  A    between atoms: C2_7  and  N3_8
REMARK    3  A    between atoms: C4_14  and  N5_15
REMARK    4  A    between atoms: N5_15  and  C5_16
REMARK    5  A    between atoms: N10_25  and  C6_26
REMARK    6  A    between atoms: C6_26  and  C7_27
REMARK    7  A    between atoms: N11_29  and  C9_30
REMARK    8  A    between atoms: C9_30  and  O1_31
REMARK    9  A    between atoms: O1_31  and  C10_32
REMARK   10  A    between atoms: C10_32  and  C11_33
REMARK   11  A    between atoms: C11_33  and  O2_34
ROOT
HETATM    1  C1  UNL     1     -14.087  42.831  36.838  1.00  0.00     0.679 A
HETATM    2  N2  UNL     1     -13.701  42.114  37.927  1.00  0.00    -0.175 N
ATOM      3  H2  UNL     1     -14.162  42.236  38.828  1.00  0.00     0.186 HD
HETATM    4  C2  UNL     1     -12.701  41.246  37.780  1.00  0.00     0.145 A
HETATM    5  C3  UNL     1     -12.076  41.077  36.559  1.00  0.00     0.125 A
HETATM    6  N4  UNL     1     -11.078  40.302  36.133  1.00  0.00    -0.310 N
ATOM      7  H4  UNL     1     -10.568  39.640  36.719  1.00  0.00     0.170 HD
HETATM    8  C4  UNL     1     -10.826  40.517  34.791  1.00  0.00     0.267 A
HETATM    9  N10 UNL     1     -11.739  41.480  34.411  1.00  0.00    -0.285 N
HETATM   10  C12 UNL     1     -12.480  41.812  35.462  1.00  0.00     0.158 A
HETATM   11  N14 UNL     1     -13.502  42.691  35.645  1.00  0.00    -0.174 N
ATOM     12  H14 UNL     1     -13.827  43.253  34.859  1.00  0.00     0.186 HD
ENDROOT
BRANCH   9  13
HETATM   13  C6  UNL     1     -11.786  41.969  33.077  1.00  0.00     0.195 C
BRANCH  13  14
HETATM   14  C7  UNL     1     -12.415  41.077  32.107  1.00  0.00     0.062 A
HETATM   15  C8  UNL     1     -12.041  40.765  30.830  1.00  0.00     0.142 A
HETATM   16  N11 UNL     1     -12.919  39.895  30.304  1.00  0.00    -0.264 N
HETATM   17  N12 UNL     1     -13.816  39.679  31.244  1.00  0.00    -0.239 N
HETATM   18  N13 UNL     1     -13.538  40.373  32.334  1.00  0.00    -0.287 N
ATOM     19  H12 UNL     1     -14.618  39.057  31.144  1.00  0.00     0.208 HD
ATOM     20  H13 UNL     1     -14.082  40.376  33.198  1.00  0.00     0.188 HD
BRANCH  16  21
HETATM   21  C9  UNL     1     -12.944  39.279  29.001  1.00  0.00     0.317 C
BRANCH  21  22
HETATM   22  O1  UNL     1     -13.461  40.111  28.045  1.00  0.00    -0.368 OA
BRANCH  22  23
HETATM   23  C10 UNL     1     -14.152  39.494  27.033  1.00  0.00     0.196 C
BRANCH  23  24
HETATM   24  C11 UNL     1     -14.535  40.458  25.921  1.00  0.00     0.190 C
BRANCH  24  25
HETATM   25  O2  UNL     1     -14.203  41.759  26.203  1.00  0.00    -0.399 OA
ATOM     26  H2  UNL     1     -14.834  42.186  26.771  1.00  0.00     0.209 HD
ENDBRANCH  24  25
ENDBRANCH  23  24
ENDBRANCH  22  23
ENDBRANCH  21  22
ENDBRANCH  16  21
ENDBRANCH  13  14
ENDBRANCH   9  13
BRANCH   8  27
HETATM   27  N5  UNL     1      -9.896  39.900  34.069  1.00  0.00    -0.333 NA
BRANCH  27  28
HETATM   28  C5  UNL     1      -9.075  39.333  33.450  1.00  0.00     0.294 A
HETATM   29  N6  UNL     1      -7.683  39.423  33.484  1.00  0.00    -0.242 N
HETATM   30  N7  UNL     1      -7.219  38.594  32.611  1.00  0.00    -0.225 N
ATOM     31  H6  UNL     1      -7.134  40.033  34.089  1.00  0.00     0.192 HD
HETATM   32  N8  UNL     1      -8.185  37.949  31.991  1.00  0.00    -0.225 N
ATOM     33  H7  UNL     1      -6.225  38.455  32.425  1.00  0.00     0.210 HD
HETATM   34  N9  UNL     1      -9.303  38.378  32.479  1.00  0.00    -0.242 N
ATOM     35  H8  UNL     1      -8.073  37.243  31.263  1.00  0.00     0.210 HD
ATOM     36  H9  UNL     1     -10.226  38.056  32.187  1.00  0.00     0.192 HD
ENDBRANCH  27  28
ENDBRANCH   8  27
BRANCH   4  37
HETATM   37  N3  UNL     1     -12.313  40.556  38.779  1.00  0.00    -0.383 N
ATOM     38  H32 UNL     1     -12.931  40.454  39.584  1.00  0.00     0.157 HD
ATOM     39  H31 UNL     1     -11.392  40.119  38.762  1.00  0.00     0.157 HD
ENDBRANCH   4  37
BRANCH   1  40
HETATM   40  N1  UNL     1     -15.056  43.661  37.023  1.00  0.00    -0.234 N
ATOM     41  H12 UNL     1     -15.990  43.484  36.653  1.00  0.00     0.174 HD
ATOM     42  H11 UNL     1     -14.831  44.500  37.557  1.00  0.00     0.174 HD
ENDBRANCH   1  40
TORSDOF 11
ENDMDL