MODEL 2
REMARK VINA RESULT: -8.238231041      1.401      1.949
REMARK  8 active torsions:
REMARK  status: ('A' for Active; 'I' for Inactive)
REMARK    1  A    between atoms: C2_2  and  C3_3
REMARK    2  A    between atoms: C2_2  and  N7_24
REMARK    3  A    between atoms: C3_3  and  C4_4
REMARK    4  A    between atoms: C4_4  and  C5_5
REMARK    5  A    between atoms: C5_5  and  N1_6
REMARK    6  A    between atoms: C8_11  and  N3_12
REMARK    7  A    between atoms: C9_17  and  N5_18
REMARK       I    between atoms: N12_34  and  C13_35
REMARK    8  A    between atoms: C14_38  and  N14_39
ROOT
HETATM    1  C3  UNL     1      -9.546  37.065  32.107  1.00  0.00     0.028 C
ENDROOT
BRANCH   1   2
HETATM    2  C2  UNL     1      -8.346  36.303  32.569  1.00  0.00     0.107 C
HETATM    3  C1  UNL     1      -8.453  34.820  32.256  1.00  0.00     0.034 C
BRANCH   2   4
HETATM    4  N7  UNL     1      -7.126  36.860  31.990  1.00  0.00    -0.256 N
HETATM    5  N8  UNL     1      -6.768  36.562  30.750  1.00  0.00    -0.237 N
HETATM    6  N9  UNL     1      -5.690  37.016  30.148  1.00  0.00    -0.267 N
ATOM      7  H8  UNL     1      -7.373  35.933  30.222  1.00  0.00     0.208 HD
HETATM    8  C11 UNL     1      -4.845  37.847  30.774  1.00  0.00     0.177 A
ATOM      9  H9  UNL     1      -5.494  36.731  29.189  1.00  0.00     0.190 HD
HETATM   10  C12 UNL     1      -5.167  38.191  32.065  1.00  0.00     0.138 A
HETATM   11  N12 UNL     1      -3.690  38.460  30.422  1.00  0.00    -0.172 N
HETATM   12  N10 UNL     1      -4.185  39.017  32.471  1.00  0.00    -0.276 N
HETATM   13  C14 UNL     1      -6.329  37.687  32.681  1.00  0.00     0.149 A
HETATM   14  N11 UNL     1      -3.304  39.169  31.470  1.00  0.00    -0.009 NA
ATOM     15  H10 UNL     1      -4.121  39.457  33.389  1.00  0.00     0.184 HD
HETATM   16  C13 UNL     1      -3.020  38.355  29.150  1.00  0.00     0.354 C
HETATM   17  N13 UNL     1      -1.823  39.061  28.949  1.00  0.00    -0.038 NA
HETATM   18  O1  UNL     1      -3.540  37.627  28.264  1.00  0.00    -0.249 OA
BRANCH  13  19
HETATM   19  N14 UNL     1      -6.567  38.045  33.874  1.00  0.00    -0.382 N
ATOM     20 2H14 UNL     1      -5.893  37.780  34.593  1.00  0.00     0.157 HD
ATOM     21 1H14 UNL     1      -7.394  38.578  34.142  1.00  0.00     0.157 HD
ENDBRANCH  13  19
ENDBRANCH   2   4
ENDBRANCH   1   2
BRANCH   1  22
HETATM   22  C4  UNL     1     -10.149  37.934  33.159  1.00  0.00     0.022 C
BRANCH  22  23
HETATM   23  C5  UNL     1      -9.792  39.383  32.972  1.00  0.00     0.131 C
BRANCH  23  24
HETATM   24  N1  UNL     1     -10.088  40.230  34.088  1.00  0.00    -0.327 N
HETATM   25  C6  UNL     1      -9.250  40.610  35.098  1.00  0.00     0.185 A
HETATM   26  N2  UNL     1      -9.880  41.391  35.981  1.00  0.00    -0.346 N
HETATM   27  C7  UNL     1     -11.147  41.541  35.570  1.00  0.00     0.123 A
ATOM     28  H2  UNL     1      -9.469  41.801  36.820  1.00  0.00     0.167 HD
HETATM   29  C8  UNL     1     -12.190  42.255  36.128  1.00  0.00     0.145 A
HETATM   30  C10 UNL     1     -11.265  40.814  34.388  1.00  0.00     0.155 A
HETATM   31  N4  UNL     1     -13.362  42.223  35.470  1.00  0.00    -0.175 N
HETATM   32  C9  UNL     1     -13.491  41.516  34.314  1.00  0.00     0.679 A
ATOM     33  H4  UNL     1     -14.162  42.734  35.841  1.00  0.00     0.186 HD
HETATM   34  N6  UNL     1     -12.472  40.825  33.778  1.00  0.00    -0.174 N
ATOM     35  H6  UNL     1     -12.608  40.308  32.909  1.00  0.00     0.186 HD
BRANCH  29  36
HETATM   36  N3  UNL     1     -12.061  42.923  37.223  1.00  0.00    -0.383 N
ATOM     37  H32 UNL     1     -12.370  42.535  38.115  1.00  0.00     0.157 HD
ATOM     38  H31 UNL     1     -11.651  43.856  37.247  1.00  0.00     0.157 HD
ENDBRANCH  29  36
BRANCH  32  39
HETATM   39  N5  UNL     1     -14.630  41.483  33.670  1.00  0.00    -0.234 N
ATOM     40  H52 UNL     1     -14.733  40.763  32.954  1.00  0.00     0.174 HD
ATOM     41  H51 UNL     1     -15.372  42.150  33.882  1.00  0.00     0.174 HD
ENDBRANCH  32  39
ENDBRANCH  23  24
ENDBRANCH  22  23
ENDBRANCH   1  22
TORSDOF 8
ENDMDL