MODEL 5
REMARK VINA RESULT: -2.753606574      3.353      7.271
REMARK  11 active torsions:
REMARK  status: ('A' for Active; 'I' for Inactive)
REMARK    1  A    between atoms: C2_2  and  C3_3
REMARK    2  A    between atoms: C3_3  and  C4_4
REMARK    3  A    between atoms: C4_4  and  C5_5
REMARK    4  A    between atoms: C5_5  and  N1_6
REMARK    5  A    between atoms: N1_6  and  C6_8
REMARK    6  A    between atoms: C6_8  and  C7_9
REMARK    7  A    between atoms: C7_9  and  N2_10
REMARK    8  A    between atoms: N2_10  and  C8_11
REMARK    9  A    between atoms: C9_14  and  N4_15
REMARK   10  A    between atoms: C11_21  and  N6_22
REMARK   11  A    between atoms: C12_27  and  N8_28
ROOT
HETATM    1  C8  UNL     1      29.521   9.940  25.297  1.00  0.00     0.222 A
HETATM    2  N3  UNL     1      30.730   9.982  25.926  1.00  0.00    -0.162 N
ATOM      3  H3  UNL     1      30.748  10.046  26.944  1.00  0.00     0.187 HD
HETATM    4  C9  UNL     1      31.865   9.946  25.282  1.00  0.00     0.678 A
HETATM    5  N5  UNL     1      31.915   9.861  23.926  1.00  0.00    -0.186 N
ATOM      6  H5  UNL     1      32.808   9.833  23.435  1.00  0.00     0.184 HD
HETATM    7  C10 UNL     1      30.749   9.815  23.251  1.00  0.00     0.125 A
HETATM    8  C11 UNL     1      30.713   9.730  21.859  1.00  0.00     0.144 A
HETATM    9  N7  UNL     1      29.533   9.685  21.199  1.00  0.00    -0.175 N
ATOM     10  H7  UNL     1      29.516   9.623  20.181  1.00  0.00     0.186 HD
HETATM   11  C12 UNL     1      28.393   9.724  21.888  1.00  0.00     0.678 A
HETATM   12  N9  UNL     1      28.372   9.807  23.219  1.00  0.00    -0.185 N
ATOM     13  H9  UNL     1      27.484   9.837  23.721  1.00  0.00     0.184 HD
HETATM   14  C13 UNL     1      29.547   9.852  23.896  1.00  0.00     0.138 A
ENDROOT
BRANCH   1  15
HETATM   15  N2  UNL     1      28.478   9.971  25.882  1.00  0.00    -0.399 NA
BRANCH  15  16
HETATM   16  C7  UNL     1      27.334  10.047  26.518  1.00  0.00     0.176 C
BRANCH  16  17
HETATM   17  C6  UNL     1      26.402  11.212  26.058  1.00  0.00     0.173 C
BRANCH  17  18
HETATM   18  N1  UNL     1      27.080  11.827  24.972  1.00  0.00    -0.416 N
ATOM     19  H1  UNL     1      27.177  11.371  24.064  1.00  0.00     0.153 HD
BRANCH  18  20
HETATM   20  C5  UNL     1      27.622  13.135  25.234  1.00  0.00     0.114 C
BRANCH  20  21
HETATM   21  C4  UNL     1      28.559  13.498  24.113  1.00  0.00     0.023 C
BRANCH  21  22
HETATM   22  C3  UNL     1      28.026  14.633  23.301  1.00  0.00     0.028 C
BRANCH  22  23
HETATM   23  C2  UNL     1      27.124  15.456  24.131  1.00  0.00    -0.037 C
HETATM   24  C1  UNL     1      27.308  16.763  24.179  1.00  0.00     0.007 C
ENDBRANCH  22  23
ENDBRANCH  21  22
ENDBRANCH  20  21
ENDBRANCH  18  20
ENDBRANCH  17  18
ENDBRANCH  16  17
ENDBRANCH  15  16
ENDBRANCH   1  15
BRANCH   4  25
HETATM   25  N4  UNL     1      33.020   9.990  25.892  1.00  0.00    -0.234 N
ATOM     26  H42 UNL     1      33.469   9.089  26.058  1.00  0.00     0.174 HD
ATOM     27  H41 UNL     1      33.453  10.865  26.184  1.00  0.00     0.174 HD
ENDBRANCH   4  25
BRANCH   8  28
HETATM   28  N6  UNL     1      31.785   9.691  21.191  1.00  0.00    -0.383 N
ATOM     29  H62 UNL     1      32.666   9.542  21.684  1.00  0.00     0.157 HD
ATOM     30  H61 UNL     1      31.769   9.809  20.178  1.00  0.00     0.157 HD
ENDBRANCH   8  28
BRANCH  11  31
HETATM   31  N8  UNL     1      27.289   9.679  21.195  1.00  0.00    -0.234 N
ATOM     32  H82 UNL     1      27.292   9.821  20.185  1.00  0.00     0.174 HD
ATOM     33  H81 UNL     1      26.431   9.494  21.714  1.00  0.00     0.174 HD
ENDBRANCH  11  31
TORSDOF 11
ENDMDL