MODEL 5
REMARK VINA RESULT: -3.405342407      1.527      3.350
REMARK  12 active torsions:
REMARK  status: ('A' for Active; 'I' for Inactive)
REMARK    1  A    between atoms: C2_2  and  N1_3
REMARK    2  A    between atoms: N1_3  and  C3_5
REMARK    3  A    between atoms: C3_5  and  C5_7
REMARK    4  A    between atoms: C3_5  and  C7_13
REMARK    5  A    between atoms: C5_7  and  C6_8
REMARK    6  A    between atoms: C6_8  and  N2_9
REMARK    7  A    between atoms: C7_13  and  C8_14
REMARK    8  A    between atoms: C8_14  and  N3_15
REMARK    9  A    between atoms: C8_14  and  C9_19
REMARK   10  A    between atoms: C8_14  and  C13_30
REMARK   11  A    between atoms: C9_19  and  C10_20
REMARK   12  A    between atoms: C12_24  and  N5_25
ROOT
HETATM    1  C8  UNL     1      29.551  11.257  23.094  1.00  0.00     0.185 C
ENDROOT
BRANCH   1   2
HETATM    2  C7  UNL     1      29.930  10.728  24.393  1.00  0.00     0.077 C
BRANCH   2   3
HETATM    3  C3  UNL     1      29.967   9.323  24.769  1.00  0.00     0.026 C
HETATM    4  C4  UNL     1      29.960   8.279  23.714  1.00  0.00     0.038 C
BRANCH   3   5
HETATM    5  N1  UNL     1      31.235   9.144  25.517  1.00  0.00    -0.413 N
ATOM      6  H1  UNL     1      31.377   8.365  26.162  1.00  0.00     0.154 HD
BRANCH   5   7
HETATM    7  C2  UNL     1      32.227  10.108  25.287  1.00  0.00     0.110 C
HETATM    8  C1  UNL     1      33.418   9.705  26.184  1.00  0.00     0.026 C
ENDBRANCH   5   7
ENDBRANCH   3   5
BRANCH   3   9
HETATM    9  C5  UNL     1      28.925   8.890  25.813  1.00  0.00     0.057 C
BRANCH   9  10
HETATM   10  C6  UNL     1      28.355  10.072  26.574  1.00  0.00     0.232 C
BRANCH  10  11
HETATM   11  N2  UNL     1      26.972  10.207  26.079  1.00  0.00    -0.079 N
ATOM     12  H23 UNL     1      26.268   9.824  26.709  1.00  0.00     0.274 HD
ATOM     13  H22 UNL     1      26.622  11.165  26.083  1.00  0.00     0.274 HD
ATOM     14  H21 UNL     1      26.983   9.773  25.156  1.00  0.00     0.274 HD
ENDBRANCH  10  11
ENDBRANCH   9  10
ENDBRANCH   3   9
ENDBRANCH   2   3
ENDBRANCH   1   2
BRANCH   1  15
HETATM   15  N3  UNL     1      28.021  11.008  23.151  1.00  0.00    -0.063 N
ATOM     16  H33 UNL     1      27.696  10.124  22.759  1.00  0.00     0.275 HD
ATOM     17  H32 UNL     1      27.630  10.832  24.076  1.00  0.00     0.275 HD
ATOM     18  H31 UNL     1      27.694  11.853  22.681  1.00  0.00     0.275 HD
ENDBRANCH   1  15
BRANCH   1  19
HETATM   19  C9  UNL     1      29.549  12.755  22.912  1.00  0.00     0.105 C
BRANCH  19  20
HETATM   20  C10 UNL     1      28.449  13.453  23.625  1.00  0.00     0.045 A
HETATM   21  C11 UNL     1      28.114  14.808  23.418  1.00  0.00     0.131 A
HETATM   22  N4  UNL     1      27.094  15.110  24.220  1.00  0.00    -0.200 N
HETATM   23  C12 UNL     1      26.749  14.035  24.931  1.00  0.00     0.675 A
ATOM     24  H4  UNL     1      26.645  16.023  24.281  1.00  0.00     0.183 HD
HETATM   25  N6  UNL     1      27.579  13.049  24.556  1.00  0.00    -0.194 N
ATOM     26  H6  UNL     1      27.549  12.103  24.935  1.00  0.00     0.184 HD
BRANCH  23  27
HETATM   27  N5  UNL     1      25.800  14.000  25.794  1.00  0.00    -0.234 N
ATOM     28  H52 UNL     1      24.847  14.352  25.707  1.00  0.00     0.174 HD
ATOM     29  H51 UNL     1      25.875  13.595  26.727  1.00  0.00     0.174 HD
ENDBRANCH  23  27
ENDBRANCH  19  20
ENDBRANCH   1  19
BRANCH   1  30
HETATM   30  C13 UNL     1      29.856  10.505  21.869  1.00  0.00     0.123 C
HETATM   31  N7  UNL     1      29.008  10.146  20.986  1.00  0.00    -0.389 N
ATOM     32  H72 UNL     1      28.039  10.389  21.192  1.00  0.00     0.157 HD
ATOM     33  H71 UNL     1      29.219   9.624  20.136  1.00  0.00     0.157 HD
HETATM   34  N8  UNL     1      31.209  10.167  21.583  1.00  0.00    -0.085 NA
ENDBRANCH   1  30
TORSDOF 12
ENDMDL