MODEL 4
REMARK VINA RESULT: -3.183771640      3.484      5.653
REMARK  11 active torsions:
REMARK  status: ('A' for Active; 'I' for Inactive)
REMARK    1  A    between atoms: C2_2  and  N1_3
REMARK    2  A    between atoms: N1_3  and  C3_6
REMARK    3  A    between atoms: C3_6  and  C4_7
REMARK    4  A    between atoms: C4_7  and  C5_8
REMARK    5  A    between atoms: C5_8  and  C6_9
REMARK    6  A    between atoms: C6_9  and  C7_10
REMARK    7  A    between atoms: C7_10  and  N2_11
REMARK    8  A    between atoms: N2_11  and  C8_12
REMARK    9  A    between atoms: C9_15  and  N4_16
REMARK   10  A    between atoms: C11_22  and  N6_23
REMARK   11  A    between atoms: C12_28  and  N8_29
ROOT
HETATM    1  C8  UNL     1      30.686   9.752  25.203  1.00  0.00     0.217 A
HETATM    2  N3  UNL     1      29.614   9.870  26.045  1.00  0.00    -0.163 N
ATOM      3  H3  UNL     1      29.794   9.891  27.049  1.00  0.00     0.187 HD
HETATM    4  C9  UNL     1      28.352   9.958  25.636  1.00  0.00     0.678 A
HETATM    5  N5  UNL     1      28.080   9.932  24.317  1.00  0.00    -0.186 N
ATOM      6  H5  UNL     1      27.110   9.998  24.008  1.00  0.00     0.184 HD
HETATM    7  C10 UNL     1      29.046   9.821  23.404  1.00  0.00     0.125 A
HETATM    8  C11 UNL     1      28.760   9.800  22.035  1.00  0.00     0.144 A
HETATM    9  N7  UNL     1      29.792   9.690  21.191  1.00  0.00    -0.175 N
ATOM     10  H7  UNL     1      29.615   9.672  20.187  1.00  0.00     0.186 HD
HETATM   11  C12 UNL     1      31.057   9.604  21.639  1.00  0.00     0.678 A
HETATM   12  N9  UNL     1      31.367   9.621  22.962  1.00  0.00    -0.185 N
ATOM     13  H9  UNL     1      32.336   9.553  23.275  1.00  0.00     0.184 HD
HETATM   14  C13 UNL     1      30.362   9.731  23.846  1.00  0.00     0.138 A
ENDROOT
BRANCH   1  15
HETATM   15  N2  UNL     1      31.789   9.683  25.689  1.00  0.00    -0.428 NA
BRANCH  15  16
HETATM   16  C7  UNL     1      33.012   9.973  26.145  1.00  0.00     0.220 C
BRANCH  16  17
HETATM   17  C6  UNL     1      33.952   8.748  25.984  1.00  0.00     0.033 C
BRANCH  17  18
HETATM   18  C5  UNL     1      34.374   8.374  27.386  1.00  0.00     0.004 C
BRANCH  18  19
HETATM   19  C4  UNL     1      35.122   7.051  27.426  1.00  0.00     0.027 C
BRANCH  19  20
HETATM   20  C3  UNL     1      34.190   5.883  27.441  1.00  0.00     0.232 C
BRANCH  20  21
HETATM   21  N1  UNL     1      34.658   4.783  28.232  1.00  0.00    -0.075 N
ATOM     22  H12 UNL     1      34.380   3.888  27.830  1.00  0.00     0.277 HD
ATOM     23  H11 UNL     1      34.156   4.719  29.118  1.00  0.00     0.277 HD
BRANCH  21  24
HETATM   24  C2  UNL     1      36.090   4.855  28.434  1.00  0.00     0.228 C
HETATM   25  C1  UNL     1      36.521   4.200  29.712  1.00  0.00     0.034 C
ENDBRANCH  21  24
ENDBRANCH  20  21
ENDBRANCH  19  20
ENDBRANCH  18  19
ENDBRANCH  17  18
ENDBRANCH  16  17
ENDBRANCH  15  16
ENDBRANCH   1  15
BRANCH   4  26
HETATM   26  N4  UNL     1      27.369  10.067  26.500  1.00  0.00    -0.234 N
ATOM     27  H42 UNL     1      27.521   9.800  27.473  1.00  0.00     0.174 HD
ATOM     28  H41 UNL     1      26.455  10.416  26.212  1.00  0.00     0.174 HD
ENDBRANCH   4  26
BRANCH   8  29
HETATM   29  N6  UNL     1      27.538   9.885  21.671  1.00  0.00    -0.383 N
ATOM     30  H62 UNL     1      26.765   9.405  22.133  1.00  0.00     0.157 HD
ATOM     31  H61 UNL     1      27.314  10.471  20.866  1.00  0.00     0.157 HD
ENDBRANCH   8  29
BRANCH  11  32
HETATM   32  N8  UNL     1      32.063   9.499  20.824  1.00  0.00    -0.234 N
ATOM     33  H82 UNL     1      32.860  10.104  21.024  1.00  0.00     0.174 HD
ATOM     34  H81 UNL     1      32.049   8.851  20.035  1.00  0.00     0.174 HD
ENDBRANCH  11  32
TORSDOF 11
ENDMDL