MODEL 4
REMARK VINA RESULT: -5.719803737      1.544      2.529
REMARK  11 active torsions:
REMARK  status: ('A' for Active; 'I' for Inactive)
REMARK       I    between atoms: C1_4  and  N3_6
REMARK    1  A    between atoms: N3_6  and  C2_8
REMARK    2  A    between atoms: C3_11  and  N5_12
REMARK    3  A    between atoms: C4_17  and  O1_18
REMARK    4  A    between atoms: O1_18  and  C5_19
REMARK    5  A    between atoms: C5_19  and  C6_20
REMARK    6  A    between atoms: C6_20  and  C7_21
REMARK    7  A    between atoms: C7_21  and  C8_22
REMARK    8  A    between atoms: C8_22  and  C9_23
REMARK    9  A    between atoms: C9_23  and  C10_24
REMARK   10  A    between atoms: C10_24  and  C11_25
REMARK   11  A    between atoms: C11_25  and  N7_26
ROOT
HETATM    1  C2  UNL     1      27.533  14.319  24.167  1.00  0.00     0.152 A
HETATM    2  N4  UNL     1      26.203  14.465  24.333  1.00  0.00    -0.175 N
ATOM      3  H4  UNL     1      25.732  15.323  24.045  1.00  0.00     0.186 HD
HETATM    4  C3  UNL     1      25.511  13.454  24.887  1.00  0.00     0.679 A
HETATM    5  N6  UNL     1      26.154  12.324  25.261  1.00  0.00    -0.169 N
ATOM      6  H6  UNL     1      25.600  11.575  25.677  1.00  0.00     0.186 HD
HETATM    7  C4  UNL     1      27.471  12.124  25.120  1.00  0.00     0.185 A
HETATM    8  C12 UNL     1      28.196  13.164  24.549  1.00  0.00     0.142 A
HETATM    9  N8  UNL     1      29.599  13.060  24.352  1.00  0.00    -0.094 NA
ENDROOT
BRANCH   7  10
HETATM   10  O1  UNL     1      28.105  10.954  25.512  1.00  0.00    -0.334 OA
BRANCH  10  11
HETATM   11  C5  UNL     1      28.172   9.851  24.675  1.00  0.00     0.177 C
BRANCH  11  12
HETATM   12  C6  UNL     1      28.178  10.091  23.219  1.00  0.00     0.027 C
BRANCH  12  13
HETATM   13  C7  UNL     1      29.464   9.987  22.497  1.00  0.00     0.002 C
BRANCH  13  14
HETATM   14  C8  UNL     1      30.526   9.188  23.207  1.00  0.00     0.000 C
BRANCH  14  15
HETATM   15  C9  UNL     1      31.488  10.129  23.902  1.00  0.00     0.002 C
BRANCH  15  16
HETATM   16  C10 UNL     1      31.823   9.667  25.282  1.00  0.00     0.027 C
BRANCH  16  17
HETATM   17  C11 UNL     1      33.062  10.331  25.824  1.00  0.00     0.229 C
BRANCH  17  18
HETATM   18  N7  UNL     1      34.027   9.331  26.232  1.00  0.00    -0.079 N
ATOM     19  H73 UNL     1      34.033   9.198  27.243  1.00  0.00     0.274 HD
ATOM     20  H72 UNL     1      33.742   8.391  25.958  1.00  0.00     0.274 HD
ATOM     21  H71 UNL     1      34.952   9.568  25.875  1.00  0.00     0.274 HD
ENDBRANCH  17  18
ENDBRANCH  16  17
ENDBRANCH  15  16
ENDBRANCH  14  15
ENDBRANCH  13  14
ENDBRANCH  12  13
ENDBRANCH  11  12
ENDBRANCH  10  11
ENDBRANCH   7  10
BRANCH   4  22
HETATM   22  N5  UNL     1      24.221  13.573  25.057  1.00  0.00    -0.234 N
ATOM     23  H52 UNL     1      23.828  14.416  25.476  1.00  0.00     0.174 HD
ATOM     24  H51 UNL     1      23.603  12.814  24.771  1.00  0.00     0.174 HD
ENDBRANCH   4  22
BRANCH   1  25
HETATM   25  N3  UNL     1      28.233  15.245  23.648  1.00  0.00    -0.315 N
HETATM   26  C1  UNL     1      27.823  16.590  23.450  1.00  0.00     0.187 C
HETATM   27  N1  UNL     1      27.766  17.001  22.235  1.00  0.00    -0.373 N
HETATM   28  N2  UNL     1      27.488  17.470  24.491  1.00  0.00    -0.064 NA
ATOM     29  H12 UNL     1      27.472  17.967  22.092  1.00  0.00     0.158 HD
ATOM     30  H11 UNL     1      28.010  16.361  21.478  1.00  0.00     0.158 HD
ATOM     31  H3  UNL     1      29.176  14.999  23.347  1.00  0.00     0.170 HD
ENDBRANCH   1  25
TORSDOF 11
ENDMDL