MODEL 1
REMARK VINA RESULT: -6.363447988      0.000      0.000
REMARK  15 active torsions:
REMARK  status: ('A' for Active; 'I' for Inactive)
REMARK    1  A    between atoms: N1_1  and  C1_4
REMARK    2  A    between atoms: C2_7  and  N3_8
REMARK    3  A    between atoms: C3_13  and  N5_14
REMARK    4  A    between atoms: N5_14  and  C4_16
REMARK    5  A    between atoms: C4_16  and  N6_17
REMARK    6  A    between atoms: C4_16  and  N7_21
REMARK    7  A    between atoms: C4_16  and  C5_25
REMARK    8  A    between atoms: C5_25  and  C6_26
REMARK    9  A    between atoms: C6_26  and  C7_27
REMARK   10  A    between atoms: C7_27  and  C8_28
REMARK   11  A    between atoms: C8_28  and  C9_29
REMARK   12  A    between atoms: C9_29  and  C10_30
REMARK   13  A    between atoms: C10_30  and  C11_31
REMARK   14  A    between atoms: C11_31  and  C12_32
REMARK   15  A    between atoms: C12_32  and  N8_33
ROOT
HETATM    1  C4  UNL     1      29.166  10.051  23.892  1.00  0.00     0.371 C
ENDROOT
BRANCH   1   2
HETATM    2  N5  UNL     1      29.302  11.379  24.424  1.00  0.00    -0.167 N
ATOM      3  H5  UNL     1      30.193  11.603  24.868  1.00  0.00     0.182 HD
BRANCH   2   4
HETATM    4  C3  UNL     1      28.426  12.310  24.400  1.00  0.00     0.710 A
HETATM    5  N4  UNL     1      28.717  13.523  23.848  1.00  0.00    -0.022 N
HETATM    6  C2  UNL     1      27.819  14.514  23.808  1.00  0.00     0.705 A
ATOM      7  H4  UNL     1      29.645  13.679  23.454  1.00  0.00     0.203 HD
HETATM    8  N2  UNL     1      26.585  14.357  24.315  1.00  0.00    -0.022 N
HETATM    9  C1  UNL     1      26.268  13.190  24.860  1.00  0.00     0.705 A
ATOM     10  H2  UNL     1      25.907  15.118  24.282  1.00  0.00     0.203 HD
HETATM   11  N9  UNL     1      27.182  12.196  24.894  1.00  0.00    -0.022 N
ATOM     12  H9  UNL     1      26.911  11.309  25.318  1.00  0.00     0.203 HD
BRANCH   6  13
HETATM   13  N3  UNL     1      28.096  15.666  23.284  1.00  0.00    -0.234 N
ATOM     14  H32 UNL     1      27.636  15.994  22.435  1.00  0.00     0.174 HD
ATOM     15  H31 UNL     1      28.800  16.232  23.758  1.00  0.00     0.174 HD
ENDBRANCH   6  13
BRANCH   9  16
HETATM   16  N1  UNL     1      25.089  13.028  25.348  1.00  0.00    -0.234 N
ATOM     17  H12 UNL     1      24.648  13.752  25.914  1.00  0.00     0.174 HD
ATOM     18  H11 UNL     1      24.592  12.156  25.163  1.00  0.00     0.174 HD
ENDBRANCH   9  16
ENDBRANCH   2   4
ENDBRANCH   1   2
BRANCH   1  19
HETATM   19  N6  UNL     1      28.475   9.187  24.859  1.00  0.00    -0.026 N
ATOM     20  H63 UNL     1      28.742   9.400  25.820  1.00  0.00     0.279 HD
ATOM     21  H62 UNL     1      27.482   9.410  24.927  1.00  0.00     0.279 HD
ATOM     22  H61 UNL     1      28.631   8.206  24.628  1.00  0.00     0.279 HD
ENDBRANCH   1  19
BRANCH   1  23
HETATM   23  N7  UNL     1      28.489  10.112  22.630  1.00  0.00    -0.026 N
ATOM     24  H73 UNL     1      28.413   9.197  22.187  1.00  0.00     0.279 HD
ATOM     25  H72 UNL     1      27.493  10.306  22.735  1.00  0.00     0.279 HD
ATOM     26  H71 UNL     1      28.954  10.794  22.030  1.00  0.00     0.279 HD
ENDBRANCH   1  23
BRANCH   1  27
HETATM   27  C5  UNL     1      30.549   9.418  23.743  1.00  0.00     0.093 C
BRANCH  27  28
HETATM   28  C6  UNL     1      31.233   9.317  25.111  1.00  0.00     0.006 C
BRANCH  28  29
HETATM   29  C7  UNL     1      32.205  10.484  25.164  1.00  0.00     0.000 C
BRANCH  29  30
HETATM   30  C8  UNL     1      33.377  10.164  26.044  1.00  0.00     0.000 C
BRANCH  30  31
HETATM   31  C9  UNL     1      33.446   8.682  26.285  1.00  0.00     0.000 C
BRANCH  31  32
HETATM   32  C10 UNL     1      34.557   8.362  27.226  1.00  0.00     0.002 C
BRANCH  32  33
HETATM   33  C11 UNL     1      34.713   6.871  27.391  1.00  0.00     0.027 C
BRANCH  33  34
HETATM   34  C12 UNL     1      36.211   6.538  27.253  1.00  0.00     0.229 C
BRANCH  34  35
HETATM   35  N8  UNL     1      36.952   7.632  26.705  1.00  0.00    -0.079 N
ATOM     36  H83 UNL     1      37.541   7.328  25.930  1.00  0.00     0.274 HD
ATOM     37  H82 UNL     1      36.343   8.275  26.200  1.00  0.00     0.274 HD
ATOM     38  H81 UNL     1      37.497   8.118  27.417  1.00  0.00     0.274 HD
ENDBRANCH  34  35
ENDBRANCH  33  34
ENDBRANCH  32  33
ENDBRANCH  31  32
ENDBRANCH  30  31
ENDBRANCH  29  30
ENDBRANCH  28  29
ENDBRANCH  27  28
ENDBRANCH   1  27
TORSDOF 15
ENDMDL