MODEL 4
REMARK VINA RESULT: -2.969373241      1.936      6.330
REMARK  11 active torsions:
REMARK  status: ('A' for Active; 'I' for Inactive)
REMARK    1  A    between atoms: C2_2  and  C3_3
REMARK    2  A    between atoms: C3_3  and  N1_4
REMARK    3  A    between atoms: N1_4  and  C4_6
REMARK    4  A    between atoms: C4_6  and  C5_7
REMARK    5  A    between atoms: C5_7  and  C6_8
REMARK    6  A    between atoms: C6_8  and  C7_9
REMARK    7  A    between atoms: C7_9  and  N2_10
REMARK    8  A    between atoms: N2_10  and  C8_11
REMARK    9  A    between atoms: C9_14  and  N4_15
REMARK   10  A    between atoms: C11_21  and  N6_22
REMARK   11  A    between atoms: C12_27  and  N8_28
ROOT
HETATM    1  C8  UNL     1      29.500  10.120  25.165  1.00  0.00     0.222 A
HETATM    2  N3  UNL     1      30.693  10.146  25.830  1.00  0.00    -0.162 N
ATOM      3  H3  UNL     1      30.685  10.283  26.841  1.00  0.00     0.187 HD
HETATM    4  C9  UNL     1      31.859  10.002  25.220  1.00  0.00     0.678 A
HETATM    5  N5  UNL     1      31.901   9.818  23.875  1.00  0.00    -0.186 N
ATOM      6  H5  UNL     1      32.800   9.708  23.406  1.00  0.00     0.184 HD
HETATM    7  C10 UNL     1      30.770   9.783  23.162  1.00  0.00     0.125 A
HETATM    8  C11 UNL     1      30.758   9.599  21.787  1.00  0.00     0.144 A
HETATM    9  N7  UNL     1      29.564   9.571  21.111  1.00  0.00    -0.175 N
ATOM     10  H7  UNL     1      29.561   9.435  20.100  1.00  0.00     0.186 HD
HETATM   11  C12 UNL     1      28.413   9.720  21.757  1.00  0.00     0.678 A
HETATM   12  N9  UNL     1      28.391   9.899  23.086  1.00  0.00    -0.185 N
ATOM     13  H9  UNL     1      27.502  10.012  23.575  1.00  0.00     0.184 HD
HETATM   14  C13 UNL     1      29.565   9.930  23.782  1.00  0.00     0.138 A
ENDROOT
BRANCH   1  15
HETATM   15  N2  UNL     1      28.430  10.252  25.723  1.00  0.00    -0.401 NA
BRANCH  15  16
HETATM   16  C7  UNL     1      27.238  10.478  26.264  1.00  0.00     0.157 C
BRANCH  16  17
HETATM   17  C6  UNL     1      26.565  11.692  25.628  1.00  0.00     0.061 C
BRANCH  17  18
HETATM   18  C5  UNL     1      27.440  12.892  25.615  1.00  0.00     0.025 C
BRANCH  18  19
HETATM   19  C4  UNL     1      27.852  13.369  24.246  1.00  0.00     0.114 C
BRANCH  19  20
HETATM   20  N1  UNL     1      26.897  14.306  23.767  1.00  0.00    -0.418 N
ATOM     21  H1  UNL     1      26.449  14.202  22.856  1.00  0.00     0.153 HD
BRANCH  20  22
HETATM   22  C3  UNL     1      26.603  15.397  24.631  1.00  0.00     0.140 C
BRANCH  22  23
HETATM   23  C2  UNL     1      27.307  16.647  24.294  1.00  0.00    -0.018 C
HETATM   24  C1  UNL     1      27.761  16.857  23.076  1.00  0.00     0.008 C
ENDBRANCH  22  23
ENDBRANCH  20  22
ENDBRANCH  19  20
ENDBRANCH  18  19
ENDBRANCH  17  18
ENDBRANCH  16  17
ENDBRANCH  15  16
ENDBRANCH   1  15
BRANCH   4  25
HETATM   25  N4  UNL     1      32.992  10.031  25.868  1.00  0.00    -0.234 N
ATOM     26  H42 UNL     1      33.554  10.880  25.809  1.00  0.00     0.174 HD
ATOM     27  H41 UNL     1      33.322   9.241  26.423  1.00  0.00     0.174 HD
ENDBRANCH   4  25
BRANCH   8  28
HETATM   28  N6  UNL     1      31.838   9.454  21.143  1.00  0.00    -0.383 N
ATOM     29  H62 UNL     1      32.690   9.892  21.493  1.00  0.00     0.157 HD
ATOM     30  H61 UNL     1      31.863   8.909  20.281  1.00  0.00     0.157 HD
ENDBRANCH   8  28
BRANCH  11  31
HETATM   31  N8  UNL     1      27.317   9.686  21.073  1.00  0.00    -0.234 N
ATOM     32  H82 UNL     1      27.224  10.212  20.204  1.00  0.00     0.174 HD
ATOM     33  H81 UNL     1      26.544   9.120  21.423  1.00  0.00     0.174 HD
ENDBRANCH  11  31
TORSDOF 11
ENDMDL