MODEL 1
REMARK VINA RESULT: -6.427623839      0.000      0.000
REMARK  12 active torsions:
REMARK  status: ('A' for Active; 'I' for Inactive)
REMARK       I    between atoms: C1_4  and  N3_6
REMARK    1  A    between atoms: N3_6  and  C2_8
REMARK    2  A    between atoms: C3_11  and  N5_12
REMARK    3  A    between atoms: C4_17  and  N7_18
REMARK    4  A    between atoms: N7_18  and  C5_20
REMARK    5  A    between atoms: C5_20  and  C6_21
REMARK    6  A    between atoms: C6_21  and  C7_22
REMARK    7  A    between atoms: C7_22  and  C8_23
REMARK    8  A    between atoms: C8_23  and  C9_24
REMARK    9  A    between atoms: C9_24  and  C10_25
REMARK   10  A    between atoms: C10_25  and  C11_26
REMARK   11  A    between atoms: C11_26  and  C12_27
REMARK   12  A    between atoms: C12_27  and  N8_28
ROOT
HETATM    1  C2  UNL     1      28.825  11.806  24.332  1.00  0.00     0.713 A
HETATM    2  N4  UNL     1      28.071  11.339  23.331  1.00  0.00    -0.021 N
ATOM      3  H4  UNL     1      27.211  11.834  23.096  1.00  0.00     0.203 HD
HETATM    4  C3  UNL     1      28.398  10.247  22.621  1.00  0.00     0.705 A
HETATM    5  N6  UNL     1      29.537   9.614  22.953  1.00  0.00    -0.022 N
ATOM      6  H6  UNL     1      29.825   8.779  22.441  1.00  0.00     0.203 HD
HETATM    7  C4  UNL     1      30.295  10.079  23.955  1.00  0.00     0.707 A
HETATM    8  N9  UNL     1      29.969  11.170  24.666  1.00  0.00    -0.021 N
ATOM      9  H9  UNL     1      30.561  11.505  25.426  1.00  0.00     0.203 HD
ENDROOT
BRANCH   7  10
HETATM   10  N7  UNL     1      31.381   9.473  24.268  1.00  0.00    -0.225 N
ATOM     11  H7  UNL     1      31.947   9.066  23.523  1.00  0.00     0.177 HD
BRANCH  10  12
HETATM   12  C5  UNL     1      31.837   9.343  25.639  1.00  0.00     0.138 C
BRANCH  12  13
HETATM   13  C6  UNL     1      33.165  10.020  25.768  1.00  0.00     0.020 C
BRANCH  13  14
HETATM   14  C7  UNL     1      34.012   9.526  26.888  1.00  0.00     0.002 C
BRANCH  14  15
HETATM   15  C8  UNL     1      34.041   8.049  27.061  1.00  0.00     0.000 C
BRANCH  15  16
HETATM   16  C9  UNL     1      35.442   7.485  27.091  1.00  0.00     0.000 C
BRANCH  16  17
HETATM   17  C10 UNL     1      35.467   5.996  27.220  1.00  0.00     0.002 C
BRANCH  17  18
HETATM   18  C11 UNL     1      36.709   5.458  27.859  1.00  0.00     0.027 C
BRANCH  18  19
HETATM   19  C12 UNL     1      36.258   4.501  28.968  1.00  0.00     0.229 C
BRANCH  19  20
HETATM   20  N8  UNL     1      34.845   4.291  28.944  1.00  0.00    -0.079 N
ATOM     21  H83 UNL     1      34.345   5.080  29.355  1.00  0.00     0.274 HD
ATOM     22  H82 UNL     1      34.477   4.347  27.995  1.00  0.00     0.274 HD
ATOM     23  H81 UNL     1      34.585   3.412  29.393  1.00  0.00     0.274 HD
ENDBRANCH  19  20
ENDBRANCH  18  19
ENDBRANCH  17  18
ENDBRANCH  16  17
ENDBRANCH  15  16
ENDBRANCH  14  15
ENDBRANCH  13  14
ENDBRANCH  12  13
ENDBRANCH  10  12
ENDBRANCH   7  10
BRANCH   4  24
HETATM   24  N5  UNL     1      27.640   9.816  21.648  1.00  0.00    -0.234 N
ATOM     25  H52 UNL     1      26.851   9.195  21.826  1.00  0.00     0.174 HD
ATOM     26  H51 UNL     1      27.813  10.087  20.680  1.00  0.00     0.174 HD
ENDBRANCH   4  24
BRANCH   1  27
HETATM   27  N3  UNL     1      28.504  12.856  25.010  1.00  0.00    -0.163 N
HETATM   28  C1  UNL     1      27.829  13.903  24.331  1.00  0.00     0.200 C
HETATM   29  N1  UNL     1      26.549  13.973  24.420  1.00  0.00    -0.373 N
HETATM   30  N2  UNL     1      28.559  14.853  23.569  1.00  0.00    -0.063 NA
ATOM     31  H12 UNL     1      26.064  14.726  23.932  1.00  0.00     0.158 HD
ATOM     32  H11 UNL     1      26.025  13.291  24.967  1.00  0.00     0.158 HD
ATOM     33  H3  UNL     1      28.729  12.931  26.002  1.00  0.00     0.187 HD
ENDBRANCH   1  27
TORSDOF 12
ENDMDL