MODEL 4
REMARK VINA RESULT: -6.620756746      2.253      9.596
REMARK  13 active torsions:
REMARK  status: ('A' for Active; 'I' for Inactive)
REMARK    1  A    between atoms: N1_2  and  C2_4
REMARK    2  A    between atoms: C2_4  and  O1_8
REMARK    3  A    between atoms: O1_8  and  C3_9
REMARK    4  A    between atoms: C3_9  and  C4_10
REMARK    5  A    between atoms: C4_10  and  C5_11
REMARK    6  A    between atoms: C5_11  and  C6_12
REMARK    7  A    between atoms: C6_12  and  C7_13
REMARK    8  A    between atoms: C7_13  and  C8_14
REMARK    9  A    between atoms: C8_14  and  C9_15
REMARK   10  A    between atoms: C9_15  and  N3_16
REMARK   11  A    between atoms: N3_16  and  C10_18
REMARK   12  A    between atoms: C11_21  and  N5_22
REMARK   13  A    between atoms: C12_27  and  N7_28
ROOT
HETATM    1  N3  UNL     1      29.315  12.603  23.804  1.00  0.00    -0.225 N
ATOM      2  H3  UNL     1      30.287  12.822  24.026  1.00  0.00     0.177 HD
ENDROOT
BRANCH   1   3
HETATM    3  C9  UNL     1      28.969  11.296  23.252  1.00  0.00     0.138 C
BRANCH   3   4
HETATM    4  C8  UNL     1      30.043  10.918  22.290  1.00  0.00     0.020 C
BRANCH   4   5
HETATM    5  C7  UNL     1      30.978   9.908  22.891  1.00  0.00     0.002 C
BRANCH   5   6
HETATM    6  C6  UNL     1      30.290   9.206  24.031  1.00  0.00     0.000 C
BRANCH   6   7
HETATM    7  C5  UNL     1      31.145   9.186  25.290  1.00  0.00     0.002 C
BRANCH   7   8
HETATM    8  C4  UNL     1      32.218  10.224  25.185  1.00  0.00     0.027 C
BRANCH   8   9
HETATM    9  C3  UNL     1      33.374   9.896  26.126  1.00  0.00     0.178 C
BRANCH   9  10
HETATM   10  O1  UNL     1      33.322   8.476  26.306  1.00  0.00    -0.323 OA
BRANCH  10  11
HETATM   11  C2  UNL     1      34.293   7.788  27.022  1.00  0.00     0.212 C
HETATM   12  N2  UNL     1      35.504   8.267  26.959  1.00  0.00    -0.366 N
ATOM     13  H22 UNL     1      36.217   7.762  27.485  1.00  0.00     0.159 HD
ATOM     14  H21 UNL     1      35.697   9.102  26.406  1.00  0.00     0.159 HD
BRANCH  11  15
HETATM   15  N1  UNL     1      34.028   6.639  27.783  1.00  0.00    -0.361 N
HETATM   16  C1  UNL     1      34.516   5.346  27.371  1.00  0.00     0.150 C
ATOM     17  H1  UNL     1      33.482   6.720  28.641  1.00  0.00     0.162 HD
ENDBRANCH  11  15
ENDBRANCH  10  11
ENDBRANCH   9  10
ENDBRANCH   8   9
ENDBRANCH   7   8
ENDBRANCH   6   7
ENDBRANCH   5   6
ENDBRANCH   4   5
ENDBRANCH   3   4
ENDBRANCH   1   3
BRANCH   1  18
HETATM   18  C10 UNL     1      28.403  13.470  24.008  1.00  0.00     0.707 A
HETATM   19  N4  UNL     1      28.540  14.782  23.781  1.00  0.00    -0.022 N
HETATM   20  C11 UNL     1      27.535  15.664  24.015  1.00  0.00     0.705 A
ATOM     21  H4  UNL     1      29.428  15.130  23.419  1.00  0.00     0.203 HD
HETATM   22  N6  UNL     1      26.368  15.199  24.490  1.00  0.00    -0.022 N
HETATM   23  C12 UNL     1      26.187  13.894  24.730  1.00  0.00     0.705 A
ATOM     24  H6  UNL     1      25.606  15.852  24.671  1.00  0.00     0.203 HD
HETATM   25  N8  UNL     1      27.197  13.046  24.490  1.00  0.00    -0.022 N
ATOM     26  H8  UNL     1      27.061  12.052  24.673  1.00  0.00     0.203 HD
BRANCH  20  27
HETATM   27  N5  UNL     1      27.678  16.924  23.794  1.00  0.00    -0.234 N
ATOM     28  H52 UNL     1      27.206  17.355  22.999  1.00  0.00     0.174 HD
ATOM     29  H51 UNL     1      28.253  17.511  24.398  1.00  0.00     0.174 HD
ENDBRANCH  20  27
BRANCH  23  30
HETATM   30  N7  UNL     1      25.058  13.496  25.183  1.00  0.00    -0.234 N
ATOM     31  H72 UNL     1      24.962  13.086  26.112  1.00  0.00     0.174 HD
ATOM     32  H71 UNL     1      24.228  13.594  24.598  1.00  0.00     0.174 HD
ENDBRANCH  23  30
ENDBRANCH   1  18
TORSDOF 13
ENDMDL