MODEL 2
REMARK VINA RESULT: -6.299908554      1.345      2.339
REMARK  10 active torsions:
REMARK  status: ('A' for Active; 'I' for Inactive)
REMARK    1  A    between atoms: C2_2  and  N1_3
REMARK    2  A    between atoms: N1_3  and  C3_6
REMARK    3  A    between atoms: C3_6  and  C4_7
REMARK    4  A    between atoms: C4_7  and  O1_8
REMARK    5  A    between atoms: O1_8  and  C5_9
REMARK    6  A    between atoms: C5_9  and  C6_10
REMARK    7  A    between atoms: C6_10  and  C7_11
REMARK    8  A    between atoms: C7_11  and  N2_12
REMARK    9  A    between atoms: N2_12  and  C8_14
REMARK   10  A    between atoms: C10_20  and  N5_21
ROOT
HETATM    1  C8  UNL     1      29.360  10.395  25.041  1.00  0.00     0.680 A
HETATM    2  N3  UNL     1      28.062  10.427  25.451  1.00  0.00    -0.174 N
ATOM      3  H3  UNL     1      27.579   9.675  25.944  1.00  0.00     0.186 HD
HETATM    4  C9  UNL     1      27.517  11.607  25.103  1.00  0.00     0.167 A
HETATM    5  N4  UNL     1      26.279  12.152  25.263  1.00  0.00    -0.174 N
ATOM      6  H4  UNL     1      25.549  11.622  25.738  1.00  0.00     0.186 HD
HETATM    7  C10 UNL     1      26.016  13.386  24.798  1.00  0.00     0.679 A
HETATM    8  N6  UNL     1      26.972  14.091  24.169  1.00  0.00    -0.175 N
ATOM      9  H6  UNL     1      26.738  15.023  23.827  1.00  0.00     0.186 HD
HETATM   10  C11 UNL     1      28.220  13.634  23.967  1.00  0.00     0.146 A
HETATM   11  N7  UNL     1      29.157  14.262  23.381  1.00  0.00    -0.383 N
ATOM     12  H71 UNL     1      30.104  13.915  23.228  1.00  0.00     0.157 HD
ATOM     13  H72 UNL     1      28.962  15.198  23.026  1.00  0.00     0.157 HD
HETATM   14  C12 UNL     1      28.488  12.349  24.454  1.00  0.00     0.138 A
HETATM   15  N8  UNL     1      29.586  11.577  24.441  1.00  0.00    -0.184 N
ATOM     16  H8  UNL     1      30.478  11.851  24.028  1.00  0.00     0.184 HD
ENDROOT
BRANCH   1  17
HETATM   17  N2  UNL     1      30.172   9.410  25.216  1.00  0.00    -0.226 N
ATOM     18  H2  UNL     1      29.822   8.564  25.665  1.00  0.00     0.177 HD
BRANCH  17  19
HETATM   19  C7  UNL     1      31.535   9.449  24.810  1.00  0.00     0.140 C
BRANCH  19  20
HETATM   20  C6  UNL     1      32.460  10.108  25.828  1.00  0.00     0.046 C
BRANCH  20  21
HETATM   21  C5  UNL     1      33.726   9.321  25.949  1.00  0.00     0.169 C
BRANCH  21  22
HETATM   22  O1  UNL     1      34.090   9.023  27.245  1.00  0.00    -0.389 OA
BRANCH  22  23
HETATM   23  C4  UNL     1      34.843   7.864  27.364  1.00  0.00     0.195 C
BRANCH  23  24
HETATM   24  C3  UNL     1      33.849   6.713  27.388  1.00  0.00     0.258 C
BRANCH  24  25
HETATM   25  N1  UNL     1      34.536   5.560  27.884  1.00  0.00    -0.073 N
ATOM     26  H12 UNL     1      34.033   4.705  27.646  1.00  0.00     0.277 HD
ATOM     27  H11 UNL     1      34.477   5.511  28.902  1.00  0.00     0.277 HD
BRANCH  25  28
HETATM   28  C2  UNL     1      35.913   5.488  27.444  1.00  0.00     0.228 C
HETATM   29  C1  UNL     1      36.825   4.827  28.422  1.00  0.00     0.034 C
ENDBRANCH  25  28
ENDBRANCH  24  25
ENDBRANCH  23  24
ENDBRANCH  22  23
ENDBRANCH  21  22
ENDBRANCH  20  21
ENDBRANCH  19  20
ENDBRANCH  17  19
ENDBRANCH   1  17
BRANCH   7  30
HETATM   30  N5  UNL     1      24.821  13.905  24.953  1.00  0.00    -0.234 N
ATOM     31  H52 UNL     1      24.528  14.683  24.364  1.00  0.00     0.174 HD
ATOM     32  H51 UNL     1      24.189  13.529  25.661  1.00  0.00     0.174 HD
ENDBRANCH   7  30
TORSDOF 10
ENDMDL