MODEL 3
REMARK VINA RESULT: -5.839531022      0.791      1.941
REMARK  13 active torsions:
REMARK  status: ('A' for Active; 'I' for Inactive)
REMARK    1  A    between atoms: C2_2  and  C3_3
REMARK    2  A    between atoms: C3_3  and  C4_4
REMARK    3  A    between atoms: C3_3  and  C5_7
REMARK    4  A    between atoms: C3_3  and  C8_14
REMARK    5  A    between atoms: C4_4  and  O1_5
REMARK    6  A    between atoms: C5_7  and  C6_8
REMARK    7  A    between atoms: C6_8  and  C7_9
REMARK    8  A    between atoms: C7_9  and  N1_10
REMARK    9  A    between atoms: C8_14  and  C9_15
REMARK   10  A    between atoms: C9_15  and  N2_16
REMARK   11  A    between atoms: N2_16  and  C10_18
REMARK   12  A    between atoms: C11_21  and  N4_22
REMARK   13  A    between atoms: C12_27  and  N6_28
ROOT
HETATM    1  N2  UNL     1      29.419  13.189  23.532  1.00  0.00    -0.204 N
ATOM      2  H2  UNL     1      30.288  13.459  23.991  1.00  0.00     0.183 HD
ENDROOT
BRANCH   1   3
HETATM    3  C9  UNL     1      29.537  12.144  22.614  1.00  0.00     0.080 C
BRANCH   3   4
HETATM    4  C8  UNL     1      29.218  10.754  22.993  1.00  0.00     0.056 C
BRANCH   4   5
HETATM    5  C3  UNL     1      30.145   9.961  23.779  1.00  0.00    -0.015 C
BRANCH   5   6
HETATM    6  C2  UNL     1      29.340   8.998  24.676  1.00  0.00     0.007 C
HETATM    7  C1  UNL     1      28.394   9.700  25.586  1.00  0.00     0.006 C
ENDBRANCH   5   6
BRANCH   5   8
HETATM    8  C4  UNL     1      30.742   8.916  22.752  1.00  0.00     0.173 C
BRANCH   8   9
HETATM    9  O1  UNL     1      31.487   9.659  21.839  1.00  0.00    -0.400 OA
ATOM     10  H1  UNL     1      31.210   9.367  20.978  1.00  0.00     0.209 HD
ENDBRANCH   8   9
ENDBRANCH   5   8
BRANCH   5  11
HETATM   11  C5  UNL     1      31.280  10.538  24.510  1.00  0.00     0.013 C
BRANCH  11  12
HETATM   12  C6  UNL     1      32.097   9.739  25.425  1.00  0.00     0.028 C
BRANCH  12  13
HETATM   13  C7  UNL     1      33.364  10.229  25.984  1.00  0.00     0.229 C
BRANCH  13  14
HETATM   14  N1  UNL     1      34.173   9.050  26.356  1.00  0.00    -0.079 N
ATOM     15  H13 UNL     1      33.609   8.214  26.511  1.00  0.00     0.274 HD
ATOM     16  H12 UNL     1      34.732   8.691  25.581  1.00  0.00     0.274 HD
ATOM     17  H11 UNL     1      34.736   9.306  27.167  1.00  0.00     0.274 HD
ENDBRANCH  13  14
ENDBRANCH  12  13
ENDBRANCH  11  12
ENDBRANCH   5  11
ENDBRANCH   4   5
ENDBRANCH   3   4
ENDBRANCH   1   3
BRANCH   1  18
HETATM   18  C10 UNL     1      28.402  13.853  23.881  1.00  0.00     0.710 A
HETATM   19  N3  UNL     1      28.389  15.197  23.806  1.00  0.00    -0.021 N
HETATM   20  C11 UNL     1      27.323  15.934  24.171  1.00  0.00     0.705 A
ATOM     21  H3  UNL     1      29.220  15.677  23.460  1.00  0.00     0.203 HD
HETATM   22  N5  UNL     1      26.242  15.305  24.625  1.00  0.00    -0.022 N
HETATM   23  C12 UNL     1      26.196  13.961  24.722  1.00  0.00     0.705 A
ATOM     24  H5  UNL     1      25.429  15.852  24.905  1.00  0.00     0.203 HD
HETATM   25  N7  UNL     1      27.291  13.259  24.344  1.00  0.00    -0.021 N
ATOM     26  H7  UNL     1      27.270  12.241  24.413  1.00  0.00     0.203 HD
BRANCH  20  27
HETATM   27  N4  UNL     1      27.354  17.223  24.082  1.00  0.00    -0.234 N
ATOM     28  H42 UNL     1      27.305  17.687  23.176  1.00  0.00     0.174 HD
ATOM     29  H41 UNL     1      27.428  17.798  24.921  1.00  0.00     0.174 HD
ENDBRANCH  20  27
BRANCH  23  30
HETATM   30  N6  UNL     1      25.124  13.406  25.168  1.00  0.00    -0.234 N
ATOM     31  H62 UNL     1      25.129  12.543  25.712  1.00  0.00     0.174 HD
ATOM     32  H61 UNL     1      24.224  13.845  24.972  1.00  0.00     0.174 HD
ENDBRANCH  23  30
ENDBRANCH   1  18
TORSDOF 13
ENDMDL