MODEL 5
REMARK VINA RESULT: -7.267325921      1.728      2.422
REMARK  7 active torsions:
REMARK  status: ('A' for Active; 'I' for Inactive)
REMARK    1  A    between atoms: C1_2  and  N2_4
REMARK    2  A    between atoms: N2_4  and  C2_6
REMARK    3  A    between atoms: C2_6  and  C3_7
REMARK    4  A    between atoms: C3_7  and  C4_8
REMARK    5  A    between atoms: C4_8  and  C5_9
REMARK    6  A    between atoms: C5_9  and  C6_10
REMARK    7  A    between atoms: C6_10  and  C7_11
REMARK       I    between atoms: C7_11  and  N3_13
ROOT
HETATM    1  C5  UNL     1      25.266  56.653  88.519  1.00  0.00     0.009 C
ENDROOT
BRANCH   1   2
HETATM    2  C4  UNL     1      26.284  57.450  89.259  1.00  0.00     0.002 C
BRANCH   2   3
HETATM    3  C3  UNL     1      27.661  56.854  89.046  1.00  0.00     0.020 C
BRANCH   3   4
HETATM    4  C2  UNL     1      28.156  56.937  87.647  1.00  0.00     0.121 C
BRANCH   4   5
HETATM    5  N2  UNL     1      29.163  57.960  87.536  1.00  0.00    -0.369 N
ATOM      6  H2  UNL     1      30.126  57.705  87.755  1.00  0.00     0.161 HD
BRANCH   5   7
HETATM    7  C1  UNL     1      28.909  59.287  87.146  1.00  0.00     0.180 C
HETATM    8  N1  UNL     1      28.941  59.634  85.758  1.00  0.00    -0.070 NA
HETATM    9  S1  UNL     1      28.604  60.460  88.243  1.00  0.00    -0.044 SA
ENDBRANCH   5   7
ENDBRANCH   4   5
ENDBRANCH   3   4
ENDBRANCH   2   3
ENDBRANCH   1   2
BRANCH   1  10
HETATM   10  C6  UNL     1      24.456  55.835  89.500  1.00  0.00     0.103 C
BRANCH  10  11
HETATM   11  C7  UNL     1      23.080  55.565  88.962  1.00  0.00     0.219 C
HETATM   12  O1  UNL     1      22.724  56.011  87.838  1.00  0.00    -0.273 OA
HETATM   13  N3  UNL     1      22.200  54.794  89.756  1.00  0.00    -0.352 N
HETATM   14  C8  UNL     1      22.652  54.303  91.025  1.00  0.00     0.125 C
HETATM   15  C12 UNL     1      20.871  54.552  89.222  1.00  0.00     0.125 C
HETATM   16  C9  UNL     1      21.656  53.669  91.899  1.00  0.00     0.020 C
HETATM   17  C10 UNL     1      20.353  53.308  91.259  1.00  0.00     0.003 C
HETATM   18  C11 UNL     1      20.428  53.213  89.757  1.00  0.00     0.020 C
ENDBRANCH  10  11
ENDBRANCH   1  10
TORSDOF 7
ENDMDL