MODEL 4
REMARK VINA RESULT: -7.633101098      1.782      2.048
REMARK  6 active torsions:
REMARK  status: ('A' for Active; 'I' for Inactive)
REMARK    1  A    between atoms: C2_2  and  C3_3
REMARK    2  A    between atoms: C3_3  and  C4_4
REMARK    3  A    between atoms: C4_4  and  C5_5
REMARK       I    between atoms: C5_5  and  N1_7
REMARK    4  A    between atoms: N1_7  and  C6_9
REMARK    5  A    between atoms: C6_9  and  C7_10
REMARK    6  A    between atoms: C7_10  and  N2_11
REMARK       I    between atoms: N2_11  and  C8_13
REMARK       I    between atoms: C8_13  and  N3_15
ROOT
HETATM    1  C7  UNL     1      25.667  55.152  92.682  1.00  0.00     0.144 C
ENDROOT
BRANCH   1   2
HETATM    2  C6  UNL     1      26.717  56.214  92.688  1.00  0.00     0.142 C
BRANCH   2   3
HETATM    3  N1  UNL     1      26.798  56.932  91.439  1.00  0.00    -0.360 N
HETATM    4  C5  UNL     1      27.718  56.529  90.419  1.00  0.00     0.217 C
HETATM    5  O1  UNL     1      28.440  55.533  90.665  1.00  0.00    -0.274 OA
ATOM      6  H1  UNL     1      26.193  57.738  91.281  1.00  0.00     0.162 HD
BRANCH   4   7
HETATM    7  C4  UNL     1      27.724  57.321  89.191  1.00  0.00     0.103 C
BRANCH   7   8
HETATM    8  C3  UNL     1      26.434  57.450  88.473  1.00  0.00     0.009 C
BRANCH   8   9
HETATM    9  C2  UNL     1      26.515  57.510  86.984  1.00  0.00    -0.004 C
HETATM   10  C1  UNL     1      25.270  56.888  86.335  1.00  0.00     0.005 C
ENDBRANCH   8   9
ENDBRANCH   7   8
ENDBRANCH   4   7
ENDBRANCH   2   3
ENDBRANCH   1   2
BRANCH   1  11
HETATM   11  N2  UNL     1      24.793  55.263  91.550  1.00  0.00    -0.341 N
HETATM   12  C8  UNL     1      23.499  54.682  91.523  1.00  0.00     0.318 C
HETATM   13  O2  UNL     1      23.139  54.044  92.571  1.00  0.00    -0.247 OA
HETATM   14  N3  UNL     1      22.649  54.805  90.389  1.00  0.00    -0.334 N
HETATM   15  C9  UNL     1      21.347  54.173  90.465  1.00  0.00     0.127 C
HETATM   16  C13 UNL     1      23.121  55.533  89.255  1.00  0.00     0.127 C
HETATM   17  C10 UNL     1      20.934  53.828  89.050  1.00  0.00     0.020 C
HETATM   18  C11 UNL     1      20.830  55.110  88.286  1.00  0.00     0.003 C
HETATM   19  C12 UNL     1      22.091  55.898  88.247  1.00  0.00     0.020 C
ATOM     20  H2  UNL     1      25.114  55.780  90.732  1.00  0.00     0.164 HD
ENDBRANCH   1  11
TORSDOF 6
ENDMDL