MODEL 2
REMARK VINA RESULT: -7.509187327      1.584      2.394
REMARK  11 active torsions:
REMARK  status: ('A' for Active; 'I' for Inactive)
REMARK    1  A    between atoms: C3_3  and  C4_4
REMARK    2  A    between atoms: C4_4  and  C5_5
REMARK    3  A    between atoms: C5_5  and  C6_6
REMARK    4  A    between atoms: C6_6  and  C7_7
REMARK    5  A    between atoms: C8_8  and  C9_9
REMARK    6  A    between atoms: C9_9  and  C10_10
REMARK    7  A    between atoms: C10_10  and  C11_11
REMARK    8  A    between atoms: C11_11  and  C12_12
REMARK    9  A    between atoms: C13_13  and  C14_14
REMARK   10  A    between atoms: C14_14  and  C15_15
REMARK   11  A    between atoms: C15_15  and  N1_16
ROOT
HETATM    1  C1  UNL     1      23.904  56.408  87.480  1.00  0.00     0.112 C
HETATM    2  C2  UNL     1      22.667  55.854  88.032  1.00  0.00    -0.111 C
HETATM    3  C3  UNL     1      21.658  55.378  88.490  1.00  0.00    -0.107 C
ENDROOT
BRANCH   3   4
HETATM    4  C4  UNL     1      20.442  54.783  89.060  1.00  0.00     0.095 C
BRANCH   4   5
HETATM    5  C5  UNL     1      20.762  53.372  89.545  1.00  0.00     0.024 C
BRANCH   5   6
HETATM    6  C6  UNL     1      20.769  53.395  91.058  1.00  0.00     0.095 C
BRANCH   6   7
HETATM    7  C7  UNL     1      22.085  53.936  91.458  1.00  0.00    -0.107 C
HETATM    8  C8  UNL     1      23.167  54.373  91.767  1.00  0.00    -0.107 C
BRANCH   8   9
HETATM    9  C9  UNL     1      24.486  54.907  92.117  1.00  0.00     0.095 C
BRANCH   9  10
HETATM   10  C10 UNL     1      25.082  55.595  90.882  1.00  0.00     0.024 C
BRANCH  10  11
HETATM   11  C11 UNL     1      26.388  56.263  91.215  1.00  0.00     0.095 C
BRANCH  11  12
HETATM   12  C12 UNL     1      27.035  56.669  89.970  1.00  0.00    -0.106 C
HETATM   13  C13 UNL     1      27.578  56.989  88.963  1.00  0.00    -0.105 C
BRANCH  13  14
HETATM   14  C14 UNL     1      28.257  57.363  87.747  1.00  0.00     0.113 C
BRANCH  14  15
HETATM   15  C15 UNL     1      28.365  58.863  87.612  1.00  0.00     0.134 C
BRANCH  15  16
HETATM   16  N1  UNL     1      29.048  59.140  86.365  1.00  0.00    -0.366 N
HETATM   17  C16 UNL     1      28.409  59.573  85.321  1.00  0.00     0.196 C
HETATM   18  N2  UNL     1      29.057  59.849  84.095  1.00  0.00    -0.067 NA
HETATM   19  N3  UNL     1      27.004  59.777  85.402  1.00  0.00    -0.067 NA
ATOM     20  H1  UNL     1      30.056  58.992  86.306  1.00  0.00     0.161 HD
ENDBRANCH  15  16
ENDBRANCH  14  15
ENDBRANCH  13  14
ENDBRANCH  11  12
ENDBRANCH  10  11
ENDBRANCH   9  10
ENDBRANCH   8   9
ENDBRANCH   6   7
ENDBRANCH   5   6
ENDBRANCH   4   5
ENDBRANCH   3   4
TORSDOF 11
ENDMDL