MODEL 1
REMARK VINA RESULT: -6.852179111      0.000      0.000
REMARK  7 active torsions:
REMARK  status: ('A' for Active; 'I' for Inactive)
REMARK    1  A    between atoms: C2_2  and  C3_3
REMARK    2  A    between atoms: C3_3  and  N1_4
REMARK       I    between atoms: N1_4  and  C5_6
REMARK       I    between atoms: C5_6  and  N2_8
REMARK    3  A    between atoms: N2_8  and  C6_10
REMARK    4  A    between atoms: C6_10  and  C7_11
REMARK    5  A    between atoms: C7_11  and  C8_12
REMARK    6  A    between atoms: C8_12  and  N3_13
REMARK       I    between atoms: N3_13  and  C9_15
REMARK    7  A    between atoms: C9_15  and  C10_17
ROOT
HETATM    1  C6  UNL     1      27.582  56.716  89.994  1.00  0.00     0.126 C
ENDROOT
BRANCH   1   2
HETATM    2  N2  UNL     1      27.931  57.976  89.399  1.00  0.00    -0.343 N
HETATM    3  C5  UNL     1      28.143  58.174  88.015  1.00  0.00     0.318 C
HETATM    4  N1  UNL     1      28.484  59.459  87.528  1.00  0.00    -0.335 N
HETATM    5  O1  UNL     1      28.023  57.204  87.238  1.00  0.00    -0.247 OA
HETATM    6  C4  UNL     1      28.631  60.604  88.407  1.00  0.00     0.154 C
ATOM      7  H2  UNL     1      28.032  58.782  90.016  1.00  0.00     0.164 HD
BRANCH   4   8
HETATM    8  C3  UNL     1      28.700  59.652  86.107  1.00  0.00     0.153 C
BRANCH   8   9
HETATM    9  C2  UNL     1      27.635  60.428  85.457  1.00  0.00    -0.017 C
HETATM   10  C1  UNL     1      27.931  61.605  84.924  1.00  0.00     0.008 C
ENDBRANCH   8   9
ENDBRANCH   4   8
ENDBRANCH   1   2
BRANCH   1  11
HETATM   11  C7  UNL     1      26.174  56.715  90.586  1.00  0.00     0.039 C
BRANCH  11  12
HETATM   12  C8  UNL     1      25.271  55.880  89.707  1.00  0.00     0.124 C
BRANCH  12  13
HETATM   13  N3  UNL     1      25.274  56.337  88.335  1.00  0.00    -0.360 N
HETATM   14  C9  UNL     1      24.228  55.947  87.471  1.00  0.00     0.225 C
HETATM   15  O2  UNL     1      23.295  55.208  87.880  1.00  0.00    -0.273 OA
ATOM     16  H3  UNL     1      26.027  56.935  87.994  1.00  0.00     0.162 HD
BRANCH  14  17
HETATM   17  C10 UNL     1      24.246  56.423  86.066  1.00  0.00     0.030 C
HETATM   18  C11 UNL     1      25.150  57.615  85.951  1.00  0.00     0.024 C
HETATM   19  C12 UNL     1      24.730  55.331  85.122  1.00  0.00     0.024 C
HETATM   20  C13 UNL     1      22.804  56.803  85.726  1.00  0.00     0.024 C
ENDBRANCH  14  17
ENDBRANCH  12  13
ENDBRANCH  11  12
ENDBRANCH   1  11
TORSDOF 7
ENDMDL