MODEL 1
REMARK VINA RESULT: -8.006607537      0.000      0.000
REMARK  9 active torsions:
REMARK  status: ('A' for Active; 'I' for Inactive)
REMARK    1  A    between atoms: C2_2  and  C3_3
REMARK    2  A    between atoms: C2_2  and  C8_8
REMARK    3  A    between atoms: C4_4  and  C5_5
REMARK    4  A    between atoms: C5_5  and  C6_6
REMARK    5  A    between atoms: C9_9  and  C10_10
REMARK    6  A    between atoms: C11_11  and  C12_12
REMARK    7  A    between atoms: C12_12  and  O1_13
REMARK    8  A    between atoms: C13_15  and  C14_16
REMARK    9  A    between atoms: C14_16  and  N1_17
REMARK       I    between atoms: N1_17  and  C15_19
ROOT
HETATM    1  C8  UNL     1      23.234  54.567  92.030  1.00  0.00     0.041 A
HETATM    2  C9  UNL     1      24.141  55.311  91.139  1.00  0.00     0.024 A
HETATM    3  C13 UNL     1      23.653  53.952  90.718  1.00  0.00     0.021 A
ENDROOT
BRANCH   1   4
HETATM    4  C2  UNL     1      23.618  53.929  93.278  1.00  0.00    -0.009 C
HETATM    5  C1  UNL     1      23.300  52.700  93.572  1.00  0.00     0.029 C
BRANCH   4   6
HETATM    6  C3  UNL     1      24.382  54.686  94.263  1.00  0.00    -0.072 C
HETATM    7  C4  UNL     1      24.999  55.308  95.090  1.00  0.00    -0.101 C
BRANCH   7   8
HETATM    8  C5  UNL     1      25.726  56.057  96.110  1.00  0.00     0.094 C
BRANCH   8   9
HETATM    9  C6  UNL     1      24.937  57.307  96.520  1.00  0.00     0.007 C
HETATM   10  C7  UNL     1      23.705  56.915  97.298  1.00  0.00     0.006 C
ENDBRANCH   8   9
ENDBRANCH   7   8
ENDBRANCH   4   6
ENDBRANCH   1   4
BRANCH   2  11
HETATM   11  C10 UNL     1      25.589  55.419  91.303  1.00  0.00    -0.023 C
HETATM   12  C11 UNL     1      26.372  56.302  90.717  1.00  0.00    -0.005 C
BRANCH  12  13
HETATM   13  C12 UNL     1      27.842  56.355  90.930  1.00  0.00     0.191 C
BRANCH  13  14
HETATM   14  O1  UNL     1      28.316  57.585  90.500  1.00  0.00    -0.397 OA
ATOM     15  H1  UNL     1      27.947  58.268  91.048  1.00  0.00     0.209 HD
ENDBRANCH  13  14
ENDBRANCH  12  13
ENDBRANCH   2  11
BRANCH   3  16
HETATM   16  C14 UNL     1      22.627  53.860  89.606  1.00  0.00     0.128 C
BRANCH  16  17
HETATM   17  N1  UNL     1      22.983  54.766  88.519  1.00  0.00    -0.361 N
HETATM   18  C15 UNL     1      22.035  55.688  87.981  1.00  0.00     0.213 C
HETATM   19  C16 UNL     1      22.457  56.584  86.878  1.00  0.00     0.117 C
HETATM   20  O2  UNL     1      20.852  55.752  88.426  1.00  0.00    -0.274 OA
ATOM     21  H1  UNL     1      23.928  54.741  88.137  1.00  0.00     0.162 HD
ENDBRANCH  16  17
ENDBRANCH   3  16
TORSDOF 9
ENDMDL