MODEL 1
REMARK VINA RESULT: -7.640263609      0.000      0.000
REMARK  6 active torsions:
REMARK  status: ('A' for Active; 'I' for Inactive)
REMARK    1  A    between atoms: C2_2  and  C3_3
REMARK    2  A    between atoms: C3_3  and  C4_4
REMARK    3  A    between atoms: C4_4  and  C5_5
REMARK    4  A    between atoms: C5_5  and  C6_6
REMARK    5  A    between atoms: C6_6  and  N1_7
REMARK       I    between atoms: N1_7  and  C7_9
REMARK    6  A    between atoms: C7_9  and  C8_11
REMARK       I    between atoms: N2_15  and  C12_16
ROOT
HETATM    1  N1  UNL     1      25.518  56.966  88.068  1.00  0.00    -0.360 N
ATOM      2  H1  UNL     1      24.520  56.979  87.856  1.00  0.00     0.162 HD
HETATM    3  C7  UNL     1      26.447  57.184  87.032  1.00  0.00     0.227 C
HETATM    4  O1  UNL     1      27.670  57.164  87.313  1.00  0.00    -0.273 OA
ENDROOT
BRANCH   3   5
HETATM    5  C8  UNL     1      26.060  57.434  85.628  1.00  0.00     0.055 C
HETATM    6  C9  UNL     1      24.698  56.912  85.293  1.00  0.00     0.027 C
HETATM    7  C10 UNL     1      27.047  56.744  84.691  1.00  0.00     0.040 C
HETATM    8  C11 UNL     1      27.513  57.869  83.793  1.00  0.00     0.128 C
HETATM    9  N2  UNL     1      27.414  59.031  84.670  1.00  0.00    -0.335 N
HETATM   10  C12 UNL     1      28.334  60.076  84.867  1.00  0.00     0.330 C
HETATM   11  C13 UNL     1      26.129  58.890  85.325  1.00  0.00     0.146 C
HETATM   12  N3  UNL     1      28.051  61.124  85.771  1.00  0.00    -0.040 NA
HETATM   13  O2  UNL     1      29.413  60.057  84.222  1.00  0.00    -0.251 OA
ENDBRANCH   3   5
BRANCH   1  14
HETATM   14  C6  UNL     1      25.946  56.729  89.407  1.00  0.00     0.122 C
BRANCH  14  15
HETATM   15  C5  UNL     1      24.998  55.880  90.203  1.00  0.00     0.020 C
BRANCH  15  16
HETATM   16  C4  UNL     1      24.046  55.222  89.197  1.00  0.00     0.005 C
BRANCH  16  17
HETATM   17  C3  UNL     1      22.691  55.008  89.781  1.00  0.00     0.026 C
BRANCH  17  18
HETATM   18  C2  UNL     1      21.669  55.141  88.725  1.00  0.00    -0.037 C
HETATM   19  C1  UNL     1      21.797  56.058  87.795  1.00  0.00     0.007 C
ENDBRANCH  17  18
ENDBRANCH  16  17
ENDBRANCH  15  16
ENDBRANCH  14  15
ENDBRANCH   1  14
TORSDOF 6
ENDMDL