MODEL 3
REMARK VINA RESULT: -7.687525234      0.729      1.353
REMARK  6 active torsions:
REMARK  status: ('A' for Active; 'I' for Inactive)
REMARK    1  A    between atoms: C2_2  and  C3_3
REMARK    2  A    between atoms: C3_3  and  C4_4
REMARK    3  A    between atoms: C4_4  and  C5_5
REMARK    4  A    between atoms: C5_5  and  C6_6
REMARK       I    between atoms: C6_6  and  N1_8
REMARK    5  A    between atoms: C9_11  and  C11_13
REMARK    6  A    between atoms: C11_13  and  N2_14
REMARK       I    between atoms: N2_14  and  C12_16
ROOT
HETATM    1  C6  UNL     1      25.236  56.231  88.605  1.00  0.00     0.219 C
HETATM    2  O1  UNL     1      26.302  56.267  89.308  1.00  0.00    -0.273 OA
HETATM    3  N1  UNL     1      25.275  56.783  87.311  1.00  0.00    -0.351 N
HETATM    4  C7  UNL     1      24.179  56.831  86.382  1.00  0.00     0.126 C
HETATM    5  C8  UNL     1      24.765  56.816  85.011  1.00  0.00     0.032 C
HETATM    6  C9  UNL     1      26.152  57.341  85.190  1.00  0.00    -0.010 C
HETATM    7  C10 UNL     1      27.145  56.349  84.607  1.00  0.00     0.018 C
HETATM    8  C13 UNL     1      26.414  57.400  86.677  1.00  0.00     0.136 C
ENDROOT
BRANCH   1   9
HETATM    9  C5  UNL     1      23.986  55.641  89.096  1.00  0.00     0.103 C
BRANCH   9  10
HETATM   10  C4  UNL     1      23.975  55.238  90.525  1.00  0.00     0.009 C
BRANCH  10  11
HETATM   11  C3  UNL     1      22.760  54.523  91.003  1.00  0.00     0.000 C
BRANCH  11  12
HETATM   12  C2  UNL     1      23.014  54.154  92.471  1.00  0.00    -0.005 C
HETATM   13  C1  UNL     1      24.438  54.523  92.829  1.00  0.00     0.005 C
ENDBRANCH  11  12
ENDBRANCH  10  11
ENDBRANCH   9  10
ENDBRANCH   1   9
BRANCH   6  14
HETATM   14  C11 UNL     1      26.408  58.654  84.510  1.00  0.00     0.134 C
BRANCH  14  15
HETATM   15  N2  UNL     1      26.761  59.717  85.403  1.00  0.00    -0.345 N
HETATM   16  C12 UNL     1      28.036  60.330  85.316  1.00  0.00     0.328 C
HETATM   17  N3  UNL     1      28.414  61.386  86.186  1.00  0.00    -0.040 NA
HETATM   18  O2  UNL     1      28.880  59.956  84.461  1.00  0.00    -0.251 OA
ATOM     19  H2  UNL     1      26.092  60.035  86.104  1.00  0.00     0.163 HD
ENDBRANCH  14  15
ENDBRANCH   6  14
TORSDOF 6
ENDMDL