MODEL 3
REMARK VINA RESULT: -7.799227404      1.051      1.178
REMARK  6 active torsions:
REMARK  status: ('A' for Active; 'I' for Inactive)
REMARK    1  A    between atoms: C2_2  and  C3_3
REMARK       I    between atoms: C3_3  and  N1_5
REMARK    2  A    between atoms: N1_5  and  C4_7
REMARK    3  A    between atoms: C4_7  and  C5_8
REMARK    4  A    between atoms: C5_8  and  C6_9
REMARK    5  A    between atoms: C6_9  and  C7_10
REMARK    6  A    between atoms: C7_10  and  N2_11
REMARK       I    between atoms: N2_11  and  C8_13
REMARK       I    between atoms: C8_13  and  N3_15
ROOT
HETATM    1  C7  UNL     1      25.574  57.135  86.603  1.00  0.00     0.124 C
ENDROOT
BRANCH   1   2
HETATM    2  C6  UNL     1      27.005  57.546  86.383  1.00  0.00     0.021 C
BRANCH   2   3
HETATM    3  C5  UNL     1      27.657  58.243  87.521  1.00  0.00     0.021 C
BRANCH   3   4
HETATM    4  C4  UNL     1      28.334  59.497  87.031  1.00  0.00     0.122 C
BRANCH   4   5
HETATM    5  N1  UNL     1      27.797  59.912  85.743  1.00  0.00    -0.361 N
HETATM    6  C3  UNL     1      27.949  61.254  85.337  1.00  0.00     0.217 C
HETATM    7  O1  UNL     1      28.538  62.086  86.071  1.00  0.00    -0.274 OA
ATOM      8  H1  UNL     1      27.317  59.241  85.143  1.00  0.00     0.162 HD
BRANCH   6   9
HETATM    9  C2  UNL     1      27.402  61.692  84.019  1.00  0.00     0.098 C
HETATM   10  C1  UNL     1      27.915  63.074  83.673  1.00  0.00     0.014 C
ENDBRANCH   6   9
ENDBRANCH   4   5
ENDBRANCH   3   4
ENDBRANCH   2   3
ENDBRANCH   1   2
BRANCH   1  11
HETATM   11  N2  UNL     1      25.443  56.707  87.992  1.00  0.00    -0.343 N
HETATM   12  C8  UNL     1      24.479  55.716  88.375  1.00  0.00     0.318 C
HETATM   13  O2  UNL     1      23.761  55.247  87.446  1.00  0.00    -0.247 OA
HETATM   14  N3  UNL     1      24.340  55.289  89.718  1.00  0.00    -0.334 N
HETATM   15  C9  UNL     1      23.344  54.287  90.029  1.00  0.00     0.127 C
HETATM   16  C13 UNL     1      25.183  55.859  90.714  1.00  0.00     0.127 C
HETATM   17  C10 UNL     1      22.861  54.450  91.466  1.00  0.00     0.020 C
HETATM   18  C11 UNL     1      23.983  54.459  92.442  1.00  0.00     0.003 C
HETATM   19  C12 UNL     1      25.250  55.091  91.989  1.00  0.00     0.020 C
ATOM     20  H2  UNL     1      26.047  57.119  88.703  1.00  0.00     0.164 HD
ENDBRANCH   1  11
TORSDOF 6
ENDMDL