MODEL 2
REMARK VINA RESULT: -7.762963158      4.060      7.190
REMARK  6 active torsions:
REMARK  status: ('A' for Active; 'I' for Inactive)
REMARK    1  A    between atoms: C2_2  and  C3_3
REMARK    2  A    between atoms: C3_3  and  C4_4
REMARK    3  A    between atoms: C4_4  and  C5_5
REMARK    4  A    between atoms: C5_5  and  N1_7
REMARK       I    between atoms: N1_7  and  C7_9
REMARK    5  A    between atoms: C7_9  and  C8_11
REMARK    6  A    between atoms: C10_13  and  C12_15
REMARK       I    between atoms: C12_15  and  N2_17
REMARK       I    between atoms: N2_17  and  C13_19
ROOT
HETATM    1  C8  UNL     1      21.075  53.181  93.549  1.00  0.00     0.096 A
HETATM    2  C9  UNL     1      21.131  51.909  94.299  1.00  0.00     0.035 A
HETATM    3  C10 UNL     1      22.310  52.761  94.427  1.00  0.00     0.051 A
HETATM    4  C11 UNL     1      23.554  52.624  93.620  1.00  0.00     0.026 C
ENDROOT
BRANCH   1   5
HETATM    5  C7  UNL     1      21.469  53.187  92.085  1.00  0.00     0.223 C
HETATM    6  N1  UNL     1      22.209  54.252  91.570  1.00  0.00    -0.356 N
ATOM      7  H1  UNL     1      22.389  54.997  92.243  1.00  0.00     0.162 HD
HETATM    8  O1  UNL     1      21.117  52.208  91.401  1.00  0.00    -0.273 OA
BRANCH   6   9
HETATM    9  C5  UNL     1      22.753  54.488  90.293  1.00  0.00     0.090 C
HETATM   10  C6  UNL     1      23.986  55.330  90.304  1.00  0.00     0.033 C
BRANCH   9  11
HETATM   11  C4  UNL     1      21.729  54.932  89.260  1.00  0.00     0.109 C
BRANCH  11  12
HETATM   12  C3  UNL     1      22.013  55.700  88.325  1.00  0.00    -0.155 C
BRANCH  12  13
HETATM   13  C2  UNL     1      22.329  56.560  87.256  1.00  0.00     0.040 C
HETATM   14  C1  UNL     1      23.467  56.491  86.582  1.00  0.00     0.020 C
ENDBRANCH  12  13
ENDBRANCH  11  12
ENDBRANCH   9  11
ENDBRANCH   6   9
ENDBRANCH   1   5
BRANCH   3  15
HETATM   15  C12 UNL     1      22.421  53.590  95.623  1.00  0.00     0.233 C
HETATM   16  O2  UNL     1      21.835  53.154  96.697  1.00  0.00    -0.272 OA
HETATM   17  N2  UNL     1      23.092  54.818  95.797  1.00  0.00    -0.297 N
HETATM   18  C13 UNL     1      23.121  55.529  97.025  1.00  0.00     0.220 C
ATOM     19  H2  UNL     1      23.583  55.216  94.997  1.00  0.00     0.171 HD
HETATM   20  C14 UNL     1      23.837  56.796  97.175  1.00  0.00     0.117 C
HETATM   21  O3  UNL     1      22.497  55.027  98.018  1.00  0.00    -0.274 OA
ENDBRANCH   3  15
TORSDOF 6
ENDMDL