MODEL 3
REMARK VINA RESULT: -4.977157998      2.968      4.317
REMARK  3 active torsions:
REMARK  status: ('A' for Active; 'I' for Inactive)
REMARK    1  A    between atoms: S1_3  and  C2_4
REMARK    2  A    between atoms: C2_4  and  C3_5
REMARK    3  A    between atoms: C3_5  and  C4_6
ROOT
HETATM    1  N1  UNL     1       1.888  23.302  11.297  1.00  0.00    -0.184 NA
HETATM    2  C1  UNL     1       0.995  24.041  11.454  1.00  0.00     0.133 C
HETATM    3  S1  UNL     1      -0.342  25.160  11.718  1.00  0.00    -0.051 SA
ENDROOT
BRANCH   3   4
HETATM    4  C2  UNL     1      -0.117  25.938  13.312  1.00  0.00     0.092 C
BRANCH   4   5
HETATM    5  C3  UNL     1      -1.070  25.447  14.358  1.00  0.00     0.043 C
BRANCH   5   6
HETATM    6  C4  UNL     1      -2.203  26.411  14.612  1.00  0.00     0.122 C
HETATM    7  C5  UNL     1      -3.430  25.987  13.833  1.00  0.00     0.034 C
HETATM    8  C6  UNL     1      -4.111  27.296  13.485  1.00  0.00     0.029 C
HETATM    9  C7  UNL     1      -3.195  28.286  14.191  1.00  0.00     0.168 C
HETATM   10  O1  UNL     1      -1.917  27.686  14.136  1.00  0.00    -0.386 OA
ENDBRANCH   5   6
ENDBRANCH   4   5
ENDBRANCH   3   4
TORSDOF 3
ENDMDL