MODEL 3
REMARK VINA RESULT: -5.797610953      2.440      3.314
REMARK  3 active torsions:
REMARK  status: ('A' for Active; 'I' for Inactive)
REMARK    1  A    between atoms: S1_3  and  C2_4
REMARK    2  A    between atoms: C2_4  and  C3_5
REMARK    3  A    between atoms: C3_5  and  N2_6
ROOT
HETATM    1  N1  UNL     1       1.547  22.906  11.605  1.00  0.00    -0.184 NA
HETATM    2  C1  UNL     1       1.463  23.669  10.747  1.00  0.00     0.133 C
HETATM    3  S1  UNL     1       1.306  24.832   9.387  1.00  0.00    -0.049 SA
ENDROOT
BRANCH   3   4
HETATM    4  C2  UNL     1       0.184  26.158   9.954  1.00  0.00     0.120 C
BRANCH   4   5
HETATM    5  C3  UNL     1       0.686  26.722  11.282  1.00  0.00     0.283 C
BRANCH   5   6
HETATM    6  N2  UNL     1      -0.286  26.640  12.328  1.00  0.00     0.089 N
HETATM    7  C4  UNL     1       0.361  26.008  13.475  1.00  0.00     0.272 C
HETATM    8  C5  UNL     1      -0.601  25.138  14.247  1.00  0.00     0.030 C
HETATM    9  C6  UNL     1      -1.901  25.923  14.363  1.00  0.00     0.003 C
HETATM   10  C7  UNL     1      -2.520  25.927  12.968  1.00  0.00     0.030 C
HETATM   11  C8  UNL     1      -1.431  25.862  11.909  1.00  0.00     0.272 C
ENDBRANCH   5   6
ENDBRANCH   4   5
ENDBRANCH   3   4
TORSDOF 3
ENDMDL