MODEL 2
REMARK VINA RESULT: -6.101135098      1.407      2.097
REMARK  3 active torsions:
REMARK  status: ('A' for Active; 'I' for Inactive)
REMARK    1  A    between atoms: C1_2  and  C2_3
REMARK    2  A    between atoms: C3_4  and  C4_5
REMARK    3  A    between atoms: N1_6  and  N2_8
ROOT
HETATM    1  C4  UNL     1      -0.352  26.650  10.621  1.00  0.00     0.107 C
HETATM    2  N1  UNL     1      -0.695  27.506  11.519  1.00  0.00    -0.314 N
ATOM      3  H1  UNL     1      -0.039  28.219  11.841  1.00  0.00     0.185 HD
ENDROOT
BRANCH   2   4
HETATM    4  N2  UNL     1      -1.988  27.433  12.041  1.00  0.00    -0.328 N
HETATM    5  C5  UNL     1      -2.869  28.574  11.916  1.00  0.00     0.142 C
HETATM    6  C6  UNL     1      -3.591  28.882  13.205  1.00  0.00     0.021 C
HETATM    7  C7  UNL     1      -3.520  27.738  14.189  1.00  0.00     0.003 C
HETATM    8  C8  UNL     1      -3.687  26.445  13.411  1.00  0.00     0.021 C
HETATM    9  C9  UNL     1      -2.378  26.200  12.685  1.00  0.00     0.142 C
ENDBRANCH   2   4
BRANCH   1  10
HETATM   10  C3  UNL     1       0.987  26.720  10.076  1.00  0.00     0.022 C
HETATM   11  C2  UNL     1       1.938  27.409  10.679  1.00  0.00     0.042 C
BRANCH  11  12
HETATM   12  C1  UNL     1       3.272  27.463  10.112  1.00  0.00     0.258 C
HETATM   13  O1  UNL     1       4.102  26.526  10.349  1.00  0.00    -0.302 OA
ENDBRANCH  11  12
ENDBRANCH   1  10
TORSDOF 3
ENDMDL