MODEL 4
REMARK VINA RESULT: -5.656195756      1.216      1.716
REMARK  3 active torsions:
REMARK  status: ('A' for Active; 'I' for Inactive)
REMARK    1  A    between atoms: C1_2  and  C2_3
REMARK    2  A    between atoms: C2_3  and  C3_5
REMARK    3  A    between atoms: C3_5  and  C4_6
ROOT
HETATM    1  C4  UNL     1       0.784  26.293  13.481  1.00  0.00     0.054 C
HETATM    2  C5  UNL     1       0.367  26.233  14.924  1.00  0.00     0.015 C
HETATM    3  C6  UNL     1      -1.076  26.654  15.082  1.00  0.00     0.002 C
HETATM    4  C7  UNL     1      -2.023  25.712  14.380  1.00  0.00     0.010 C
HETATM    5  C8  UNL     1      -2.033  25.935  12.884  1.00  0.00     0.074 C
HETATM    6  S1  UNL     1      -0.591  26.978  12.520  1.00  0.00    -0.164 SA
ENDROOT
BRANCH   1   7
HETATM    7  C3  UNL     1       2.051  27.095  13.287  1.00  0.00     0.101 C
BRANCH   7   8
HETATM    8  C2  UNL     1       2.737  26.607  12.060  1.00  0.00     0.187 C
HETATM    9  O2  UNL     1       3.382  25.528  12.061  1.00  0.00    -0.290 OA
BRANCH   8  10
HETATM   10  C1  UNL     1       2.685  27.355  10.829  1.00  0.00     0.308 C
HETATM   11  O1  UNL     1       3.313  28.430  10.742  1.00  0.00    -0.298 OA
ENDBRANCH   8  10
ENDBRANCH   7   8
ENDBRANCH   1   7
TORSDOF 3
ENDMDL