MODEL 1
REMARK VINA RESULT: -5.684992844      0.000      0.000
REMARK  5 active torsions:
REMARK  status: ('A' for Active; 'I' for Inactive)
REMARK    1  A    between atoms: C2_2  and  C3_3
REMARK    2  A    between atoms: C3_3  and  N1_4
REMARK    3  A    between atoms: N1_4  and  C4_6
REMARK    4  A    between atoms: C4_6  and  N2_7
REMARK    5  A    between atoms: N2_7  and  C5_9
ROOT
HETATM    1  N2  UNL     1      -1.212  25.558  14.187  1.00  0.00    -0.316 N
ATOM      2  H2  UNL     1      -0.788  25.605  15.113  1.00  0.00     0.173 HD
ENDROOT
BRANCH   1   3
HETATM    3  C4  UNL     1      -2.439  25.862  14.023  1.00  0.00     0.045 C
BRANCH   3   4
HETATM    4  N1  UNL     1      -3.677  26.172  14.099  1.00  0.00    -0.340 N
ATOM      5  H1  UNL     1      -4.298  25.710  14.764  1.00  0.00     0.170 HD
BRANCH   4   6
HETATM    6  C3  UNL     1      -4.170  27.209  13.202  1.00  0.00     0.156 C
BRANCH   6   7
HETATM    7  C2  UNL     1      -3.312  28.387  13.170  1.00  0.00    -0.017 C
HETATM    8  C1  UNL     1      -2.917  28.900  12.019  1.00  0.00     0.008 C
ENDBRANCH   6   7
ENDBRANCH   4   6
ENDBRANCH   3   4
ENDBRANCH   1   3
BRANCH   1   9
HETATM    9  C5  UNL     1      -0.434  25.148  13.055  1.00  0.00     0.228 C
HETATM   10  C6  UNL     1      -1.237  25.479  11.801  1.00  0.00     0.054 C
HETATM   11  C7  UNL     1      -0.295  25.967  10.698  1.00  0.00     0.006 C
HETATM   12  C8  UNL     1       0.269  27.288  11.172  1.00  0.00     0.026 C
HETATM   13  C9  UNL     1       0.670  27.131  12.622  1.00  0.00     0.170 C
HETATM   14  O1  UNL     1       0.801  25.790  12.983  1.00  0.00    -0.366 OA
ENDBRANCH   1   9
TORSDOF 5
ENDMDL