MODEL 2
REMARK VINA RESULT: -6.119328821      3.091      4.352
REMARK  4 active torsions:
REMARK  status: ('A' for Active; 'I' for Inactive)
REMARK    1  A    between atoms: C2_3  and  O1_4
REMARK    2  A    between atoms: O1_4  and  C3_5
REMARK    3  A    between atoms: C3_5  and  C4_7
REMARK    4  A    between atoms: C4_7  and  C5_8
ROOT
HETATM    1  N1  UNL     1       1.118  26.677  12.797  1.00  0.00    -0.195 NA
HETATM    2  C1  UNL     1       0.261  26.066  13.287  1.00  0.00     0.085 C
HETATM    3  C2  UNL     1      -0.817  25.280  13.912  1.00  0.00     0.302 C
ENDROOT
BRANCH   3   4
HETATM    4  O1  UNL     1      -1.991  25.499  13.150  1.00  0.00    -0.307 OA
BRANCH   4   5
HETATM    5  C3  UNL     1      -3.190  25.912  13.722  1.00  0.00     0.260 C
HETATM    6  O2  UNL     1      -3.514  25.332  14.794  1.00  0.00    -0.265 OA
BRANCH   5   7
HETATM    7  C4  UNL     1      -4.077  26.943  13.182  1.00  0.00     0.115 C
BRANCH   7   8
HETATM    8  C5  UNL     1      -3.451  28.316  13.109  1.00  0.00    -0.005 C
HETATM    9  C6  UNL     1      -2.465  28.277  11.960  1.00  0.00     0.005 C
HETATM   10  C7  UNL     1      -1.550  29.428  12.259  1.00  0.00     0.000 C
HETATM   11  C8  UNL     1      -1.371  29.346  13.766  1.00  0.00     0.000 C
HETATM   12  C9  UNL     1      -2.605  28.650  14.283  1.00  0.00     0.005 C
ENDBRANCH   7   8
ENDBRANCH   5   7
ENDBRANCH   4   5
ENDBRANCH   3   4
TORSDOF 4
ENDMDL