MODEL 3
REMARK VINA RESULT: -6.338305441      0.942      2.024
REMARK  3 active torsions:
REMARK  status: ('A' for Active; 'I' for Inactive)
REMARK    1  A    between atoms: C2_2  and  O1_3
REMARK    2  A    between atoms: O1_3  and  C3_4
REMARK    3  A    between atoms: N1_5  and  N2_7
ROOT
HETATM    1  N2  UNL     1      -1.577  26.553  12.309  1.00  0.00    -0.327 N
HETATM    2  C4  UNL     1      -1.226  27.928  12.037  1.00  0.00     0.142 C
HETATM    3  C5  UNL     1      -1.848  28.870  13.021  1.00  0.00     0.021 C
HETATM    4  C6  UNL     1      -3.327  28.955  12.720  1.00  0.00     0.002 C
HETATM    5  C7  UNL     1      -4.034  28.009  13.659  1.00  0.00     0.002 C
HETATM    6  C8  UNL     1      -3.870  26.585  13.174  1.00  0.00     0.021 C
HETATM    7  C9  UNL     1      -2.457  26.081  13.351  1.00  0.00     0.142 C
ENDROOT
BRANCH   1   8
HETATM    8  N1  UNL     1      -1.006  25.594  11.481  1.00  0.00    -0.292 N
HETATM    9  C3  UNL     1       0.077  25.850  10.827  1.00  0.00     0.248 C
ATOM     10  H1  UNL     1      -1.447  24.679  11.388  1.00  0.00     0.188 HD
BRANCH   9  11
HETATM   11  O1  UNL     1       0.581  24.835  10.022  1.00  0.00    -0.318 OA
BRANCH  11  12
HETATM   12  C2  UNL     1       1.655  24.071  10.451  1.00  0.00     0.133 C
HETATM   13  C1  UNL     1       1.512  23.129  11.359  1.00  0.00     0.038 C
ENDBRANCH  11  12
ENDBRANCH   9  11
ENDBRANCH   1   8
TORSDOF 3
ENDMDL