MODEL 1
REMARK VINA RESULT: -6.317537140      0.000      0.000
REMARK  3 active torsions:
REMARK  status: ('A' for Active; 'I' for Inactive)
REMARK    1  A    between atoms: C2_2  and  C3_3
REMARK    2  A    between atoms: C3_3  and  C4_4
REMARK    3  A    between atoms: C6_7  and  C7_8
ROOT
HETATM    1  C4  UNL     1      -0.963  26.212  13.008  1.00  0.00     0.187 C
HETATM    2  C5  UNL     1      -1.277  25.485  11.724  1.00  0.00     0.206 C
HETATM    3  O1  UNL     1      -0.434  25.960  10.748  1.00  0.00    -0.355 OA
HETATM    4  C6  UNL     1       0.695  26.527  11.299  1.00  0.00     0.300 C
HETATM    5  O2  UNL     1       0.422  27.625  12.113  1.00  0.00    -0.207 OA
HETATM    6  O3  UNL     1      -0.754  27.542  12.696  1.00  0.00    -0.231 OA
ENDROOT
BRANCH   1   7
HETATM    7  C3  UNL     1      -2.041  26.008  14.045  1.00  0.00     0.063 C
BRANCH   7   8
HETATM    8  C2  UNL     1      -3.408  26.021  13.483  1.00  0.00    -0.034 C
HETATM    9  C1  UNL     1      -4.154  27.105  13.520  1.00  0.00     0.007 C
ENDBRANCH   7   8
ENDBRANCH   1   7
BRANCH   4  10
HETATM   10  C7  UNL     1       1.650  27.010  10.225  1.00  0.00     0.044 A
HETATM   11  C8  UNL     1       2.814  27.840  10.576  1.00  0.00     0.010 A
HETATM   12  C9  UNL     1       3.026  26.397  10.276  1.00  0.00     0.010 A
ENDBRANCH   4  10
TORSDOF 3
ENDMDL