MODEL 1
REMARK VINA RESULT: -5.411145532      0.000      0.000
REMARK  3 active torsions:
REMARK  status: ('A' for Active; 'I' for Inactive)
REMARK    1  A    between atoms: C3_3  and  S1_4
REMARK    2  A    between atoms: S1_4  and  C4_5
REMARK    3  A    between atoms: C4_5  and  C5_6
ROOT
HETATM    1  C1  UNL     1       0.373  26.252  14.930  1.00  0.00     0.168 C
HETATM    2  C2  UNL     1      -1.046  26.737  15.151  1.00  0.00     0.043 C
HETATM    3  C3  UNL     1      -1.796  25.684  14.326  1.00  0.00     0.073 C
HETATM    4  C8  UNL     1      -0.818  25.533  13.177  1.00  0.00     0.182 C
HETATM    5  O1  UNL     1       0.443  25.720  13.671  1.00  0.00    -0.390 OA
ENDROOT
BRANCH   3   6
HETATM    6  S1  UNL     1      -3.400  26.313  13.776  1.00  0.00    -0.162 SA
BRANCH   6   7
HETATM    7  C4  UNL     1      -3.452  28.084  14.127  1.00  0.00     0.079 C
BRANCH   7   8
HETATM    8  C5  UNL     1      -3.203  28.925  12.911  1.00  0.00    -0.005 A
HETATM    9  C6  UNL     1      -2.814  28.311  11.642  1.00  0.00     0.006 A
HETATM   10  C7  UNL     1      -1.793  29.137  12.431  1.00  0.00     0.006 A
ENDBRANCH   7   8
ENDBRANCH   6   7
ENDBRANCH   3   6
TORSDOF 3
ENDMDL