MODEL 3
REMARK VINA RESULT: -7.143274660      2.480      2.864
REMARK  6 active torsions:
REMARK  status: ('A' for Active; 'I' for Inactive)
REMARK    1  A    between atoms: S1_2  and  C2_3
REMARK    2  A    between atoms: C2_3  and  N2_8
REMARK    3  A    between atoms: N1_4  and  O1_6
REMARK    4  A    between atoms: N2_8  and  N3_10
REMARK    5  A    between atoms: C3_12  and  C4_13
REMARK    6  A    between atoms: C8_17  and  N4_18
ROOT
HETATM    1  N3  UNL     1       2.479  25.084  10.458  1.00  0.00    -0.309 N
ATOM      2  H3  UNL     1       2.995  24.207  10.526  1.00  0.00     0.186 HD
HETATM    3  C3  UNL     1       2.629  25.623   9.346  1.00  0.00     0.118 C
ENDROOT
BRANCH   1   4
HETATM    4  N2  UNL     1       1.808  25.361  11.599  1.00  0.00    -0.279 N
ATOM      5  H2  UNL     1       2.258  25.951  12.298  1.00  0.00     0.189 HD
BRANCH   4   6
HETATM    6  C2  UNL     1       0.490  24.862  11.868  1.00  0.00     0.178 C
HETATM    7  N1  UNL     1       0.211  23.616  11.783  1.00  0.00    -0.246 N
ATOM      8  H1  UNL     1      -0.747  23.333  11.988  1.00  0.00     0.196 HD
BRANCH   6   9
HETATM    9  S1  UNL     1      -0.786  26.004  12.330  1.00  0.00    -0.095 SA
HETATM   10  C1  UNL     1      -0.843  26.153  14.116  1.00  0.00     0.099 C
ENDBRANCH   6   9
BRANCH   7  11
HETATM   11  O1  UNL     1       1.098  22.637  11.439  1.00  0.00    -0.288 OA
ATOM     12  H1  UNL     1       0.884  21.717  11.344  1.00  0.00     0.244 HD
ENDBRANCH   7  11
ENDBRANCH   4   6
ENDBRANCH   1   4
BRANCH   3  13
HETATM   13  C4  UNL     1       2.067  26.869   8.865  1.00  0.00    -0.017 A
HETATM   14  C5  UNL     1       0.727  27.166   8.890  1.00  0.00     0.013 A
HETATM   15  C6  UNL     1       0.220  28.382   8.416  1.00  0.00     0.003 A
HETATM   16  C7  UNL     1       1.063  29.337   7.899  1.00  0.00     0.036 A
HETATM   17  C8  UNL     1       2.407  29.073   7.859  1.00  0.00     0.103 A
HETATM   18  C9  UNL     1       2.875  27.880   8.329  1.00  0.00     0.048 A
BRANCH  17  19
HETATM   19  N4  UNL     1       3.312  30.063   7.321  1.00  0.00    -0.116 N
HETATM   20  O2  UNL     1       2.851  31.015   6.658  1.00  0.00    -0.532 OA
HETATM   21  O3  UNL     1       4.639  29.894   7.574  1.00  0.00    -0.532 OA
ENDBRANCH  17  19
ENDBRANCH   3  13
TORSDOF 6
ENDMDL