MODEL 1
REMARK VINA RESULT: -7.119279027      0.000      0.000
REMARK  4 active torsions:
REMARK  status: ('A' for Active; 'I' for Inactive)
REMARK    1  A    between atoms: C2_2  and  N2_6
REMARK    2  A    between atoms: N2_6  and  N3_8
REMARK    3  A    between atoms: C3_10  and  C5_12
REMARK    4  A    between atoms: C10_18  and  N4_19
ROOT
HETATM    1  N3  UNL     1      -0.344  27.331  12.246  1.00  0.00    -0.303 N
ATOM      2  H3  UNL     1       0.486  27.871  12.491  1.00  0.00     0.186 HD
HETATM    3  C3  UNL     1      -0.291  26.667  11.142  1.00  0.00     0.037 C
HETATM    4  C4  UNL     1      -1.452  25.879  10.746  1.00  0.00     0.070 C
ENDROOT
BRANCH   3   5
HETATM    5  C5  UNL     1       0.935  26.753  10.366  1.00  0.00     0.052 A
HETATM    6  C6  UNL     1       2.030  25.894  10.345  1.00  0.00     0.064 A
HETATM    7  C7  UNL     1       2.145  24.655  11.160  1.00  0.00     0.077 C
HETATM    8  O1  UNL     1       2.934  26.363   9.486  1.00  0.00    -0.317 OA
HETATM    9  C8  UNL     1       2.551  27.455   8.931  1.00  0.00     0.083 A
HETATM   10  C9  UNL     1       3.251  28.296   7.926  1.00  0.00     0.079 C
HETATM   11  C10 UNL     1       1.285  27.747   9.456  1.00  0.00     0.146 A
BRANCH  11  12
HETATM   12  N4  UNL     1       0.496  28.880   9.111  1.00  0.00    -0.112 N
HETATM   13  O2  UNL     1       0.102  29.166   7.981  1.00  0.00    -0.532 OA
HETATM   14  O3  UNL     1       0.144  29.752  10.137  1.00  0.00    -0.532 OA
ENDBRANCH  11  12
ENDBRANCH   3   5
BRANCH   1  15
HETATM   15  N2  UNL     1      -1.387  27.391  13.124  1.00  0.00    -0.290 N
ATOM     16  H2  UNL     1      -2.156  28.042  12.960  1.00  0.00     0.188 HD
BRANCH  15  17
HETATM   17  C2  UNL     1      -1.401  26.552  14.262  1.00  0.00     0.085 C
HETATM   18  C1  UNL     1      -0.484  25.372  14.350  1.00  0.00     0.090 C
HETATM   19  N1  UNL     1      -2.205  26.765  15.273  1.00  0.00    -0.388 N
ATOM     20  H12 UNL     1      -2.215  26.159  16.093  1.00  0.00     0.157 HD
ATOM     21  H11 UNL     1      -2.829  27.569  15.213  1.00  0.00     0.157 HD
ENDBRANCH  15  17
ENDBRANCH   1  15
TORSDOF 4
ENDMDL