MODEL 1
REMARK VINA RESULT: -8.011903760      0.000      0.000
REMARK  5 active torsions:
REMARK  status: ('A' for Active; 'I' for Inactive)
REMARK    1  A    between atoms: O1_1  and  N1_3
REMARK    2  A    between atoms: N1_3  and  C1_5
REMARK    3  A    between atoms: C6_10  and  N2_11
REMARK       I    between atoms: N2_11  and  C7_13
REMARK    4  A    between atoms: C7_13  and  C8_15
REMARK       I    between atoms: C8_15  and  N3_17
REMARK    5  A    between atoms: N3_17  and  C9_19
ROOT
HETATM    1  N2  UNL     1       0.877  27.558   9.390  1.00  0.00    -0.317 N
ATOM      2  H2  UNL     1       0.755  26.574   9.152  1.00  0.00     0.169 HD
HETATM    3  C7  UNL     1       0.314  27.939  10.598  1.00  0.00     0.314 C
HETATM    4  O2  UNL     1       0.372  29.107  11.040  1.00  0.00    -0.262 OA
ENDROOT
BRANCH   1   5
HETATM    5  C6  UNL     1       1.590  28.308   8.439  1.00  0.00     0.064 A
HETATM    6  C1  UNL     1       2.952  28.058   8.216  1.00  0.00     0.081 A
HETATM    7  C2  UNL     1       3.693  28.751   7.310  1.00  0.00     0.034 A
HETATM    8  C3  UNL     1       3.072  29.739   6.584  1.00  0.00     0.002 A
HETATM    9  C4  UNL     1       1.746  30.010   6.774  1.00  0.00     0.002 A
HETATM   10  C5  UNL     1       0.986  29.295   7.708  1.00  0.00     0.032 A
BRANCH   6  11
HETATM   11  N1  UNL     1       3.577  27.041   8.969  1.00  0.00    -0.267 N
ATOM     12  H1  UNL     1       4.380  27.313   9.537  1.00  0.00     0.194 HD
BRANCH  11  13
HETATM   13  O1  UNL     1       3.243  25.860   9.004  1.00  0.00    -0.289 OA
ATOM     14  H1  UNL     1       3.809  25.115   8.837  1.00  0.00     0.244 HD
ENDBRANCH  11  13
ENDBRANCH   6  11
ENDBRANCH   1   5
BRANCH   3  15
HETATM   15  C8  UNL     1      -0.388  26.920  11.405  1.00  0.00     0.315 C
HETATM   16  O3  UNL     1      -1.632  26.843  11.316  1.00  0.00    -0.262 OA
HETATM   17  N3  UNL     1       0.323  26.050  12.262  1.00  0.00    -0.299 N
ATOM     18  H3  UNL     1       1.339  26.112  12.337  1.00  0.00     0.171 HD
BRANCH  17  19
HETATM   19  C9  UNL     1      -0.395  25.091  13.014  1.00  0.00     0.149 A
HETATM   20  C10 UNL     1      -1.001  25.319  14.254  1.00  0.00     0.058 A
HETATM   21  C11 UNL     1      -1.595  24.138  14.648  1.00  0.00     0.029 A
HETATM   22  C12 UNL     1      -1.334  23.235  13.642  1.00  0.00     0.144 A
HETATM   23  O4  UNL     1      -0.634  23.825  12.709  1.00  0.00    -0.306 OA
ENDBRANCH  17  19
ENDBRANCH   3  15
TORSDOF 5
ENDMDL