MODEL 5
REMARK VINA RESULT: -5.328407540      3.426      6.100
REMARK  8 active torsions:
REMARK  status: ('A' for Active; 'I' for Inactive)
REMARK    1  A    between atoms: S1_2  and  C2_3
REMARK    2  A    between atoms: C2_3  and  C3_4
REMARK    3  A    between atoms: C3_4  and  O1_5
REMARK    4  A    between atoms: O1_5  and  C4_6
REMARK    5  A    between atoms: C4_6  and  N3_13
REMARK    6  A    between atoms: N1_7  and  O2_9
REMARK    7  A    between atoms: O2_9  and  C5_10
REMARK    8  A    between atoms: N3_13  and  C6_15
ROOT
HETATM    1  C4  UNL     1       2.047  26.401   9.808  1.00  0.00     0.240 C
HETATM    2  N1  UNL     1       3.098  25.847   9.351  1.00  0.00    -0.220 N
ATOM      3  H1  UNL     1       3.554  25.122   9.905  1.00  0.00     0.198 HD
ENDROOT
BRANCH   1   4
HETATM    4  O1  UNL     1       1.442  27.378   9.047  1.00  0.00    -0.320 OA
BRANCH   4   5
HETATM    5  C3  UNL     1       0.673  28.429   9.544  1.00  0.00     0.189 C
BRANCH   5   6
HETATM    6  C2  UNL     1       0.358  29.488   8.475  1.00  0.00     0.100 C
BRANCH   6   7
HETATM    7  S1  UNL     1       1.657  29.588   7.247  1.00  0.00    -0.171 SA
HETATM    8  C1  UNL     1       1.810  31.297   6.688  1.00  0.00     0.089 C
ENDBRANCH   6   7
ENDBRANCH   5   6
ENDBRANCH   4   5
ENDBRANCH   1   4
BRANCH   1   9
HETATM    9  N3  UNL     1       1.502  26.014  11.096  1.00  0.00    -0.347 N
ATOM     10  H3  UNL     1       1.821  26.520  11.923  1.00  0.00     0.163 HD
BRANCH   9  11
HETATM   11  C6  UNL     1       0.552  24.972  11.275  1.00  0.00     0.022 C
HETATM   12  C7  UNL     1      -0.168  25.227  12.597  1.00  0.00     0.037 C
HETATM   13  C8  UNL     1      -0.484  24.906  10.171  1.00  0.00     0.037 C
HETATM   14  C9  UNL     1       1.271  23.641  11.279  1.00  0.00     0.037 C
ENDBRANCH   9  11
ENDBRANCH   1   9
BRANCH   2  15
HETATM   15  O2  UNL     1       3.627  26.185   8.163  1.00  0.00    -0.180 OA
BRANCH  15  16
HETATM   16  C5  UNL     1       4.793  26.877   7.962  1.00  0.00     0.394 C
HETATM   17  N2  UNL     1       5.989  26.274   7.492  1.00  0.00    -0.031 NA
HETATM   18  O3  UNL     1       4.815  28.107   8.202  1.00  0.00    -0.240 OA
ENDBRANCH  15  16
ENDBRANCH   2  15
TORSDOF 8
ENDMDL