MODEL 1
REMARK VINA RESULT: -7.026245702      0.000      0.000
REMARK  3 active torsions:
REMARK  status: ('A' for Active; 'I' for Inactive)
REMARK    1  A    between atoms: N1_4  and  N2_6
REMARK       I    between atoms: N2_6  and  C4_8
REMARK       I    between atoms: C4_8  and  N3_10
REMARK    2  A    between atoms: N3_10  and  C5_11
REMARK    3  A    between atoms: C7_13  and  N4_14
ROOT
HETATM    1  N2  UNL     1       0.203  26.435  12.168  1.00  0.00    -0.239 N
ATOM      2  H2  UNL     1       1.223  26.434  12.176  1.00  0.00     0.193 HD
HETATM    3  C4  UNL     1      -0.508  27.056  11.055  1.00  0.00     0.413 C
HETATM    4  O1  UNL     1      -1.778  26.956  11.207  1.00  0.00    -0.228 OA
HETATM    5  N3  UNL     1       0.177  27.612  10.091  1.00  0.00    -0.343 NA
ENDROOT
BRANCH   1   6
HETATM    6  N1  UNL     1      -0.483  25.852  13.206  1.00  0.00    -0.305 N
HETATM    7  C2  UNL     1      -0.757  24.584  13.241  1.00  0.00    -0.004 C
HETATM    8  C1  UNL     1      -1.500  24.012  14.383  1.00  0.00     0.064 C
HETATM    9  C3  UNL     1      -0.303  23.710  12.112  1.00  0.00     0.064 C
ATOM     10  H1  UNL     1      -0.790  26.439  13.982  1.00  0.00     0.186 HD
ENDBRANCH   1   6
BRANCH   5  11
HETATM   11  C5  UNL     1       0.904  28.202   9.068  1.00  0.00     0.156 A
HETATM   12  C6  UNL     1       2.305  27.978   8.941  1.00  0.00     0.089 A
HETATM   13  C7  UNL     1       2.934  28.579   7.959  1.00  0.00     0.113 A
HETATM   14  C8  UNL     1       2.203  29.388   7.112  1.00  0.00     0.089 A
HETATM   15  S1  UNL     1       0.636  29.248   7.770  1.00  0.00    -0.067 SA
BRANCH  13  16
HETATM   16  N4  UNL     1       4.374  28.425   7.714  1.00  0.00    -0.115 N
HETATM   17  O2  UNL     1       5.025  29.305   7.172  1.00  0.00    -0.532 OA
HETATM   18  O3  UNL     1       5.042  27.279   8.091  1.00  0.00    -0.532 OA
ENDBRANCH  13  16
ENDBRANCH   5  11
TORSDOF 3
ENDMDL