MODEL 5
REMARK VINA RESULT: -6.166543859      2.280      6.550
REMARK  6 active torsions:
REMARK  status: ('A' for Active; 'I' for Inactive)
REMARK    1  A    between atoms: C2_2  and  O1_5
REMARK    2  A    between atoms: O1_5  and  C5_6
REMARK       I    between atoms: C5_6  and  N1_8
REMARK    3  A    between atoms: N1_8  and  N2_10
REMARK       I    between atoms: N2_10  and  C6_12
REMARK       I    between atoms: C6_12  and  N3_14
REMARK    4  A    between atoms: N4_16  and  C7_18
REMARK    5  A    between atoms: C7_18  and  C8_19
REMARK    6  A    between atoms: C8_19  and  C9_20
ROOT
HETATM    1  C9  UNL     1       5.461  26.653   5.143  1.00  0.00     0.125 C
HETATM    2  C10 UNL     1       5.971  26.387   6.469  1.00  0.00     0.059 C
HETATM    3  N5  UNL     1       6.405  26.159   7.538  1.00  0.00    -0.197 NA
ENDROOT
BRANCH   1   4
HETATM    4  C8  UNL     1       4.682  27.936   5.083  1.00  0.00     0.035 C
BRANCH   4   5
HETATM    5  C7  UNL     1       4.534  28.630   6.390  1.00  0.00     0.140 C
BRANCH   5   6
HETATM    6  N4  UNL     1       3.587  29.712   6.399  1.00  0.00    -0.332 N
HETATM    7  N3  UNL     1       2.516  29.721   7.044  1.00  0.00    -0.255 N
HETATM    8  C6  UNL     1       2.068  28.637   7.882  1.00  0.00     0.353 C
ATOM      9  H3  UNL     1       1.921  30.546   6.972  1.00  0.00     0.191 HD
HETATM   10  N2  UNL     1       0.730  28.192   7.819  1.00  0.00    -0.246 N
HETATM   11  O3  UNL     1       2.962  28.161   8.632  1.00  0.00    -0.244 OA
ATOM     12  H2  UNL     1       0.096  28.659   7.170  1.00  0.00     0.192 HD
ATOM     13  H4  UNL     1       3.806  30.535   5.837  1.00  0.00     0.180 HD
BRANCH  10  14
HETATM   14  N1  UNL     1       0.228  27.154   8.593  1.00  0.00    -0.241 N
HETATM   15  C5  UNL     1      -0.151  27.226   9.944  1.00  0.00     0.380 C
HETATM   16  O2  UNL     1      -0.095  28.248  10.671  1.00  0.00    -0.237 OA
ATOM     17  H1  UNL     1       0.125  26.248   8.136  1.00  0.00     0.192 HD
BRANCH  15  18
HETATM   18  O1  UNL     1      -0.644  26.081  10.588  1.00  0.00    -0.293 OA
BRANCH  18  19
HETATM   19  C2  UNL     1       0.143  24.952  10.887  1.00  0.00     0.061 C
HETATM   20  C1  UNL     1      -0.198  23.750  10.056  1.00  0.00     0.046 C
HETATM   21  C3  UNL     1       1.611  25.226  10.850  1.00  0.00     0.046 C
HETATM   22  C4  UNL     1      -0.206  24.589  12.343  1.00  0.00     0.046 C
ENDBRANCH  18  19
ENDBRANCH  15  18
ENDBRANCH  10  14
ENDBRANCH   5   6
ENDBRANCH   4   5
ENDBRANCH   1   4
TORSDOF 6
ENDMDL