MODEL 2
REMARK VINA RESULT: -7.337979920      3.993      7.351
REMARK  5 active torsions:
REMARK  status: ('A' for Active; 'I' for Inactive)
REMARK    1  A    between atoms: N1_2  and  C1_4
REMARK    2  A    between atoms: C4_7  and  C5_8
REMARK    3  A    between atoms: C5_8  and  O3_9
REMARK    4  A    between atoms: N2_11  and  O4_13
REMARK    5  A    between atoms: C7_16  and  N3_17
ROOT
HETATM    1  C1  UNL     1       1.034  29.634   8.030  1.00  0.00     0.130 A
HETATM    2  C2  UNL     1       1.880  30.118   7.025  1.00  0.00     0.039 A
HETATM    3  C3  UNL     1       3.067  29.459   6.789  1.00  0.00     0.018 A
HETATM    4  C4  UNL     1       3.454  28.341   7.502  1.00  0.00     0.019 A
HETATM    5  C6  UNL     1       2.577  27.908   8.482  1.00  0.00     0.048 A
HETATM    6  C7  UNL     1       1.379  28.517   8.769  1.00  0.00     0.072 A
ENDROOT
BRANCH   4   7
HETATM    7  C5  UNL     1       4.694  27.648   7.258  1.00  0.00     0.170 C
HETATM    8  N2  UNL     1       5.113  26.740   8.046  1.00  0.00    -0.247 N
ATOM      9  H2  UNL     1       4.565  26.493   8.870  1.00  0.00     0.196 HD
BRANCH   7  10
HETATM   10  O3  UNL     1       5.432  27.998   6.128  1.00  0.00    -0.344 OA
ATOM     11  H3  UNL     1       6.044  27.362   5.777  1.00  0.00     0.219 HD
ENDBRANCH   7  10
BRANCH   8  12
HETATM   12  O4  UNL     1       6.314  26.081   7.794  1.00  0.00    -0.288 OA
ATOM     13  H4  UNL     1       6.465  25.206   8.131  1.00  0.00     0.244 HD
ENDBRANCH   8  12
ENDBRANCH   4   7
BRANCH   6  14
HETATM   14  N3  UNL     1       0.577  27.969   9.795  1.00  0.00    -0.331 N
HETATM   15  C8  UNL     1       0.586  28.404  11.062  1.00  0.00     0.097 A
HETATM   16  C9  UNL     1      -0.334  27.608  11.744  1.00  0.00     0.019 A
HETATM   17  C10 UNL     1      -0.890  26.690  10.856  1.00  0.00     0.019 A
HETATM   18  C11 UNL     1      -0.290  26.950   9.635  1.00  0.00     0.097 A
ENDBRANCH   6  14
BRANCH   1  19
HETATM   19  N1  UNL     1      -0.194  30.295   8.289  1.00  0.00    -0.113 N
HETATM   20  O1  UNL     1      -1.168  30.000   7.572  1.00  0.00    -0.532 OA
HETATM   21  O2  UNL     1      -0.336  31.222   9.276  1.00  0.00    -0.532 OA
ENDBRANCH   1  19
TORSDOF 5
ENDMDL