MODEL 2
REMARK VINA RESULT: -7.624927192      0.061      1.151
REMARK  4 active torsions:
REMARK  status: ('A' for Active; 'I' for Inactive)
REMARK    1  A    between atoms: C4_6  and  N2_7
REMARK       I    between atoms: N2_7  and  C5_9
REMARK    2  A    between atoms: C5_9  and  C6_11
REMARK    3  A    between atoms: C9_14  and  N3_15
REMARK    4  A    between atoms: N3_15  and  O2_17
ROOT
HETATM    1  C6  UNL     1       1.816  28.341   8.608  1.00  0.00     0.032 A
HETATM    2  C7  UNL     1       2.974  27.588   8.684  1.00  0.00     0.019 A
HETATM    3  C8  UNL     1       3.996  27.797   7.787  1.00  0.00     0.032 A
HETATM    4  C9  UNL     1       3.894  28.762   6.792  1.00  0.00     0.054 A
HETATM    5  C10 UNL     1       2.744  29.497   6.734  1.00  0.00     0.032 A
HETATM    6  C11 UNL     1       1.696  29.299   7.635  1.00  0.00     0.019 A
ENDROOT
BRANCH   1   7
HETATM    7  C5  UNL     1       0.701  28.119   9.535  1.00  0.00     0.257 C
HETATM    8  N2  UNL     1       0.172  26.898   9.844  1.00  0.00    -0.303 N
ATOM      9  H2  UNL     1      -0.113  26.396   9.004  1.00  0.00     0.171 HD
HETATM   10  O1  UNL     1       0.212  29.173  10.072  1.00  0.00    -0.267 OA
BRANCH   8  11
HETATM   11  C4  UNL     1      -0.061  26.220  10.884  1.00  0.00     0.153 A
HETATM   12  N1  UNL     1       0.545  25.274  11.589  1.00  0.00    -0.341 N
HETATM   13  C1  UNL     1       1.872  24.760  11.131  1.00  0.00     0.158 C
HETATM   14  C2  UNL     1      -0.034  24.806  12.662  1.00  0.00     0.100 A
HETATM   15  C3  UNL     1      -1.257  25.319  13.018  1.00  0.00     0.070 A
HETATM   16  S1  UNL     1      -1.526  26.458  11.788  1.00  0.00    -0.064 SA
ENDBRANCH   8  11
ENDBRANCH   1   7
BRANCH   4  17
HETATM   17  N3  UNL     1       4.943  28.965   5.857  1.00  0.00    -0.269 N
ATOM     18  H3  UNL     1       5.419  29.865   5.799  1.00  0.00     0.194 HD
BRANCH  17  19
HETATM   19  O2  UNL     1       5.301  27.940   5.044  1.00  0.00    -0.289 OA
ATOM     20  H2  UNL     1       4.847  27.110   5.126  1.00  0.00     0.244 HD
ENDBRANCH  17  19
ENDBRANCH   4  17
TORSDOF 4
ENDMDL