MODEL 3
REMARK VINA RESULT: -7.573658323      1.883      2.418
REMARK  5 active torsions:
REMARK  status: ('A' for Active; 'I' for Inactive)
REMARK    1  A    between atoms: N3_6  and  N4_8
REMARK    2  A    between atoms: N4_8  and  C4_10
REMARK    3  A    between atoms: C7_13  and  N5_14
REMARK    4  A    between atoms: N5_14  and  O1_15
REMARK    5  A    between atoms: N5_14  and  O2_17
ROOT
HETATM    1  N1  UNL     1      -2.186  25.698  14.412  1.00  0.00    -0.189 NA
HETATM    2  C1  UNL     1      -1.479  25.576  13.505  1.00  0.00     0.130 C
HETATM    3  C2  UNL     1      -0.595  25.447  12.363  1.00  0.00     0.209 C
HETATM    4  C3  UNL     1      -0.167  24.153  11.954  1.00  0.00     0.130 C
HETATM    5  N2  UNL     1       0.204  23.092  11.616  1.00  0.00    -0.189 NA
HETATM    6  N3  UNL     1      -0.216  26.511  11.743  1.00  0.00    -0.282 N
ATOM      7  H3  UNL     1      -0.533  27.430  12.052  1.00  0.00     0.188 HD
ENDROOT
BRANCH   6   8
HETATM    8  N4  UNL     1       0.626  26.389  10.657  1.00  0.00    -0.299 N
ATOM      9  H4  UNL     1       1.134  25.515  10.521  1.00  0.00     0.187 HD
BRANCH   8  10
HETATM   10  C4  UNL     1       0.808  27.448   9.715  1.00  0.00     0.049 A
HETATM   11  C5  UNL     1       1.645  27.299   8.651  1.00  0.00     0.033 A
HETATM   12  C6  UNL     1       1.825  28.303   7.748  1.00  0.00     0.032 A
HETATM   13  C7  UNL     1       1.133  29.504   7.923  1.00  0.00     0.083 A
HETATM   14  C8  UNL     1       0.278  29.680   8.996  1.00  0.00     0.040 A
HETATM   15  S1  UNL     1      -0.622  31.228   9.235  1.00  0.00    -0.051 SA
HETATM   16  C9  UNL     1       0.128  28.634   9.884  1.00  0.00     0.052 A
BRANCH  13  17
HETATM   17  N5  UNL     1       1.300  30.566   7.002  1.00  0.00    -0.035 NA
BRANCH  17  18
HETATM   18  O1  UNL     1       2.252  30.280   6.116  1.00  0.00    -0.284 OA
ATOM     19  H1  UNL     1       2.869  30.998   6.040  1.00  0.00     0.240 HD
ENDBRANCH  17  18
BRANCH  17  20
HETATM   20  O2  UNL     1       1.644  31.725   7.618  1.00  0.00    -0.284 OA
ATOM     21  H2  UNL     1       2.572  31.910   7.536  1.00  0.00     0.240 HD
ENDBRANCH  17  20
ENDBRANCH  13  17
ENDBRANCH   8  10
ENDBRANCH   6   8
TORSDOF 5
ENDMDL