MODEL 5
REMARK VINA RESULT: -6.819043944      0.317      1.411
REMARK  5 active torsions:
REMARK  status: ('A' for Active; 'I' for Inactive)
REMARK    1  A    between atoms: S1_2  and  C2_3
REMARK    2  A    between atoms: C2_3  and  C9_17
REMARK    3  A    between atoms: N1_4  and  N2_6
REMARK    4  A    between atoms: N2_6  and  C3_8
REMARK    5  A    between atoms: C6_11  and  N3_12
ROOT
HETATM    1  N2  UNL     1       4.165  28.145   5.558  1.00  0.00    -0.300 N
ATOM      2  H2  UNL     1       4.156  28.652   4.672  1.00  0.00     0.187 HD
ENDROOT
BRANCH   1   3
HETATM    3  N1  UNL     1       5.207  27.331   5.869  1.00  0.00    -0.288 N
HETATM    4  C2  UNL     1       5.613  26.328   5.262  1.00  0.00     0.161 C
ATOM      5  H1  UNL     1       5.724  27.576   6.713  1.00  0.00     0.188 HD
BRANCH   4   6
HETATM    6  S1  UNL     1       4.912  25.689   3.790  1.00  0.00    -0.108 SA
HETATM    7  C1  UNL     1       5.777  26.053   2.270  1.00  0.00     0.097 C
ENDBRANCH   4   6
BRANCH   4   8
HETATM    8  C9  UNL     1       6.781  25.608   5.820  1.00  0.00     0.235 C
HETATM    9  O3  UNL     1       7.562  24.939   5.082  1.00  0.00    -0.642 OA
HETATM   10  O4  UNL     1       7.015  25.680   7.184  1.00  0.00    -0.642 OA
ENDBRANCH   4   8
ENDBRANCH   1   3
BRANCH   1  11
HETATM   11  C3  UNL     1       3.074  28.287   6.488  1.00  0.00     0.048 A
HETATM   12  C4  UNL     1       2.802  27.283   7.408  1.00  0.00     0.033 A
HETATM   13  C5  UNL     1       1.758  27.457   8.274  1.00  0.00     0.038 A
HETATM   14  C6  UNL     1       0.977  28.599   8.250  1.00  0.00     0.103 A
HETATM   15  C7  UNL     1       1.277  29.574   7.323  1.00  0.00     0.038 A
HETATM   16  C8  UNL     1       2.322  29.440   6.431  1.00  0.00     0.033 A
BRANCH  14  17
HETATM   17  N3  UNL     1      -0.106  28.758   9.162  1.00  0.00    -0.116 N
HETATM   18  O1  UNL     1      -0.595  29.868   9.367  1.00  0.00    -0.532 OA
HETATM   19  O2  UNL     1      -0.598  27.653   9.812  1.00  0.00    -0.532 OA
ENDBRANCH  14  17
ENDBRANCH   1  11
TORSDOF 5
ENDMDL