MODEL 2
REMARK VINA RESULT: -6.590588518      0.829      1.501
REMARK  8 active torsions:
REMARK  status: ('A' for Active; 'I' for Inactive)
REMARK    1  A    between atoms: C2_2  and  C3_3
REMARK    2  A    between atoms: C3_3  and  O1_5
REMARK    3  A    between atoms: O1_5  and  C5_6
REMARK    4  A    between atoms: C5_6  and  C6_8
REMARK    5  A    between atoms: C6_8  and  C8_11
REMARK    6  A    between atoms: C8_11  and  S1_12
REMARK    7  A    between atoms: S1_12  and  C9_13
REMARK       I    between atoms: C9_13  and  N2_15
REMARK    8  A    between atoms: N2_15  and  O4_17
ROOT
HETATM    1  C6  UNL     1      -0.405  25.924  10.439  1.00  0.00     0.202 C
HETATM    2  C7  UNL     1       0.874  25.294  10.492  1.00  0.00     0.075 C
HETATM    3  N1  UNL     1       1.938  24.788  10.496  1.00  0.00    -0.196 NA
ENDROOT
BRANCH   1   4
HETATM    4  C5  UNL     1      -0.276  27.411  10.308  1.00  0.00     0.277 C
HETATM    5  O2  UNL     1      -0.197  28.081  11.366  1.00  0.00    -0.264 OA
BRANCH   4   6
HETATM    6  O1  UNL     1      -0.236  28.080   9.122  1.00  0.00    -0.315 OA
BRANCH   6   7
HETATM    7  C3  UNL     1       0.756  28.954   8.691  1.00  0.00     0.127 C
HETATM    8  C4  UNL     1       0.321  30.402   8.680  1.00  0.00     0.040 C
BRANCH   7   9
HETATM    9  C2  UNL     1       1.189  28.598   7.275  1.00  0.00     0.027 C
HETATM   10  C1  UNL     1       1.801  29.781   6.559  1.00  0.00     0.007 C
ENDBRANCH   7   9
ENDBRANCH   6   7
ENDBRANCH   4   6
ENDBRANCH   1   4
BRANCH   1  11
HETATM   11  C8  UNL     1      -1.355  25.540  11.502  1.00  0.00     0.113 C
BRANCH  11  12
HETATM   12  S1  UNL     1      -0.641  24.794  12.939  1.00  0.00    -0.066 SA
BRANCH  12  13
HETATM   13  C9  UNL     1      -1.294  25.266  14.495  1.00  0.00     0.303 C
HETATM   14  O3  UNL     1      -0.539  25.005  15.513  1.00  0.00    -0.258 OA
HETATM   15  N2  UNL     1      -2.547  25.890  14.704  1.00  0.00    -0.228 N
ATOM     16  H2  UNL     1      -3.160  26.110  13.919  1.00  0.00     0.198 HD
BRANCH  15  17
HETATM   17  O4  UNL     1      -2.909  26.186  15.972  1.00  0.00    -0.286 OA
ATOM     18  H4  UNL     1      -3.738  26.629  16.110  1.00  0.00     0.244 HD
ENDBRANCH  15  17
ENDBRANCH  12  13
ENDBRANCH  11  12
ENDBRANCH   1  11
TORSDOF 8
ENDMDL