MODEL 3
REMARK VINA RESULT: -6.929366817      0.661      1.318
REMARK  5 active torsions:
REMARK  status: ('A' for Active; 'I' for Inactive)
REMARK    1  A    between atoms: O1_2  and  N1_3
REMARK    2  A    between atoms: N1_3  and  N2_5
REMARK    3  A    between atoms: C3_7  and  O2_8
REMARK    4  A    between atoms: N3_10  and  N4_11
REMARK    5  A    between atoms: N4_11  and  C4_13
ROOT
HETATM    1  N2  UNL     1       1.577  24.981  10.596  1.00  0.00    -0.216 N
HETATM    2  C2  UNL     1       2.631  25.176   9.785  1.00  0.00     0.178 A
HETATM    3  C3  UNL     1       2.239  26.216   8.926  1.00  0.00     0.182 A
HETATM    4  N3  UNL     1       1.011  26.604   9.228  1.00  0.00    -0.204 N
HETATM    5  C10 UNL     1       0.602  25.845  10.258  1.00  0.00     0.222 A
HETATM    6  S1  UNL     1      -0.862  25.919  11.026  1.00  0.00    -0.037 SA
ENDROOT
BRANCH   4   7
HETATM    7  N4  UNL     1       0.233  27.567   8.625  1.00  0.00    -0.290 N
ATOM      8  H4  UNL     1      -0.641  27.232   8.220  1.00  0.00     0.187 HD
BRANCH   7   9
HETATM    9  C4  UNL     1       0.474  28.948   8.489  1.00  0.00     0.048 A
HETATM   10  C5  UNL     1      -0.044  29.807   9.457  1.00  0.00     0.031 A
HETATM   11  C6  UNL     1       0.092  31.177   9.395  1.00  0.00     0.002 A
HETATM   12  C7  UNL     1       0.764  31.757   8.342  1.00  0.00     0.000 A
HETATM   13  C8  UNL     1       1.281  30.923   7.376  1.00  0.00     0.002 A
HETATM   14  C9  UNL     1       1.137  29.532   7.450  1.00  0.00     0.031 A
ENDBRANCH   7   9
ENDBRANCH   4   7
BRANCH   3  15
HETATM   15  O2  UNL     1       3.116  26.673   7.951  1.00  0.00    -0.344 OA
ATOM     16  H2  UNL     1       2.786  27.179   7.219  1.00  0.00     0.219 HD
ENDBRANCH   3  15
BRANCH   1  17
HETATM   17  N1  UNL     1       1.507  24.040  11.619  1.00  0.00    -0.199 N
ATOM     18  H1  UNL     1       1.228  24.326  12.558  1.00  0.00     0.216 HD
BRANCH  17  19
HETATM   19  O1  UNL     1       1.808  22.760  11.371  1.00  0.00    -0.269 OA
HETATM   20  C1  UNL     1       0.801  22.097  10.674  1.00  0.00     0.239 C
ENDBRANCH  17  19
ENDBRANCH   1  17
TORSDOF 5
ENDMDL