MODEL 2
REMARK VINA RESULT: -6.733787071      1.911      2.841
REMARK  5 active torsions:
REMARK  status: ('A' for Active; 'I' for Inactive)
REMARK    1  A    between atoms: C1_2  and  S1_3
REMARK       I    between atoms: C1_2  and  N2_15
REMARK    2  A    between atoms: S1_3  and  S2_4
REMARK    3  A    between atoms: S2_4  and  C2_5
REMARK    4  A    between atoms: C7_10  and  N1_11
REMARK    5  A    between atoms: N1_11  and  O2_13
ROOT
HETATM    1  C2  UNL     1       1.182  28.859   8.144  1.00  0.00     0.040 A
HETATM    2  C3  UNL     1       1.851  27.637   7.996  1.00  0.00     0.022 A
HETATM    3  C4  UNL     1       2.799  27.398   7.045  1.00  0.00     0.002 A
HETATM    4  C5  UNL     1       3.136  28.404   6.165  1.00  0.00     0.002 A
HETATM    5  C6  UNL     1       2.513  29.623   6.261  1.00  0.00     0.033 A
HETATM    6  C7  UNL     1       1.544  29.836   7.250  1.00  0.00     0.071 A
ENDROOT
BRANCH   1   7
HETATM    7  S2  UNL     1      -0.019  28.932   9.381  1.00  0.00    -0.046 SA
BRANCH   7   8
HETATM    8  S1  UNL     1      -0.372  26.899   9.784  1.00  0.00     0.015 SA
BRANCH   8   9
HETATM    9  C1  UNL     1      -0.581  26.856  11.490  1.00  0.00     0.356 C
HETATM   10  O1  UNL     1      -0.662  27.858  12.280  1.00  0.00    -0.253 OA
HETATM   11  N2  UNL     1      -0.679  25.585  12.115  1.00  0.00    -0.065 N
HETATM   12  O3  UNL     1      -0.616  24.555  11.439  1.00  0.00    -0.529 OA
HETATM   13  O4  UNL     1      -0.844  25.492  13.458  1.00  0.00    -0.529 OA
ENDBRANCH   8   9
ENDBRANCH   7   8
ENDBRANCH   1   7
BRANCH   6  14
HETATM   14  N1  UNL     1       0.893  31.092   7.316  1.00  0.00    -0.268 N
ATOM     15  H1  UNL     1      -0.047  31.178   6.931  1.00  0.00     0.194 HD
BRANCH  14  16
HETATM   16  O2  UNL     1       1.472  32.184   7.873  1.00  0.00    -0.289 OA
ATOM     17  H2  UNL     1       1.539  33.015   7.417  1.00  0.00     0.244 HD
ENDBRANCH  14  16
ENDBRANCH   6  14
TORSDOF 5
ENDMDL