MODEL 2
REMARK VINA RESULT: -6.396882187      6.185      7.559
REMARK  5 active torsions:
REMARK  status: ('A' for Active; 'I' for Inactive)
REMARK    1  A    between atoms: C2_3  and  C6_12
REMARK    2  A    between atoms: N2_4  and  C3_6
REMARK    3  A    between atoms: C6_12  and  C8_15
REMARK    4  A    between atoms: C8_15  and  O1_16
REMARK    5  A    between atoms: N5_18  and  O2_20
ROOT
HETATM    1  N1  UNL     1       2.431  25.909   9.114  1.00  0.00    -0.190 NA
HETATM    2  C1  UNL     1       2.304  26.782   8.355  1.00  0.00     0.115 C
HETATM    3  C2  UNL     1       2.159  27.857   7.395  1.00  0.00     0.118 C
HETATM    4  N2  UNL     1       2.995  28.063   6.459  1.00  0.00    -0.330 N
ATOM      5  H2  UNL     1       2.837  28.836   5.812  1.00  0.00     0.168 HD
ENDROOT
BRANCH   3   6
HETATM    6  C6  UNL     1       0.975  28.719   7.550  1.00  0.00     0.229 C
HETATM    7  C7  UNL     1       0.438  28.547   8.903  1.00  0.00     0.079 C
HETATM    8  N4  UNL     1      -0.000  28.406   9.970  1.00  0.00    -0.196 NA
BRANCH   6   9
HETATM    9  C8  UNL     1       1.279  30.146   7.290  1.00  0.00     0.160 C
HETATM   10  N5  UNL     1       1.051  31.017   8.206  1.00  0.00    -0.250 N
ATOM     11  H5  UNL     1       0.664  30.708   9.098  1.00  0.00     0.196 HD
BRANCH   9  12
HETATM   12  O1  UNL     1       1.800  30.563   6.089  1.00  0.00    -0.347 OA
ATOM     13  H1  UNL     1       1.269  31.021   5.448  1.00  0.00     0.219 HD
ENDBRANCH   9  12
BRANCH  10  14
HETATM   14  O2  UNL     1       1.314  32.353   8.019  1.00  0.00    -0.288 OA
ATOM     15  H2  UNL     1       2.061  32.779   8.423  1.00  0.00     0.244 HD
ENDBRANCH  10  14
ENDBRANCH   6   9
ENDBRANCH   3   6
BRANCH   4  16
HETATM   16  C3  UNL     1       4.165  27.228   6.289  1.00  0.00     0.149 A
HETATM   17  N3  UNL     1       5.013  26.801   7.214  1.00  0.00    -0.346 N
HETATM   18  C4  UNL     1       6.013  26.055   6.879  1.00  0.00     0.097 A
ATOM     19  H3  UNL     1       4.876  27.062   8.191  1.00  0.00     0.167 HD
HETATM   20  C5  UNL     1       6.158  25.730   5.556  1.00  0.00     0.070 A
HETATM   21  S1  UNL     1       4.814  26.537   4.864  1.00  0.00    -0.064 SA
ENDBRANCH   4  16
TORSDOF 5
ENDMDL