MODEL 1
REMARK VINA RESULT: -7.368001920      0.000      0.000
REMARK  5 active torsions:
REMARK  status: ('A' for Active; 'I' for Inactive)
REMARK    1  A    between atoms: C2_2  and  C3_3
REMARK    2  A    between atoms: C3_3  and  C4_8
REMARK    3  A    between atoms: N1_4  and  O1_6
REMARK    4  A    between atoms: C7_11  and  N2_12
REMARK    5  A    between atoms: N2_12  and  N3_14
ROOT
HETATM    1  N3  UNL     1      -0.583  25.593  12.669  1.00  0.00    -0.281 N
ATOM      2  H3  UNL     1      -0.932  26.524  12.896  1.00  0.00     0.188 HD
HETATM    3  C8  UNL     1      -0.691  24.640  13.509  1.00  0.00     0.209 C
HETATM    4  C9  UNL     1      -1.306  24.890  14.772  1.00  0.00     0.130 C
HETATM    5  N4  UNL     1      -1.797  25.108  15.799  1.00  0.00    -0.189 NA
HETATM    6  C10 UNL     1      -0.200  23.345  13.179  1.00  0.00     0.130 C
HETATM    7  N5  UNL     1       0.182  22.288  12.902  1.00  0.00    -0.189 NA
ENDROOT
BRANCH   1   8
HETATM    8  N2  UNL     1       0.017  25.347  11.441  1.00  0.00    -0.292 N
ATOM      9  H2  UNL     1       0.325  24.402  11.215  1.00  0.00     0.187 HD
BRANCH   8  10
HETATM   10  C7  UNL     1       0.212  26.412  10.477  1.00  0.00     0.089 A
HETATM   11  C6  UNL     1       0.453  26.273   9.136  1.00  0.00     0.040 A
HETATM   12  C5  UNL     1       0.605  27.404   8.416  1.00  0.00     0.024 A
HETATM   13  C4  UNL     1       0.504  28.582   9.091  1.00  0.00     0.031 A
HETATM   14  S1  UNL     1       0.202  28.098  10.697  1.00  0.00    -0.069 SA
BRANCH  13  15
HETATM   15  C3  UNL     1       0.627  29.975   8.546  1.00  0.00     0.048 C
HETATM   16  N1  UNL     1       1.133  30.094   7.415  1.00  0.00    -0.272 N
ATOM     17  H1  UNL     1       1.416  29.225   6.961  1.00  0.00     0.194 HD
BRANCH  15  18
HETATM   18  C2  UNL     1       0.150  31.091   9.379  1.00  0.00     0.056 C
HETATM   19  C1  UNL     1      -1.264  31.484   9.191  1.00  0.00     0.011 C
ENDBRANCH  15  18
BRANCH  16  20
HETATM   20  O1  UNL     1       1.351  31.202   6.723  1.00  0.00    -0.290 OA
ATOM     21  H1  UNL     1       0.963  32.061   6.844  1.00  0.00     0.244 HD
ENDBRANCH  16  20
ENDBRANCH  13  15
ENDBRANCH   8  10
ENDBRANCH   1   8
TORSDOF 5
ENDMDL