MODEL 4
REMARK VINA RESULT: -7.539736240      0.373      1.128
REMARK  4 active torsions:
REMARK  status: ('A' for Active; 'I' for Inactive)
REMARK    1  A    between atoms: S1_2  and  N1_5
REMARK    2  A    between atoms: C2_8  and  N2_9
REMARK    3  A    between atoms: N3_11  and  N4_13
REMARK    4  A    between atoms: N4_13  and  C3_15
ROOT
HETATM    1  N2  UNL     1       1.781  25.353  10.824  1.00  0.00    -0.267 N
ATOM      2  H2  UNL     1       2.563  24.915  11.311  1.00  0.00     0.190 HD
HETATM    3  N3  UNL     1       1.963  26.499  10.292  1.00  0.00    -0.241 N
ATOM      4  H3  UNL     1       2.874  26.952  10.364  1.00  0.00     0.208 HD
ENDROOT
BRANCH   1   5
HETATM    5  C2  UNL     1       0.540  24.651  10.771  1.00  0.00     0.188 A
HETATM    6  N1  UNL     1      -0.663  24.867  11.302  1.00  0.00    -0.101 N
HETATM    7  O4  UNL     1      -1.065  23.767  10.739  1.00  0.00    -0.226 OA
HETATM    8  C1  UNL     1       0.115  23.498  10.182  1.00  0.00     0.222 A
BRANCH   6   9
HETATM    9  S1  UNL     1      -1.417  26.038  12.304  1.00  0.00     0.237 S
HETATM   10  O1  UNL     1      -1.305  25.755  13.761  1.00  0.00    -0.576 OA
HETATM   11  O2  UNL     1      -0.736  27.384  12.061  1.00  0.00    -0.576 OA
HETATM   12  O3  UNL     1      -3.023  26.220  11.850  1.00  0.00    -0.576 OA
ENDBRANCH   6   9
ENDBRANCH   1   5
BRANCH   3  13
HETATM   13  N4  UNL     1       0.926  27.135   9.616  1.00  0.00    -0.286 N
ATOM     14  H4  UNL     1      -0.030  26.839   9.816  1.00  0.00     0.188 HD
BRANCH  13  15
HETATM   15  C3  UNL     1       1.117  28.167   8.667  1.00  0.00     0.049 A
HETATM   16  C4  UNL     1       1.884  27.893   7.542  1.00  0.00     0.031 A
HETATM   17  C5  UNL     1       2.087  28.887   6.600  1.00  0.00     0.002 A
HETATM   18  C6  UNL     1       1.556  30.155   6.731  1.00  0.00     0.000 A
HETATM   19  C7  UNL     1       0.793  30.417   7.856  1.00  0.00     0.002 A
HETATM   20  C8  UNL     1       0.586  29.436   8.795  1.00  0.00     0.031 A
ENDBRANCH  13  15
ENDBRANCH   3  13
TORSDOF 4
ENDMDL