MODEL 2
REMARK VINA RESULT: -7.027538424      1.438      1.806
REMARK  5 active torsions:
REMARK  status: ('A' for Active; 'I' for Inactive)
REMARK    1  A    between atoms: C2_2  and  C4_4
REMARK    2  A    between atoms: C2_2  and  N4_18
REMARK    3  A    between atoms: N2_7  and  N3_9
REMARK    4  A    between atoms: N3_9  and  C6_11
REMARK    5  A    between atoms: C9_14  and  O1_15
ROOT
HETATM    1  C4  UNL     1      -0.101  25.654  10.556  1.00  0.00     0.139 C
HETATM    2  C5  UNL     1      -0.818  26.227  11.646  1.00  0.00     0.117 C
HETATM    3  N1  UNL     1      -1.393  26.683  12.525  1.00  0.00    -0.190 NA
HETATM    4  N2  UNL     1      -0.042  26.234   9.412  1.00  0.00    -0.291 N
ATOM      5  H2  UNL     1       0.476  25.809   8.644  1.00  0.00     0.187 HD
ENDROOT
BRANCH   1   6
HETATM    6  C2  UNL     1       0.596  24.361  10.730  1.00  0.00     0.142 C
HETATM    7  C1  UNL     1       0.193  23.703  12.055  1.00  0.00     0.053 C
HETATM    8  C3  UNL     1       0.244  23.375   9.646  1.00  0.00     0.053 C
BRANCH   6   9
HETATM    9  N4  UNL     1       2.047  24.548  10.788  1.00  0.00    -0.139 N
HETATM   10  O2  UNL     1       2.773  23.732  11.384  1.00  0.00    -0.536 OA
HETATM   11  O3  UNL     1       2.637  25.630  10.186  1.00  0.00    -0.536 OA
ENDBRANCH   6   9
ENDBRANCH   1   6
BRANCH   4  12
HETATM   12  N3  UNL     1      -0.693  27.449   9.234  1.00  0.00    -0.293 N
ATOM     13  H3  UNL     1      -1.658  27.570   9.542  1.00  0.00     0.187 HD
BRANCH  12  14
HETATM   14  C6  UNL     1       0.017  28.537   8.604  1.00  0.00     0.091 A
HETATM   15  C7  UNL     1       0.846  28.486   7.518  1.00  0.00     0.042 A
HETATM   16  C8  UNL     1       1.397  29.634   7.109  1.00  0.00     0.047 A
HETATM   17  C9  UNL     1       1.086  30.768   7.814  1.00  0.00     0.109 A
HETATM   18  S1  UNL     1       0.034  30.188   9.023  1.00  0.00    -0.047 SA
BRANCH  17  19
HETATM   19  O1  UNL     1       1.548  32.080   7.566  1.00  0.00    -0.354 OA
ATOM     20  H1  UNL     1       2.441  32.397   7.637  1.00  0.00     0.218 HD
ENDBRANCH  17  19
ENDBRANCH  12  14
ENDBRANCH   4  12
TORSDOF 5
ENDMDL