MODEL 1
REMARK VINA RESULT: -5.302421768      0.000      0.000
REMARK  4 active torsions:
REMARK  status: ('A' for Active; 'I' for Inactive)
REMARK    1  A    between atoms: C2_2  and  S1_3
REMARK    2  A    between atoms: S1_3  and  C3_4
REMARK    3  A    between atoms: C4_7  and  C5_8
REMARK    4  A    between atoms: C5_8  and  C7_11
ROOT
HETATM    1  C5  UNL     1       0.388  28.068   8.755  1.00  0.00     0.136 C
HETATM    2  C6  UNL     1       0.160  29.451   9.180  1.00  0.00     0.067 C
HETATM    3  N2  UNL     1      -0.038  30.542   9.501  1.00  0.00    -0.197 NA
ENDROOT
BRANCH   1   4
HETATM    4  C4  UNL     1       0.389  27.215   9.981  1.00  0.00     0.170 C
HETATM    5  N1  UNL     1      -0.897  26.712  10.237  1.00  0.00    -0.385 N
HETATM    6  C3  UNL     1      -1.006  25.803  11.297  1.00  0.00     0.214 C
ATOM      7  H1  UNL     1      -1.706  26.992   9.683  1.00  0.00     0.156 HD
HETATM    8  S4  UNL     1       0.347  24.564  11.171  1.00  0.00    -0.059 SA
HETATM    9  S3  UNL     1       1.487  25.749   9.760  1.00  0.00    -0.068 SA
BRANCH   6  10
HETATM   10  S1  UNL     1      -1.245  26.418  12.936  1.00  0.00    -0.133 SA
BRANCH  10  11
HETATM   11  C2  UNL     1      -1.935  25.292  14.129  1.00  0.00     0.072 C
HETATM   12  C1  UNL     1      -0.828  24.892  15.104  1.00  0.00     0.016 C
ENDBRANCH  10  11
ENDBRANCH   6  10
ENDBRANCH   1   4
BRANCH   1  13
HETATM   13  C7  UNL     1       1.616  27.936   7.909  1.00  0.00     0.108 C
HETATM   14  S2  UNL     1       1.755  29.240   6.663  1.00  0.00    -0.096 SA
ENDBRANCH   1  13
TORSDOF 4
ENDMDL