MODEL 4
REMARK VINA RESULT: -6.182875833      1.345      2.124
REMARK  3 active torsions:
REMARK  status: ('A' for Active; 'I' for Inactive)
REMARK       I    between atoms: C2_2  and  N1_4
REMARK       I    between atoms: N1_4  and  C3_6
REMARK    1  A    between atoms: C3_6  and  C4_8
REMARK       I    between atoms: C4_8  and  N2_10
REMARK    2  A    between atoms: N2_10  and  N3_12
REMARK    3  A    between atoms: C5_14  and  C6_15
ROOT
HETATM    1  C4  UNL     1      50.752  36.619   0.797  1.00  0.00     0.328 C
HETATM    2  O3  UNL     1      49.999  36.541   1.799  1.00  0.00    -0.261 OA
HETATM    3  N2  UNL     1      50.652  35.705  -0.271  1.00  0.00    -0.262 N
ATOM      4  H2  UNL     1      51.272  35.783  -1.077  1.00  0.00     0.190 HD
ENDROOT
BRANCH   3   5
HETATM    5  N3  UNL     1      49.696  34.694  -0.211  1.00  0.00    -0.308 N
HETATM    6  C5  UNL     1      48.487  34.852  -0.614  1.00  0.00     0.120 C
ATOM      7  H3  UNL     1      49.968  33.789   0.171  1.00  0.00     0.186 HD
BRANCH   6   8
HETATM    8  C6  UNL     1      47.497  33.789  -0.546  1.00  0.00     0.005 A
HETATM    9  C7  UNL     1      46.300  33.940   0.124  1.00  0.00     0.015 A
HETATM   10  C8  UNL     1      45.374  32.920   0.178  1.00  0.00     0.001 A
HETATM   11  C9  UNL     1      45.676  31.734  -0.461  1.00  0.00     0.002 A
HETATM   12  C10 UNL     1      46.874  31.568  -1.139  1.00  0.00     0.027 A
HETATM   13  C11 UNL     1      47.802  32.587  -1.193  1.00  0.00     0.058 A
HETATM   14  N4  UNL     1      49.041  32.457  -1.876  1.00  0.00    -0.102 NA
ENDBRANCH   6   8
ENDBRANCH   3   5
BRANCH   1  15
HETATM   15  C3  UNL     1      51.773  37.699   0.735  1.00  0.00     0.317 C
HETATM   16  N1  UNL     1      52.638  37.762  -0.370  1.00  0.00    -0.290 N
HETATM   17  C2  UNL     1      53.624  38.762  -0.484  1.00  0.00     0.220 C
ATOM     18  H1  UNL     1      52.551  37.066  -1.110  1.00  0.00     0.172 HD
HETATM   19  C1  UNL     1      53.838  39.820   0.531  1.00  0.00     0.117 C
HETATM   20  O1  UNL     1      54.376  38.749  -1.527  1.00  0.00    -0.274 OA
HETATM   21  O2  UNL     1      51.862  38.540   1.650  1.00  0.00    -0.262 OA
ENDBRANCH   1  15
TORSDOF 3
ENDMDL