MODEL 2
REMARK VINA RESULT: -6.899182018      1.072      1.295
REMARK  5 active torsions:
REMARK  status: ('A' for Active; 'I' for Inactive)
REMARK    1  A    between atoms: S1_2  and  C2_3
REMARK    2  A    between atoms: C2_3  and  N2_7
REMARK    3  A    between atoms: N2_7  and  C3_9
REMARK    4  A    between atoms: C4_10  and  O1_11
REMARK    5  A    between atoms: C5_15  and  N4_16
ROOT
HETATM    1  C3  UNL     1      47.980  33.907  -0.297  1.00  0.00     0.208 C
HETATM    2  C4  UNL     1      47.779  33.121  -1.529  1.00  0.00     0.143 C
HETATM    3  N3  UNL     1      46.770  32.352  -1.601  1.00  0.00    -0.329 N
ATOM      4  H3  UNL     1      46.654  31.821  -2.464  1.00  0.00     0.165 HD
HETATM    5  C5  UNL     1      45.785  32.163  -0.590  1.00  0.00     0.394 C
HETATM    6  N5  UNL     1      45.670  33.346   0.272  1.00  0.00    -0.314 N
HETATM    7  C6  UNL     1      44.472  33.535   0.899  1.00  0.00     0.095 A
HETATM    8  C7  UNL     1      44.272  34.612   1.732  1.00  0.00     0.017 A
HETATM    9  C8  UNL     1      45.340  35.469   1.886  1.00  0.00     0.003 A
HETATM   10  C9  UNL     1      46.541  35.264   1.246  1.00  0.00     0.028 A
HETATM   11  C10 UNL     1      46.716  34.167   0.410  1.00  0.00     0.045 A
ENDROOT
BRANCH   1  12
HETATM   12  N2  UNL     1      48.764  35.075  -0.563  1.00  0.00    -0.354 N
ATOM     13  H2  UNL     1      48.313  35.897  -0.962  1.00  0.00     0.162 HD
BRANCH  12  14
HETATM   14  C2  UNL     1      50.156  35.112  -0.285  1.00  0.00     0.134 C
HETATM   15  N1  UNL     1      51.017  34.419  -0.925  1.00  0.00    -0.380 N
ATOM     16  H12 UNL     1      52.017  34.445  -0.725  1.00  0.00     0.158 HD
ATOM     17  H11 UNL     1      50.719  33.800  -1.679  1.00  0.00     0.158 HD
BRANCH  14  18
HETATM   18  S1  UNL     1      50.680  36.197   1.037  1.00  0.00    -0.099 SA
HETATM   19  C1  UNL     1      51.652  37.590   0.384  1.00  0.00     0.099 C
ENDBRANCH  14  18
ENDBRANCH  12  14
ENDBRANCH   1  12
BRANCH   2  20
HETATM   20  O1  UNL     1      48.710  33.261  -2.556  1.00  0.00    -0.348 OA
ATOM     21  H1  UNL     1      49.628  33.135  -2.349  1.00  0.00     0.219 HD
ENDBRANCH   2  20
BRANCH   5  22
HETATM   22  N4  UNL     1      44.483  32.035  -1.265  1.00  0.00    -0.040 N
ATOM     23  H43 UNL     1      43.751  32.599  -0.832  1.00  0.00     0.279 HD
ATOM     24  H42 UNL     1      44.465  32.479  -2.184  1.00  0.00     0.279 HD
ATOM     25  H41 UNL     1      44.254  31.042  -1.298  1.00  0.00     0.279 HD
ENDBRANCH   5  22
TORSDOF 5
ENDMDL