MODEL 5
REMARK VINA RESULT: -5.288961382      1.774      4.815
REMARK  3 active torsions:
REMARK  status: ('A' for Active; 'I' for Inactive)
REMARK    1  A    between atoms: C2_2  and  N1_4
REMARK    2  A    between atoms: N1_4  and  C4_6
REMARK    3  A    between atoms: C10_15  and  N2_16
ROOT
HETATM    1  C4  UNL     1      47.754  33.080   0.611  1.00  0.00     0.245 C
HETATM    2  O1  UNL     1      48.617  33.973   1.170  1.00  0.00    -0.332 OA
HETATM    3  C5  UNL     1      49.887  33.511   0.873  1.00  0.00     0.297 C
HETATM    4  O2  UNL     1      50.842  34.482   0.972  1.00  0.00    -0.323 OA
HETATM    5  C6  UNL     1      50.984  35.068  -0.290  1.00  0.00     0.160 C
HETATM    6  C7  UNL     1      51.210  36.525  -0.113  1.00  0.00     0.078 C
HETATM    7  C8  UNL     1      52.160  34.398  -0.983  1.00  0.00     0.078 C
HETATM    8  O3  UNL     1      49.815  34.725  -0.998  1.00  0.00    -0.343 OA
HETATM    9  C9  UNL     1      49.716  33.395  -0.685  1.00  0.00     0.207 C
HETATM   10  C10 UNL     1      48.443  32.678  -0.722  1.00  0.00     0.166 C
ENDROOT
BRANCH   1  11
HETATM   11  N1  UNL     1      46.465  33.668   0.263  1.00  0.00    -0.391 N
ATOM     12  H1  UNL     1      46.140  33.735  -0.702  1.00  0.00     0.156 HD
BRANCH  11  13
HETATM   13  C2  UNL     1      45.698  34.138   1.356  1.00  0.00     0.071 C
HETATM   14  C1  UNL     1      45.848  35.639   1.498  1.00  0.00     0.031 C
HETATM   15  C3  UNL     1      44.212  33.879   1.239  1.00  0.00     0.031 C
ENDBRANCH  11  13
ENDBRANCH   1  11
BRANCH  10  16
HETATM   16  N2  UNL     1      47.589  32.684  -1.790  1.00  0.00    -0.355 N
HETATM   17  C11 UNL     1      46.751  31.898  -2.234  1.00  0.00     0.197 C
HETATM   18  N3  UNL     1      46.404  30.643  -1.714  1.00  0.00    -0.067 NA
HETATM   19  N4  UNL     1      46.001  32.315  -3.394  1.00  0.00    -0.067 NA
ATOM     20  H2  UNL     1      47.662  33.536  -2.346  1.00  0.00     0.162 HD
ENDBRANCH  10  16
TORSDOF 3
ENDMDL