MODEL 2
REMARK VINA RESULT: -8.059314980      1.309      1.662
REMARK  5 active torsions:
REMARK  status: ('A' for Active; 'I' for Inactive)
REMARK    1  A    between atoms: O1_1  and  N1_3
REMARK    2  A    between atoms: C1_4  and  C2_5
REMARK    3  A    between atoms: C2_5  and  N2_6
REMARK    4  A    between atoms: N2_6  and  N3_8
REMARK    5  A    between atoms: N3_8  and  C3_10
ROOT
HETATM    1  C2  UNL     1      46.253  31.688  -1.391  1.00  0.00     0.158 C
ENDROOT
BRANCH   1   2
HETATM    2  C1  UNL     1      45.847  32.693  -0.442  1.00  0.00     0.151 A
HETATM    3  N1  UNL     1      46.554  33.797  -0.109  1.00  0.00    -0.205 N
HETATM    4  C9  UNL     1      45.871  34.496   0.796  1.00  0.00     0.091 A
HETATM    5  C4  UNL     1      44.693  33.840   1.063  1.00  0.00     0.063 A
HETATM    6  C8  UNL     1      46.146  35.695   1.460  1.00  0.00     0.034 A
HETATM    7  N8  UNL     1      44.719  32.725   0.273  1.00  0.00    -0.338 N
HETATM    8  C5  UNL     1      43.789  34.355   1.976  1.00  0.00     0.032 A
ATOM      9  H8  UNL     1      43.983  32.019   0.235  1.00  0.00     0.167 HD
HETATM   10  C6  UNL     1      44.032  35.536   2.647  1.00  0.00     0.002 A
HETATM   11  C7  UNL     1      45.225  36.174   2.359  1.00  0.00     0.002 A
BRANCH   3  12
HETATM   12  O1  UNL     1      47.770  34.164  -0.602  1.00  0.00    -0.281 OA
ATOM     13  H1  UNL     1      48.067  34.081  -1.501  1.00  0.00     0.245 HD
ENDBRANCH   3  12
ENDBRANCH   1   2
BRANCH   1  14
HETATM   14  N2  UNL     1      47.219  30.885  -1.216  1.00  0.00    -0.294 N
ATOM     15  H2  UNL     1      47.170  30.052  -1.804  1.00  0.00     0.186 HD
BRANCH  14  16
HETATM   16  N3  UNL     1      48.301  30.914  -0.405  1.00  0.00    -0.130 N
ATOM     17  H3  UNL     1      48.371  30.218   0.338  1.00  0.00     0.205 HD
BRANCH  16  18
HETATM   18  C3  UNL     1      49.249  31.781  -0.526  1.00  0.00     0.728 A
HETATM   19  N4  UNL     1      49.862  32.436   0.472  1.00  0.00    -0.114 N
HETATM   20  N5  UNL     1      50.773  33.230  -0.089  1.00  0.00    -0.213 N
ATOM     21  H4  UNL     1      49.667  32.344   1.469  1.00  0.00     0.207 HD
HETATM   22  N6  UNL     1      50.755  33.097  -1.401  1.00  0.00    -0.213 N
ATOM     23  H5  UNL     1      51.398  33.853   0.424  1.00  0.00     0.210 HD
HETATM   24  N7  UNL     1      49.820  32.210  -1.663  1.00  0.00    -0.114 N
ATOM     25  H6  UNL     1      51.344  33.585  -2.075  1.00  0.00     0.210 HD
ATOM     26  H7  UNL     1      49.566  31.892  -2.598  1.00  0.00     0.207 HD
ENDBRANCH  16  18
ENDBRANCH  14  16
ENDBRANCH   1  14
TORSDOF 5
ENDMDL