MODEL 1
REMARK VINA RESULT: -7.001689745      0.000      0.000
REMARK  4 active torsions:
REMARK  status: ('A' for Active; 'I' for Inactive)
REMARK       I    between atoms: C1_4  and  N2_5
REMARK       I    between atoms: C1_4  and  N5_17
REMARK    1  A    between atoms: N2_5  and  C2_7
REMARK    2  A    between atoms: C6_11  and  N3_12
REMARK    3  A    between atoms: N5_17  and  N6_19
REMARK       I    between atoms: N6_19  and  C7_21
REMARK    4  A    between atoms: C7_21  and  C8_23
ROOT
HETATM    1  N1  UNL     1      45.472  31.706  -2.226  1.00  0.00    -0.233 N
ATOM      2  H11 UNL     1      44.702  31.065  -2.035  1.00  0.00     0.174 HD
ATOM      3  H12 UNL     1      45.852  31.927  -3.146  1.00  0.00     0.174 HD
HETATM    4  C1  UNL     1      46.020  32.307  -1.208  1.00  0.00     0.692 C
HETATM    5  N2  UNL     1      47.078  33.187  -1.470  1.00  0.00    -0.176 N
ATOM      6  H2  UNL     1      46.855  34.090  -1.889  1.00  0.00     0.186 HD
HETATM    7  N5  UNL     1      45.498  32.004   0.057  1.00  0.00    -0.129 N
ATOM      8  H5  UNL     1      45.864  31.203   0.572  1.00  0.00     0.205 HD
ENDROOT
BRANCH   5   9
HETATM    9  C2  UNL     1      48.316  32.928  -1.214  1.00  0.00     0.122 A
HETATM   10  C3  UNL     1      48.809  31.655  -1.034  1.00  0.00     0.049 A
HETATM   11  C4  UNL     1      50.135  31.379  -0.762  1.00  0.00     0.008 A
HETATM   12  C5  UNL     1      50.991  32.483  -0.673  1.00  0.00     0.055 A
HETATM   13  C6  UNL     1      50.499  33.762  -0.852  1.00  0.00     0.175 A
HETATM   14  N4  UNL     1      49.195  33.951  -1.114  1.00  0.00    -0.323 N
ATOM     15  H4  UNL     1      48.855  34.904  -1.243  1.00  0.00     0.169 HD
BRANCH  13  16
HETATM   16  N3  UNL     1      51.400  34.850  -0.752  1.00  0.00    -0.098 N
HETATM   17  O1  UNL     1      52.393  34.943  -1.486  1.00  0.00    -0.531 OA
HETATM   18  O2  UNL     1      51.157  35.819   0.183  1.00  0.00    -0.531 OA
ENDBRANCH  13  16
ENDBRANCH   5   9
BRANCH   7  19
HETATM   19  N6  UNL     1      44.494  32.772   0.618  1.00  0.00    -0.250 N
HETATM   20  C7  UNL     1      44.764  34.043   1.177  1.00  0.00     0.297 C
HETATM   21  O3  UNL     1      45.899  34.576   1.219  1.00  0.00    -0.263 OA
ATOM     22  H6  UNL     1      43.539  32.415   0.629  1.00  0.00     0.191 HD
BRANCH  20  23
HETATM   23  C8  UNL     1      43.653  34.822   1.764  1.00  0.00     0.334 C
HETATM   24  O4  UNL     1      43.879  35.910   2.381  1.00  0.00    -0.296 OA
ENDBRANCH  20  23
ENDBRANCH   7  19
TORSDOF 4
ENDMDL