MODEL 4
REMARK VINA RESULT: -6.415295097      1.632      2.083
REMARK  6 active torsions:
REMARK  status: ('A' for Active; 'I' for Inactive)
REMARK    1  A    between atoms: O1_2  and  C2_3
REMARK    2  A    between atoms: C5_6  and  C6_7
REMARK       I    between atoms: C6_7  and  N1_9
REMARK    3  A    between atoms: N1_9  and  N2_11
REMARK    4  A    between atoms: N2_11  and  C7_13
REMARK    5  A    between atoms: C7_13  and  O3_14
REMARK    6  A    between atoms: C7_13  and  N3_16
REMARK       I    between atoms: N3_16  and  C8_18
ROOT
HETATM    1  C6  UNL     1      49.752  34.353   0.637  1.00  0.00     0.271 C
HETATM    2  O2  UNL     1      50.596  33.611   1.182  1.00  0.00    -0.266 OA
HETATM    3  N1  UNL     1      50.040  35.711   0.414  1.00  0.00    -0.263 N
ATOM      4  H1  UNL     1      49.364  36.332  -0.031  1.00  0.00     0.190 HD
ENDROOT
BRANCH   3   5
HETATM    5  N2  UNL     1      51.314  36.181   0.834  1.00  0.00    -0.262 N
ATOM      6  H2  UNL     1      52.020  35.527   1.173  1.00  0.00     0.190 HD
BRANCH   5   7
HETATM    7  C7  UNL     1      51.585  37.538   0.777  1.00  0.00     0.238 C
BRANCH   7   8
HETATM    8  O3  UNL     1      51.008  38.287   1.674  1.00  0.00    -0.331 OA
ATOM      9  H3  UNL     1      51.223  38.107   2.582  1.00  0.00     0.221 HD
ENDBRANCH   7   8
BRANCH   7  10
HETATM   10  N3  UNL     1      52.421  38.136  -0.165  1.00  0.00    -0.292 N
HETATM   11  C8  UNL     1      53.350  39.129   0.092  1.00  0.00     0.220 C
HETATM   12  C9  UNL     1      54.170  39.641  -1.076  1.00  0.00     0.117 C
HETATM   13  O4  UNL     1      53.585  39.654   1.217  1.00  0.00    -0.274 OA
ATOM     14  H3  UNL     1      52.340  37.814  -1.129  1.00  0.00     0.172 HD
ENDBRANCH   7  10
ENDBRANCH   5   7
ENDBRANCH   3   5
BRANCH   1  15
HETATM   15  C5  UNL     1      48.477  33.769   0.248  1.00  0.00     0.049 A
HETATM   16  C4  UNL     1      47.246  34.328   0.581  1.00  0.00     0.022 A
HETATM   17  C3  UNL     1      46.060  33.740   0.186  1.00  0.00     0.057 A
HETATM   18  C2  UNL     1      46.083  32.584  -0.549  1.00  0.00     0.141 A
HETATM   19  N4  UNL     1      47.260  32.039  -0.875  1.00  0.00    -0.346 N
HETATM   20  C10 UNL     1      48.421  32.597  -0.499  1.00  0.00     0.107 A
ATOM     21  H4  UNL     1      47.275  31.179  -1.422  1.00  0.00     0.167 HD
BRANCH  18  22
HETATM   22  O1  UNL     1      44.930  31.984  -0.951  1.00  0.00    -0.341 OA
HETATM   23  C1  UNL     1      44.769  31.520  -2.273  1.00  0.00     0.211 C
ENDBRANCH  18  22
ENDBRANCH   1  15
TORSDOF 6
ENDMDL