MODEL 5
REMARK VINA RESULT: -4.065852381      1.544      1.544
REMARK  4 active torsions:
REMARK  status: ('A' for Active; 'I' for Inactive)
REMARK    1  A    between atoms: N2_3  and  C2_5
REMARK    2  A    between atoms: C2_5  and  N3_7
REMARK       I    between atoms: N3_7  and  C3_9
REMARK    3  A    between atoms: C3_9  and  C4_11
REMARK    4  A    between atoms: N4_12  and  N5_14
ROOT
HETATM    1  N1  UNL     1      52.787  39.991   2.147  1.00  0.00    -0.172 NA
HETATM    2  C1  UNL     1      52.127  39.047   2.011  1.00  0.00     0.184 C
HETATM    3  N2  UNL     1      51.346  37.896   1.861  1.00  0.00    -0.270 N
ATOM      4  H2  UNL     1      50.814  37.534   2.652  1.00  0.00     0.180 HD
ENDROOT
BRANCH   3   5
HETATM    5  C2  UNL     1      51.294  37.232   0.612  1.00  0.00     0.187 C
HETATM    6  S1  UNL     1      52.416  37.593  -0.523  1.00  0.00    -0.040 SA
BRANCH   5   7
HETATM    7  N3  UNL     1      50.272  36.266   0.366  1.00  0.00    -0.298 N
HETATM    8  C3  UNL     1      50.434  34.917   0.774  1.00  0.00     0.264 C
HETATM    9  O1  UNL     1      51.486  34.533   1.368  1.00  0.00    -0.267 OA
ATOM     10  H3  UNL     1      49.415  36.549  -0.110  1.00  0.00     0.171 HD
BRANCH   8  11
HETATM   11  C4  UNL     1      49.401  33.935   0.526  1.00  0.00     0.181 C
HETATM   12  N4  UNL     1      48.318  34.288  -0.059  1.00  0.00    -0.309 N
ATOM     13  H4  UNL     1      48.214  35.265  -0.336  1.00  0.00     0.186 HD
BRANCH  12  14
HETATM   14  N5  UNL     1      47.270  33.404  -0.339  1.00  0.00    -0.326 N
HETATM   15  C5  UNL     1      47.475  32.664  -1.569  1.00  0.00     0.144 C
HETATM   16  C6  UNL     1      46.727  31.363  -1.589  1.00  0.00     0.049 C
HETATM   17  C7  UNL     1      45.237  31.619  -1.685  1.00  0.00     0.234 C
HETATM   18  N6  UNL     1      44.732  31.727  -0.335  1.00  0.00    -0.073 N
HETATM   19  C8  UNL     1      44.872  33.084   0.090  1.00  0.00     0.253 C
ATOM     20  H62 UNL     1      43.775  31.384  -0.245  1.00  0.00     0.277 HD
ATOM     21  H61 UNL     1      45.176  31.068   0.305  1.00  0.00     0.277 HD
HETATM   22  C9  UNL     1      46.232  33.419   0.638  1.00  0.00     0.170 C
ENDBRANCH  12  14
ENDBRANCH   8  11
ENDBRANCH   5   7
ENDBRANCH   3   5
TORSDOF 4
ENDMDL