MODEL 1
REMARK VINA RESULT: -6.447642790      0.000      0.000
REMARK  4 active torsions:
REMARK  status: ('A' for Active; 'I' for Inactive)
REMARK    1  A    between atoms: N1_2  and  N2_3
REMARK       I    between atoms: N1_2  and  C2_6
REMARK       I    between atoms: C2_6  and  N3_8
REMARK    2  A    between atoms: N3_8  and  N4_10
REMARK       I    between atoms: N4_10  and  C3_12
REMARK    3  A    between atoms: C3_12  and  C4_14
REMARK    4  A    between atoms: C7_17  and  N5_18
ROOT
HETATM    1  N4  UNL     1      50.749  36.495   0.357  1.00  0.00    -0.262 N
ATOM      2  H4  UNL     1      49.853  36.641   0.822  1.00  0.00     0.190 HD
HETATM    3  C3  UNL     1      50.989  35.296  -0.340  1.00  0.00     0.270 C
HETATM    4  O2  UNL     1      52.135  35.152  -0.914  1.00  0.00    -0.266 OA
ENDROOT
BRANCH   1   5
HETATM    5  N3  UNL     1      51.726  37.478   0.413  1.00  0.00    -0.247 N
HETATM    6  C2  UNL     1      51.709  38.394   1.500  1.00  0.00     0.354 C
HETATM    7  N1  UNL     1      52.698  39.407   1.578  1.00  0.00    -0.253 N
HETATM    8  O1  UNL     1      50.813  38.308   2.402  1.00  0.00    -0.244 OA
HETATM    9  C1  UNL     1      53.690  39.464   0.515  1.00  0.00     0.182 C
ATOM     10  H3  UNL     1      52.442  37.542  -0.311  1.00  0.00     0.192 HD
BRANCH   7  11
HETATM   11  N2  UNL     1      52.684  40.290   2.637  1.00  0.00    -0.339 N
ATOM     12  H22 UNL     1      53.220  41.155   2.577  1.00  0.00     0.177 HD
ATOM     13  H21 UNL     1      52.158  40.118   3.494  1.00  0.00     0.177 HD
ENDBRANCH   7  11
ENDBRANCH   1   5
BRANCH   3  14
HETATM   14  C4  UNL     1      50.020  34.208  -0.452  1.00  0.00     0.033 A
HETATM   15  C5  UNL     1      50.126  33.059   0.306  1.00  0.00     0.019 A
HETATM   16  C6  UNL     1      49.205  32.021   0.201  1.00  0.00     0.037 A
HETATM   17  C7  UNL     1      48.149  32.120  -0.679  1.00  0.00     0.102 A
HETATM   18  C8  UNL     1      48.053  33.270  -1.430  1.00  0.00     0.037 A
HETATM   19  C9  UNL     1      48.975  34.316  -1.328  1.00  0.00     0.019 A
BRANCH  17  20
HETATM   20  N5  UNL     1      47.207  31.067  -0.795  1.00  0.00    -0.116 N
HETATM   21  O3  UNL     1      47.549  29.913  -0.484  1.00  0.00    -0.532 OA
HETATM   22  O4  UNL     1      45.930  31.269  -1.237  1.00  0.00    -0.532 OA
ENDBRANCH  17  20
ENDBRANCH   3  14
TORSDOF 4
ENDMDL