MODEL 2
REMARK VINA RESULT: -8.354121613      0.976      2.839
REMARK  2 active torsions:
REMARK  status: ('A' for Active; 'I' for Inactive)
REMARK    1  A    between atoms: C1_2  and  C2_4
REMARK    2  A    between atoms: C4_6  and  C5_7
REMARK       I    between atoms: C5_7  and  N2_9
ROOT
HETATM    1  C2  UNL     1      46.469  32.497  -1.225  1.00  0.00     0.061 A
HETATM    2  C3  UNL     1      47.733  33.005  -1.422  1.00  0.00     0.036 A
HETATM    3  C4  UNL     1      48.243  34.043  -0.685  1.00  0.00     0.035 A
HETATM    4  C7  UNL     1      47.456  34.599   0.295  1.00  0.00     0.051 A
HETATM    5  C8  UNL     1      46.186  34.126   0.531  1.00  0.00     0.087 A
HETATM    6  N5  UNL     1      45.209  34.463   1.399  1.00  0.00    -0.239 N
ATOM      7  H5  UNL     1      45.258  35.204   2.098  1.00  0.00     0.197 HD
HETATM    8  O3  UNL     1      44.196  33.678   1.186  1.00  0.00    -0.156 OA
HETATM    9  N6  UNL     1      44.467  32.849   0.222  1.00  0.00    -0.239 N
ATOM     10  H6  UNL     1      43.834  32.133  -0.133  1.00  0.00     0.197 HD
HETATM   11  C9  UNL     1      45.710  33.081  -0.234  1.00  0.00     0.100 A
ENDROOT
BRANCH   3  12
HETATM   12  C5  UNL     1      49.608  34.560  -0.929  1.00  0.00     0.257 C
HETATM   13  O2  UNL     1      50.408  33.840  -1.580  1.00  0.00    -0.267 OA
HETATM   14  N2  UNL     1      49.969  35.837  -0.425  1.00  0.00    -0.299 N
HETATM   15  C6  UNL     1      50.809  35.922   0.542  1.00  0.00     0.203 C
ATOM     16  H2  UNL     1      49.564  36.682  -0.828  1.00  0.00     0.171 HD
HETATM   17  N3  UNL     1      51.366  34.752   1.095  1.00  0.00    -0.066 NA
HETATM   18  N4  UNL     1      51.157  37.199   1.031  1.00  0.00    -0.066 NA
ENDBRANCH   3  12
BRANCH   1  19
HETATM   19  C1  UNL     1      45.896  31.399  -1.987  1.00  0.00     0.267 C
HETATM   20  N1  UNL     1      44.763  31.531  -2.801  1.00  0.00    -0.057 NA
HETATM   21  O1  UNL     1      46.495  30.277  -1.875  1.00  0.00    -0.271 OA
ENDBRANCH   1  19
TORSDOF 2
ENDMDL