MODEL 5
REMARK VINA RESULT: -4.950922316      1.784      5.399
REMARK  5 active torsions:
REMARK  status: ('A' for Active; 'I' for Inactive)
REMARK    1  A    between atoms: N2_3  and  C2_5
REMARK    2  A    between atoms: C2_5  and  N3_7
REMARK    3  A    between atoms: N3_7  and  N4_9
REMARK       I    between atoms: N4_9  and  C3_11
REMARK    4  A    between atoms: C3_11  and  C4_13
REMARK    5  A    between atoms: C4_13  and  N5_14
ROOT
HETATM    1  N1  UNL     1      51.782  34.692  -1.646  1.00  0.00    -0.172 NA
HETATM    2  C1  UNL     1      51.059  33.773  -1.655  1.00  0.00     0.184 C
HETATM    3  N2  UNL     1      50.186  32.672  -1.677  1.00  0.00    -0.269 N
ATOM      4  H2  UNL     1      50.192  32.043  -2.479  1.00  0.00     0.180 HD
ENDROOT
BRANCH   3   5
HETATM    5  C2  UNL     1      49.292  32.421  -0.594  1.00  0.00     0.199 C
HETATM    6  S1  UNL     1      48.002  31.461  -0.841  1.00  0.00    -0.038 SA
BRANCH   5   7
HETATM    7  N3  UNL     1      49.531  33.000   0.679  1.00  0.00    -0.273 N
ATOM      8  H3  UNL     1      50.480  32.963   1.050  1.00  0.00     0.189 HD
BRANCH   7   9
HETATM    9  N4  UNL     1      48.564  33.608   1.442  1.00  0.00    -0.266 N
HETATM   10  C3  UNL     1      48.220  35.003   1.280  1.00  0.00     0.264 C
HETATM   11  O1  UNL     1      48.829  35.668   0.413  1.00  0.00    -0.270 OA
ATOM     12  H4  UNL     1      48.073  33.058   2.146  1.00  0.00     0.190 HD
BRANCH  10  13
HETATM   13  C4  UNL     1      47.186  35.610   2.115  1.00  0.00     0.377 C
BRANCH  13  14
HETATM   14  N5  UNL     1      46.000  35.851   1.391  1.00  0.00     0.107 N
HETATM   15  C5  UNL     1      45.070  36.631   2.109  1.00  0.00     0.284 C
HETATM   16  C6  UNL     1      44.348  35.707   3.117  1.00  0.00     0.105 C
HETATM   17  S2  UNL     1      44.189  34.213   2.091  1.00  0.00    -0.138 SA
HETATM   18  C7  UNL     1      45.380  34.722   0.786  1.00  0.00     0.346 C
ENDBRANCH  13  14
ENDBRANCH  10  13
ENDBRANCH   7   9
ENDBRANCH   5   7
ENDBRANCH   3   5
TORSDOF 5
ENDMDL