MODEL 5
REMARK VINA RESULT: -6.347925467      3.015      5.254
REMARK  4 active torsions:
REMARK  status: ('A' for Active; 'I' for Inactive)
REMARK    1  A    between atoms: C1_2  and  N2_4
REMARK    2  A    between atoms: N2_4  and  N3_6
REMARK       I    between atoms: N3_6  and  C2_8
REMARK    3  A    between atoms: C2_8  and  C3_10
REMARK    4  A    between atoms: C3_10  and  N4_11
ROOT
HETATM    1  N4  UNL     1      47.742  32.648  -1.889  1.00  0.00    -0.319 N
HETATM    2  C4  UNL     1      47.741  33.270  -3.083  1.00  0.00     0.185 A
HETATM    3  N5  UNL     1      48.917  33.894  -3.262  1.00  0.00    -0.349 N
ATOM      4  H5  UNL     1      49.186  34.446  -4.076  1.00  0.00     0.166 HD
HETATM    5  C5  UNL     1      49.680  33.660  -2.166  1.00  0.00     0.077 A
HETATM    6  C6  UNL     1      50.974  34.073  -1.832  1.00  0.00     0.035 A
HETATM    7  C7  UNL     1      51.441  33.648  -0.607  1.00  0.00     0.019 A
HETATM    8  C8  UNL     1      50.722  32.870   0.267  1.00  0.00     0.090 A
HETATM    9  N6  UNL     1      49.489  32.517  -0.129  1.00  0.00    -0.350 N
ATOM     10  H6  UNL     1      48.930  31.938   0.499  1.00  0.00     0.166 HD
HETATM   11  C9  UNL     1      48.952  32.879  -1.299  1.00  0.00     0.136 A
ENDROOT
BRANCH   1  12
HETATM   12  C3  UNL     1      46.717  31.872  -1.265  1.00  0.00     0.235 C
BRANCH  12  13
HETATM   13  C2  UNL     1      45.832  32.557  -0.330  1.00  0.00     0.254 C
HETATM   14  N3  UNL     1      46.035  33.906   0.069  1.00  0.00    -0.267 N
ATOM     15  H3  UNL     1      46.834  34.388  -0.341  1.00  0.00     0.190 HD
HETATM   16  O1  UNL     1      44.842  31.930   0.153  1.00  0.00    -0.270 OA
BRANCH  14  17
HETATM   17  N2  UNL     1      45.263  34.628   0.950  1.00  0.00    -0.276 N
ATOM     18  H2  UNL     1      44.262  34.437   0.927  1.00  0.00     0.189 HD
BRANCH  17  19
HETATM   19  C1  UNL     1      45.685  35.599   1.879  1.00  0.00     0.199 C
HETATM   20  N1  UNL     1      47.076  35.844   2.133  1.00  0.00    -0.068 NA
HETATM   21  S1  UNL     1      44.584  36.483   2.693  1.00  0.00    -0.043 SA
ENDBRANCH  17  19
ENDBRANCH  14  17
ENDBRANCH  12  13
ENDBRANCH   1  12
TORSDOF 4
ENDMDL