MODEL 1
REMARK VINA RESULT: -6.654778106      0.000      0.000
REMARK  4 active torsions:
REMARK  status: ('A' for Active; 'I' for Inactive)
REMARK    1  A    between atoms: C1_2  and  N1_3
REMARK    2  A    between atoms: C1_2  and  N4_13
REMARK    3  A    between atoms: N1_3  and  N2_5
REMARK    4  A    between atoms: N4_13  and  N5_15
ROOT
HETATM    1  S1  UNL     1      44.867  31.952  -2.611  1.00  0.00    -0.038 SA
HETATM    2  C1  UNL     1      46.004  32.315  -1.507  1.00  0.00     0.201 C
ENDROOT
BRANCH   2   3
HETATM    3  N1  UNL     1      45.723  32.177  -0.132  1.00  0.00    -0.274 N
ATOM      4  H1  UNL     1      46.283  31.552   0.447  1.00  0.00     0.189 HD
BRANCH   3   5
HETATM    5  N2  UNL     1      44.672  32.903   0.431  1.00  0.00    -0.284 N
HETATM    6  C2  UNL     1      44.918  34.033   1.013  1.00  0.00     0.115 A
HETATM    7  C3  UNL     1      43.965  34.926   1.653  1.00  0.00     0.047 A
HETATM    8  N3  UNL     1      46.184  34.656   1.155  1.00  0.00    -0.372 N
HETATM    9  C4  UNL     1      44.567  35.993   2.143  1.00  0.00    -0.004 A
HETATM   10  C5  UNL     1      45.996  35.895   1.864  1.00  0.00     0.148 A
ATOM     11  H3  UNL     1      47.073  34.291   0.815  1.00  0.00     0.161 HD
ATOM     12  H2  UNL     1      43.717  32.547   0.384  1.00  0.00     0.188 HD
ENDBRANCH   3   5
ENDBRANCH   2   3
BRANCH   2  13
HETATM   13  N4  UNL     1      47.266  32.766  -1.948  1.00  0.00    -0.294 N
ATOM     14  H4  UNL     1      47.516  32.672  -2.932  1.00  0.00     0.183 HD
BRANCH  13  15
HETATM   15  N5  UNL     1      48.163  33.327  -1.078  1.00  0.00    -0.225 NA
HETATM   16  C6  UNL     1      48.720  34.581  -1.511  1.00  0.00     0.140 C
HETATM   17  C7  UNL     1      50.108  34.716  -0.908  1.00  0.00     0.183 C
HETATM   18  O1  UNL     1      50.978  33.738  -1.347  1.00  0.00    -0.389 OA
HETATM   19  C8  UNL     1      50.392  32.488  -1.446  1.00  0.00     0.183 C
HETATM   20  C9  UNL     1      49.157  32.410  -0.579  1.00  0.00     0.140 C
ENDBRANCH  13  15
ENDBRANCH   2  13
TORSDOF 4
ENDMDL