MODEL 3
REMARK VINA RESULT: -6.406163249      1.838      3.283
REMARK  5 active torsions:
REMARK  status: ('A' for Active; 'I' for Inactive)
REMARK    1  A    between atoms: C3_3  and  C4_4
REMARK    2  A    between atoms: C3_3  and  C7_9
REMARK       I    between atoms: C4_4  and  N1_6
REMARK    3  A    between atoms: C7_9  and  C8_15
REMARK    4  A    between atoms: N2_10  and  N3_12
REMARK    5  A    between atoms: C13_20  and  N4_21
ROOT
HETATM    1  C1  UNL     1      47.243  33.059  -4.110  1.00  0.00     0.013 C
HETATM    2  C2  UNL     1      47.483  33.175  -2.926  1.00  0.00    -0.097 C
HETATM    3  C3  UNL     1      47.747  33.311  -1.484  1.00  0.00     0.209 C
ENDROOT
BRANCH   3   4
HETATM    4  C4  UNL     1      48.892  32.429  -1.193  1.00  0.00     0.240 C
HETATM    5  O1  UNL     1      48.714  31.243  -0.897  1.00  0.00    -0.272 OA
HETATM    6  N1  UNL     1      50.216  32.957  -1.258  1.00  0.00    -0.359 N
HETATM    7  C5  UNL     1      50.509  34.331  -1.596  1.00  0.00     0.152 C
HETATM    8  C6  UNL     1      51.347  32.095  -0.976  1.00  0.00     0.152 C
ENDBRANCH   3   4
BRANCH   3   9
HETATM    9  C7  UNL     1      46.558  33.093  -0.656  1.00  0.00     0.076 C
HETATM   10  N2  UNL     1      45.900  32.008  -0.769  1.00  0.00    -0.307 N
ATOM     11  H2  UNL     1      46.248  31.331  -1.448  1.00  0.00     0.186 HD
BRANCH  10  12
HETATM   12  N3  UNL     1      44.765  31.653  -0.066  1.00  0.00    -0.345 N
ATOM     13  H32 UNL     1      44.880  31.578   0.945  1.00  0.00     0.176 HD
ATOM     14  H31 UNL     1      43.842  31.461  -0.454  1.00  0.00     0.176 HD
ENDBRANCH  10  12
BRANCH   9  15
HETATM   15  C8  UNL     1      46.131  34.124   0.286  1.00  0.00     0.059 C
HETATM   16  C9  UNL     1      44.777  34.128   0.619  1.00  0.00     0.031 C
HETATM   17  C10 UNL     1      44.157  34.473   1.809  1.00  0.00     0.002 C
HETATM   18  C11 UNL     1      44.754  35.072   2.898  1.00  0.00     0.004 C
HETATM   19  C12 UNL     1      46.026  35.602   2.971  1.00  0.00     0.048 C
HETATM   20  C13 UNL     1      47.057  35.525   2.028  1.00  0.00     0.099 C
HETATM   21  N5  UNL     1      47.036  34.991   0.773  1.00  0.00    -0.341 N
ATOM     22  H5  UNL     1      47.782  35.278   0.141  1.00  0.00     0.167 HD
BRANCH  20  23
HETATM   23  N4  UNL     1      48.157  36.042   2.444  1.00  0.00    -0.385 N
ATOM     24  H42 UNL     1      49.031  35.679   2.064  1.00  0.00     0.157 HD
ATOM     25  H41 UNL     1      48.014  36.782   3.132  1.00  0.00     0.157 HD
ENDBRANCH  20  23
ENDBRANCH   9  15
ENDBRANCH   3   9
TORSDOF 5
ENDMDL