MODEL 1
REMARK VINA RESULT: -8.634475036      0.000      0.000
REMARK  4 active torsions:
REMARK  status: ('A' for Active; 'I' for Inactive)
REMARK       I    between atoms: N2_4  and  C1_6
REMARK       I    between atoms: C1_6  and  N4_11
REMARK    1  A    between atoms: N3_7  and  O1_9
REMARK    2  A    between atoms: C2_13  and  N5_14
REMARK    3  A    between atoms: C2_13  and  C4_23
REMARK    4  A    between atoms: N5_14  and  C3_16
ROOT
HETATM    1  N1  UNL     1      50.868  34.563   1.611  1.00  0.00    -0.331 N
ATOM      2  H11 UNL     1      51.706  34.356   2.154  1.00  0.00     0.177 HD
ATOM      3  H12 UNL     1      50.378  35.452   1.698  1.00  0.00     0.177 HD
HETATM    4  N2  UNL     1      50.432  33.674   0.802  1.00  0.00    -0.137 N
ATOM      5  H2  UNL     1      50.911  32.778   0.703  1.00  0.00     0.205 HD
HETATM    6  C1  UNL     1      49.255  33.964   0.038  1.00  0.00     0.717 C
HETATM    7  N3  UNL     1      49.101  35.192  -0.349  1.00  0.00    -0.097 N
ATOM      8  H3  UNL     1      48.271  35.426  -0.893  1.00  0.00     0.213 HD
HETATM    9  N4  UNL     1      48.279  33.024  -0.320  1.00  0.00    -0.172 N
ATOM     10  H4  UNL     1      48.627  32.242  -0.874  1.00  0.00     0.186 HD
HETATM   11  C2  UNL     1      47.043  32.982  -0.071  1.00  0.00     0.147 C
ENDROOT
BRANCH  11  12
HETATM   12  N5  UNL     1      46.319  31.861  -0.598  1.00  0.00    -0.173 N
ATOM     13  H5  UNL     1      46.302  30.988  -0.070  1.00  0.00     0.186 HD
BRANCH  12  14
HETATM   14  C3  UNL     1      45.690  31.928  -1.719  1.00  0.00     0.709 A
HETATM   15  N6  UNL     1      46.241  32.184  -2.918  1.00  0.00    -0.117 N
HETATM   16  N7  UNL     1      45.263  32.168  -3.826  1.00  0.00     0.006 NA
ATOM     17  H6  UNL     1      47.230  32.360  -3.100  1.00  0.00     0.202 HD
HETATM   18  N8  UNL     1      44.109  31.908  -3.238  1.00  0.00     0.006 NA
HETATM   19  N9  UNL     1      44.378  31.763  -1.951  1.00  0.00    -0.117 N
ATOM     20  H9  UNL     1      43.684  31.554  -1.234  1.00  0.00     0.202 HD
ENDBRANCH  12  14
ENDBRANCH  11  12
BRANCH  11  21
HETATM   21  C4  UNL     1      46.312  33.970   0.715  1.00  0.00     0.009 A
HETATM   22  C5  UNL     1      46.925  35.044   1.297  1.00  0.00     0.015 A
HETATM   23  C6  UNL     1      46.224  35.981   2.026  1.00  0.00     0.001 A
HETATM   24  C7  UNL     1      44.865  35.828   2.173  1.00  0.00     0.000 A
HETATM   25  C8  UNL     1      44.220  34.752   1.596  1.00  0.00     0.001 A
HETATM   26  C9  UNL     1      44.937  33.832   0.874  1.00  0.00     0.015 A
ENDBRANCH  11  21
BRANCH   7  27
HETATM   27  O1  UNL     1      49.988  36.189  -0.066  1.00  0.00    -0.276 OA
ATOM     28  H1  UNL     1      49.737  37.097   0.057  1.00  0.00     0.245 HD
ENDBRANCH   7  27
TORSDOF 4
ENDMDL