MODEL 3
REMARK VINA RESULT: -6.405605459      1.439      1.682
REMARK  4 active torsions:
REMARK  status: ('A' for Active; 'I' for Inactive)
REMARK    1  A    between atoms: C1_4  and  N2_5
REMARK    2  A    between atoms: C1_4  and  C8_18
REMARK    3  A    between atoms: N2_5  and  N3_7
REMARK       I    between atoms: N3_7  and  C2_9
REMARK    4  A    between atoms: C2_9  and  C3_11
ROOT
HETATM    1  N2  UNL     1      49.673  33.627   0.665  1.00  0.00    -0.283 N
ATOM      2  H2  UNL     1      50.510  33.926   1.167  1.00  0.00     0.188 HD
ENDROOT
BRANCH   1   3
HETATM    3  C1  UNL     1      49.814  32.747  -0.413  1.00  0.00     0.124 C
HETATM    4  N1  UNL     1      50.947  32.290  -0.744  1.00  0.00    -0.384 N
ATOM      5  H12 UNL     1      51.795  32.573  -0.253  1.00  0.00     0.157 HD
ATOM      6  H11 UNL     1      51.049  31.649  -1.530  1.00  0.00     0.157 HD
BRANCH   3   7
HETATM    7  C8  UNL     1      48.587  32.339  -1.123  1.00  0.00     0.011 A
HETATM    8  C9  UNL     1      48.153  33.036  -2.238  1.00  0.00     0.032 A
HETATM    9  C10 UNL     1      47.005  32.747  -2.936  1.00  0.00     0.088 A
HETATM   10  N6  UNL     1      46.276  31.717  -2.479  1.00  0.00    -0.375 N
HETATM   11  C11 UNL     1      46.639  31.000  -1.405  1.00  0.00     0.088 A
ATOM     12  H6  UNL     1      45.414  31.470  -2.967  1.00  0.00     0.164 HD
HETATM   13  C12 UNL     1      47.802  31.295  -0.703  1.00  0.00     0.032 A
ENDBRANCH   3   7
ENDBRANCH   1   3
BRANCH   1  14
HETATM   14  N3  UNL     1      48.442  34.108   1.079  1.00  0.00    -0.267 N
HETATM   15  C2  UNL     1      47.751  35.221   0.572  1.00  0.00     0.256 C
HETATM   16  O1  UNL     1      48.200  35.902  -0.350  1.00  0.00    -0.270 OA
ATOM     17  H3  UNL     1      47.987  33.598   1.836  1.00  0.00     0.190 HD
BRANCH  15  18
HETATM   18  C3  UNL     1      46.440  35.596   1.163  1.00  0.00     0.182 A
HETATM   19  C4  UNL     1      46.600  36.005   2.640  1.00  0.00     0.139 A
HETATM   20  N4  UNL     1      45.821  34.804   2.873  1.00  0.00    -0.247 NA
HETATM   21  C5  UNL     1      44.485  35.052   3.369  1.00  0.00     0.109 C
HETATM   22  N5  UNL     1      45.727  34.380   1.561  1.00  0.00    -0.235 NA
HETATM   23  C6  UNL     1      43.776  35.462   2.090  1.00  0.00     0.032 C
HETATM   24  C7  UNL     1      44.345  34.418   1.145  1.00  0.00     0.110 C
ENDBRANCH  15  18
ENDBRANCH   1  14
TORSDOF 4
ENDMDL