MODEL 2
REMARK VINA RESULT: -5.580444080      1.435      3.326
REMARK  3 active torsions:
REMARK  status: ('A' for Active; 'I' for Inactive)
REMARK    1  A    between atoms: N2_5  and  C4_6
REMARK    2  A    between atoms: C4_6  and  C5_7
REMARK    3  A    between atoms: C7_11  and  N4_12
ROOT
HETATM    1  N1  UNL     1      51.705  34.161  -1.483  1.00  0.00    -0.190 NA
HETATM    2  C1  UNL     1      50.697  33.888  -1.937  1.00  0.00     0.119 C
HETATM    3  C2  UNL     1      49.413  33.544  -2.509  1.00  0.00     0.129 A
HETATM    4  C3  UNL     1      48.369  33.075  -1.729  1.00  0.00     0.132 A
HETATM    5  N2  UNL     1      47.170  32.751  -2.242  1.00  0.00    -0.355 N
HETATM    6  C10 UNL     1      47.018  32.900  -3.571  1.00  0.00     0.108 A
HETATM    7  C11 UNL     1      48.039  33.366  -4.385  1.00  0.00     0.106 A
HETATM    8  N8  UNL     1      49.225  33.681  -3.836  1.00  0.00    -0.355 N
ATOM      9  H8  UNL     1      49.983  34.025  -4.425  1.00  0.00     0.166 HD
ENDROOT
BRANCH   5  10
HETATM   10  C4  UNL     1      46.064  32.263  -1.475  1.00  0.00     0.204 C
BRANCH  10  11
HETATM   11  C5  UNL     1      45.729  33.127  -0.324  1.00  0.00     0.102 A
HETATM   12  N3  UNL     1      46.578  33.942   0.326  1.00  0.00    -0.338 N
HETATM   13  C6  UNL     1      45.908  34.572   1.324  1.00  0.00     0.122 A
ATOM     14  H3  UNL     1      47.566  34.067   0.105  1.00  0.00     0.167 HD
HETATM   15  C7  UNL     1      46.270  35.492   2.281  1.00  0.00     0.131 A
HETATM   16  C9  UNL     1      44.605  34.093   1.239  1.00  0.00     0.138 A
HETATM   17  N5  UNL     1      45.364  35.942   3.151  1.00  0.00    -0.337 N
HETATM   18  C8  UNL     1      44.107  35.490   3.083  1.00  0.00     0.183 A
ATOM     19  H5  UNL     1      45.629  36.625   3.861  1.00  0.00     0.168 HD
HETATM   20  N6  UNL     1      43.754  34.593   2.149  1.00  0.00    -0.337 N
ATOM     21  H6  UNL     1      42.786  34.272   2.131  1.00  0.00     0.168 HD
HETATM   22  N7  UNL     1      44.509  33.211   0.229  1.00  0.00    -0.329 N
ATOM     23  H7  UNL     1      43.673  32.705  -0.061  1.00  0.00     0.168 HD
BRANCH  15  24
HETATM   24  N4  UNL     1      47.475  35.940   2.364  1.00  0.00    -0.383 N
ATOM     25  H42 UNL     1      47.918  36.297   1.518  1.00  0.00     0.157 HD
ATOM     26  H41 UNL     1      47.984  35.942   3.248  1.00  0.00     0.157 HD
ENDBRANCH  15  24
ENDBRANCH  10  11
ENDBRANCH   5  10
TORSDOF 3
ENDMDL