MODEL 3
REMARK VINA RESULT: -6.240317152      2.406      3.166
REMARK  5 active torsions:
REMARK  status: ('A' for Active; 'I' for Inactive)
REMARK    1  A    between atoms: C2_2  and  N2_5
REMARK    2  A    between atoms: N2_5  and  C4_7
REMARK    3  A    between atoms: C4_7  and  N3_9
REMARK    4  A    between atoms: N3_9  and  N4_11
REMARK       I    between atoms: N4_11  and  C5_13
REMARK    5  A    between atoms: C5_13  and  C6_15
ROOT
HETATM    1  C1  UNL     1      47.723  30.881  -0.716  1.00  0.00     0.048 C
HETATM    2  C2  UNL     1      47.503  32.230  -1.325  1.00  0.00     0.187 C
HETATM    3  C3  UNL     1      46.568  32.184  -2.453  1.00  0.00     0.084 C
HETATM    4  N1  UNL     1      45.824  32.153  -3.336  1.00  0.00    -0.195 NA
ENDROOT
BRANCH   2   5
HETATM    5  N2  UNL     1      48.764  32.820  -1.704  1.00  0.00    -0.349 N
ATOM      6  H2  UNL     1      48.895  33.187  -2.647  1.00  0.00     0.163 HD
BRANCH   5   7
HETATM    7  C4  UNL     1      49.836  32.888  -0.745  1.00  0.00     0.187 C
HETATM    8  S1  UNL     1      51.177  32.011  -0.976  1.00  0.00    -0.040 SA
BRANCH   7   9
HETATM    9  N3  UNL     1      49.693  33.721   0.378  1.00  0.00    -0.273 N
ATOM     10  H3  UNL     1      50.504  34.191   0.779  1.00  0.00     0.189 HD
BRANCH   9  11
HETATM   11  N4  UNL     1      48.428  33.897   0.937  1.00  0.00    -0.262 N
HETATM   12  C5  UNL     1      47.582  34.960   0.532  1.00  0.00     0.288 C
HETATM   13  O1  UNL     1      47.983  35.753  -0.343  1.00  0.00    -0.264 OA
ATOM     14  H4  UNL     1      48.104  33.246   1.653  1.00  0.00     0.190 HD
BRANCH  12  15
HETATM   15  C6  UNL     1      46.248  35.145   1.123  1.00  0.00     0.117 A
HETATM   16  C7  UNL     1      45.234  34.239   0.909  1.00  0.00     0.122 A
HETATM   17  N5  UNL     1      44.022  34.453   1.476  1.00  0.00    -0.372 N
HETATM   18  C8  UNL     1      43.754  35.521   2.248  1.00  0.00     0.104 A
ATOM     19  H5  UNL     1      43.280  33.773   1.309  1.00  0.00     0.164 HD
HETATM   20  C9  UNL     1      44.776  36.424   2.458  1.00  0.00     0.105 A
HETATM   21  N6  UNL     1      45.979  36.211   1.894  1.00  0.00    -0.359 N
ATOM     22  H6  UNL     1      46.720  36.891   2.061  1.00  0.00     0.165 HD
ENDBRANCH  12  15
ENDBRANCH   9  11
ENDBRANCH   7   9
ENDBRANCH   5   7
ENDBRANCH   2   5
TORSDOF 5
ENDMDL