MODEL 1
REMARK VINA RESULT: -5.829670803      0.000      0.000
REMARK  4 active torsions:
REMARK  status: ('A' for Active; 'I' for Inactive)
REMARK    1  A    between atoms: C6_6  and  C7_7
REMARK    2  A    between atoms: N1_8  and  N2_10
REMARK    3  A    between atoms: N2_10  and  C8_12
REMARK    4  A    between atoms: C9_21  and  C10_22
ROOT
HETATM    1  C1  UNL     1      44.018  31.365  -2.502  1.00  0.00     0.018 C
HETATM    2  C2  UNL     1      44.940  31.903  -1.926  1.00  0.00    -0.078 C
HETATM    3  C3  UNL     1      46.019  32.529  -1.228  1.00  0.00     0.018 A
HETATM    4  C4  UNL     1      47.327  32.184  -1.498  1.00  0.00     0.021 A
HETATM    5  C5  UNL     1      48.385  32.766  -0.848  1.00  0.00     0.015 A
HETATM    6  C6  UNL     1      48.111  33.751   0.132  1.00  0.00    -0.004 A
HETATM    7  C9  UNL     1      46.835  34.110   0.421  1.00  0.00     0.042 A
HETATM    8  C11 UNL     1      45.768  33.481  -0.280  1.00  0.00     0.038 A
ENDROOT
BRANCH   7   9
HETATM    9  C10 UNL     1      46.486  35.057   1.452  1.00  0.00     0.265 C
HETATM   10  N7  UNL     1      45.358  34.998   2.269  1.00  0.00    -0.057 NA
HETATM   11  O1  UNL     1      47.275  36.062   1.647  1.00  0.00    -0.271 OA
ENDBRANCH   7   9
BRANCH   6  12
HETATM   12  C7  UNL     1      49.265  34.360   0.722  1.00  0.00     0.120 C
HETATM   13  N1  UNL     1      49.717  35.487   0.241  1.00  0.00    -0.297 N
ATOM     14  H1  UNL     1      49.233  35.911  -0.550  1.00  0.00     0.186 HD
BRANCH  13  15
HETATM   15  N2  UNL     1      50.826  36.129   0.762  1.00  0.00    -0.130 N
ATOM     16  H2  UNL     1      51.741  35.919   0.365  1.00  0.00     0.205 HD
BRANCH  15  17
HETATM   17  C8  UNL     1      50.754  36.982   1.729  1.00  0.00     0.728 A
HETATM   18  N3  UNL     1      51.427  38.131   1.875  1.00  0.00    -0.114 N
HETATM   19  N4  UNL     1      51.030  38.682   3.026  1.00  0.00    -0.213 N
ATOM     20  H3  UNL     1      52.115  38.514   1.227  1.00  0.00     0.207 HD
HETATM   21  N5  UNL     1      50.128  37.922   3.615  1.00  0.00    -0.213 N
ATOM     22  H4  UNL     1      51.376  39.566   3.397  1.00  0.00     0.210 HD
HETATM   23  N6  UNL     1      49.965  36.884   2.813  1.00  0.00    -0.114 N
ATOM     24  H5  UNL     1      49.656  38.099   4.501  1.00  0.00     0.210 HD
ATOM     25  H6  UNL     1      49.325  36.110   2.994  1.00  0.00     0.207 HD
ENDBRANCH  15  17
ENDBRANCH  13  15
ENDBRANCH   6  12
TORSDOF 4
ENDMDL