MODEL 5
REMARK VINA RESULT: -6.904246164      2.313      3.365
REMARK  3 active torsions:
REMARK  status: ('A' for Active; 'I' for Inactive)
REMARK    1  A    between atoms: C2_3  and  N2_4
REMARK    2  A    between atoms: C2_3  and  S1_9
REMARK       I    between atoms: N2_4  and  C3_6
REMARK    3  A    between atoms: S1_9  and  C4_12
ROOT
HETATM    1  N1  UNL     1      50.932  36.459   0.824  1.00  0.00    -0.194 NA
HETATM    2  C1  UNL     1      50.255  35.507   0.840  1.00  0.00     0.101 C
HETATM    3  C2  UNL     1      49.420  34.306   0.860  1.00  0.00     0.321 C
ENDROOT
BRANCH   3   4
HETATM    4  N2  UNL     1      50.183  33.109   0.538  1.00  0.00    -0.316 N
HETATM    5  C3  UNL     1      50.964  32.983  -0.625  1.00  0.00     0.330 C
HETATM    6  N3  UNL     1      51.681  31.802  -0.887  1.00  0.00    -0.040 NA
HETATM    7  O1  UNL     1      51.027  33.925  -1.439  1.00  0.00    -0.251 OA
ATOM      8  H2  UNL     1      50.149  32.323   1.188  1.00  0.00     0.166 HD
ENDBRANCH   3   4
BRANCH   3   9
HETATM    9  S1  UNL     1      47.972  34.492  -0.090  1.00  0.00     0.210 S
HETATM   10  O2  UNL     1      47.780  33.251  -0.915  1.00  0.00    -0.219 OA
HETATM   11  O3  UNL     1      48.217  35.616  -1.090  1.00  0.00    -0.219 OA
BRANCH   9  12
HETATM   12  C4  UNL     1      46.530  34.834   0.756  1.00  0.00     0.062 A
HETATM   13  C5  UNL     1      45.478  33.946   0.626  1.00  0.00     0.023 A
HETATM   14  C6  UNL     1      44.280  34.140   1.270  1.00  0.00     0.002 A
HETATM   15  C7  UNL     1      44.130  35.242   2.060  1.00  0.00     0.000 A
HETATM   16  C8  UNL     1      45.153  36.157   2.221  1.00  0.00     0.002 A
HETATM   17  C9  UNL     1      46.333  35.944   1.572  1.00  0.00     0.023 A
ENDBRANCH   9  12
ENDBRANCH   3   9
TORSDOF 3
ENDMDL