MODEL 3
REMARK VINA RESULT: 0.305567031      2.362      7.965
REMARK  2 active torsions:
REMARK  status: ('A' for Active; 'I' for Inactive)
REMARK    1  A    between atoms: C10_13  and  C11_14
REMARK    2  A    between atoms: C12_15  and  C13_16
ROOT
HETATM    1  O1  UNL     1       2.220  36.837   4.155  1.00  0.00    -0.266 OA
HETATM    2  C1  UNL     1       1.195  36.079   4.133  1.00  0.00     0.273 A
HETATM    3  N1  UNL     1      -0.052  36.548   4.096  1.00  0.00    -0.321 N
ATOM      4  H1  UNL     1      -0.193  37.558   4.084  1.00  0.00     0.169 HD
HETATM    5  C2  UNL     1      -1.120  35.757   4.073  1.00  0.00     0.046 A
HETATM    6  C3  UNL     1      -2.366  36.319   4.035  1.00  0.00     0.030 A
HETATM    7  C4  UNL     1      -3.495  35.535   4.011  1.00  0.00     0.002 A
HETATM    8  C5  UNL     1      -3.364  34.167   4.025  1.00  0.00     0.001 A
HETATM    9  C6  UNL     1      -2.128  33.571   4.063  1.00  0.00     0.014 A
HETATM   10  C7  UNL     1      -1.011  34.360   4.087  1.00  0.00     0.003 A
HETATM   11  C8  UNL     1       0.249  33.833   4.125  1.00  0.00     0.010 A
HETATM   12  C9  UNL     1       0.456  32.476   4.140  1.00  0.00     0.037 A
HETATM   13  C10 UNL     1       1.742  32.018   4.178  1.00  0.00     0.034 A
HETATM   14  C19 UNL     1       2.780  32.909   4.200  1.00  0.00     0.109 A
HETATM   15  N2  UNL     1       2.593  34.231   4.185  1.00  0.00    -0.359 N
ATOM     16  H2  UNL     1       3.390  34.868   4.201  1.00  0.00     0.165 HD
HETATM   17  C20 UNL     1       1.341  34.708   4.147  1.00  0.00     0.112 A
ENDROOT
BRANCH  13  18
HETATM   18  C11 UNL     1       1.976  30.581   4.196  1.00  0.00    -0.060 C
HETATM   19  C12 UNL     1       2.150  29.387   4.206  1.00  0.00    -0.061 C
BRANCH  19  20
HETATM   20  C13 UNL     1       2.336  27.963   4.206  1.00  0.00     0.018 A
HETATM   21  C14 UNL     1       3.136  27.306   5.130  1.00  0.00     0.020 A
HETATM   22  C15 UNL     1       3.302  25.938   5.113  1.00  0.00     0.001 A
HETATM   23  C16 UNL     1       2.675  25.157   4.171  1.00  0.00     0.000 A
HETATM   24  C17 UNL     1       1.869  25.811   3.239  1.00  0.00     0.001 A
HETATM   25  C18 UNL     1       1.710  27.178   3.262  1.00  0.00     0.020 A
ENDBRANCH  19  20
ENDBRANCH  13  18
TORSDOF 2
ENDMDL