MODEL 4
REMARK VINA RESULT: -2.196384577      0.597      1.009
REMARK  2 active torsions:
REMARK  status: ('A' for Active; 'I' for Inactive)
REMARK    1  A    between atoms: C9_13  and  C10_14
REMARK    2  A    between atoms: C11_15  and  C12_16
ROOT
HETATM    1  C1  UNL     1       2.204  36.912   4.146  1.00  0.00     0.049 C
HETATM    2  C2  UNL     1       1.009  36.029   4.148  1.00  0.00    -0.049 A
HETATM    3  C3  UNL     1      -0.261  36.564   4.157  1.00  0.00     0.039 A
HETATM    4  C4  UNL     1      -1.376  35.737   4.158  1.00  0.00     0.061 A
HETATM    5  N1  UNL     1      -2.704  35.946   4.166  1.00  0.00    -0.300 N
ATOM      6  H1  UNL     1      -3.144  36.866   4.172  1.00  0.00     0.187 HD
HETATM    7  N2  UNL     1      -3.364  34.799   4.164  1.00  0.00    -0.311 N
ATOM      8  H2  UNL     1      -4.377  34.680   4.170  1.00  0.00     0.186 HD
HETATM    9  C5  UNL     1      -2.440  33.822   4.153  1.00  0.00     0.121 A
HETATM   10  C6  UNL     1      -1.168  34.374   4.150  1.00  0.00     0.020 A
HETATM   11  C7  UNL     1       0.112  33.857   4.140  1.00  0.00    -0.010 A
HETATM   12  C8  UNL     1       0.313  32.492   4.132  1.00  0.00     0.034 A
HETATM   13  C9  UNL     1       1.596  31.960   4.123  1.00  0.00     0.019 A
HETATM   14  C17 UNL     1       2.714  32.768   4.121  1.00  0.00     0.021 A
HETATM   15  C18 UNL     1       2.513  34.132   4.130  1.00  0.00     0.014 A
HETATM   16  C19 UNL     1       1.231  34.667   4.139  1.00  0.00    -0.019 A
ENDROOT
BRANCH  13  17
HETATM   17  C10 UNL     1       1.800  30.541   4.114  1.00  0.00    -0.060 C
HETATM   18  C11 UNL     1       1.987  29.350   4.120  1.00  0.00    -0.043 C
BRANCH  18  19
HETATM   19  C12 UNL     1       2.224  27.938   4.148  1.00  0.00     0.086 A
HETATM   20  C13 UNL     1       3.054  27.334   5.065  1.00  0.00     0.039 A
HETATM   21  C14 UNL     1       3.244  25.961   5.042  1.00  0.00     0.004 A
HETATM   22  C15 UNL     1       2.588  25.208   4.088  1.00  0.00     0.017 A
HETATM   23  C16 UNL     1       1.771  25.858   3.197  1.00  0.00     0.089 A
HETATM   24  N3  UNL     1       1.601  27.179   3.234  1.00  0.00    -0.359 N
ATOM     25  H3  UNL     1       0.985  27.622   2.553  1.00  0.00     0.166 HD
ENDBRANCH  18  19
ENDBRANCH  13  17
TORSDOF 2
ENDMDL