MODEL 4
REMARK VINA RESULT: 5.697376769      3.142      9.744
REMARK  2 active torsions:
REMARK  status: ('A' for Active; 'I' for Inactive)
REMARK    1  A    between atoms: C5_8  and  C6_9
REMARK    2  A    between atoms: C7_10  and  C8_11
ROOT
HETATM    1  N1  UNL     1       2.716  20.068  12.351  1.00  0.00    -0.190 NA
HETATM    2  C1  UNL     1       2.838  20.753  11.405  1.00  0.00     0.117 C
HETATM    3  C2  UNL     1       2.983  21.574  10.239  1.00  0.00     0.116 A
HETATM    4  C3  UNL     1       2.674  22.914  10.113  1.00  0.00     0.073 A
HETATM    5  C4  UNL     1       2.970  23.315   8.806  1.00  0.00     0.062 A
HETATM    6  N2  UNL     1       2.872  24.475   8.144  1.00  0.00    -0.347 N
ATOM      7  H2  UNL     1       2.512  25.300   8.625  1.00  0.00     0.167 HD
HETATM    8  C5  UNL     1       3.243  24.567   6.855  1.00  0.00     0.087 A
HETATM    9  C18 UNL     1       3.726  23.430   6.240  1.00  0.00     0.041 A
HETATM   10  C19 UNL     1       3.844  22.220   6.878  1.00  0.00     0.035 A
HETATM   11  C20 UNL     1       3.455  22.162   8.200  1.00  0.00     0.060 A
HETATM   12  N3  UNL     1       3.455  21.140   9.062  1.00  0.00    -0.346 N
ATOM     13  H3  UNL     1       3.763  20.190   8.857  1.00  0.00     0.167 HD
ENDROOT
BRANCH   8  14
HETATM   14  C6  UNL     1       3.133  25.820   6.156  1.00  0.00    -0.043 C
HETATM   15  C7  UNL     1       3.038  26.883   5.587  1.00  0.00    -0.060 C
BRANCH  15  16
HETATM   16  C8  UNL     1       2.915  28.157   4.932  1.00  0.00     0.018 A
HETATM   17  C9  UNL     1       4.012  28.919   4.571  1.00  0.00     0.021 A
HETATM   18  C10 UNL     1       3.890  30.139   3.942  1.00  0.00     0.013 A
HETATM   19  C11 UNL     1       2.648  30.654   3.644  1.00  0.00    -0.026 A
HETATM   20  C12 UNL     1       2.494  31.887   3.009  1.00  0.00     0.012 A
HETATM   21  C16 UNL     1       1.534  29.896   4.003  1.00  0.00    -0.025 A
HETATM   22  C13 UNL     1       1.239  32.368   2.728  1.00  0.00     0.001 A
HETATM   23  C14 UNL     1       0.140  31.620   3.082  1.00  0.00     0.001 A
HETATM   24  C15 UNL     1       0.285  30.392   3.716  1.00  0.00     0.012 A
HETATM   25  C17 UNL     1       1.673  28.675   4.632  1.00  0.00     0.032 A
ENDBRANCH  15  16
ENDBRANCH   8  14
TORSDOF 2
ENDMDL