MODEL 4
REMARK VINA RESULT: -1.274181454      2.714      7.952
REMARK  2 active torsions:
REMARK  status: ('A' for Active; 'I' for Inactive)
REMARK    1  A    between atoms: C6_8  and  C7_9
REMARK    2  A    between atoms: C8_10  and  C9_11
ROOT
HETATM    1  C1  UNL     1       2.363  24.476   3.682  1.00  0.00     0.089 C
HETATM    2  C2  UNL     1       2.475  25.933   3.982  1.00  0.00     0.079 A
HETATM    3  N1  UNL     1       3.498  26.546   4.591  1.00  0.00    -0.343 N
ATOM      4  H1  UNL     1       4.340  26.078   4.929  1.00  0.00     0.167 HD
HETATM    5  C3  UNL     1       3.259  27.879   4.696  1.00  0.00     0.078 A
HETATM    6  C4  UNL     1       3.950  28.941   5.215  1.00  0.00     0.036 A
HETATM    7  C5  UNL     1       3.400  30.198   5.155  1.00  0.00     0.041 A
HETATM    8  C6  UNL     1       2.160  30.350   4.568  1.00  0.00     0.088 A
HETATM    9  N2  UNL     1       1.510  29.285   4.069  1.00  0.00    -0.334 N
ATOM     10  H2  UNL     1       0.594  29.423   3.640  1.00  0.00     0.168 HD
HETATM   11  C19 UNL     1       2.020  28.056   4.115  1.00  0.00     0.134 A
HETATM   12  N3  UNL     1       1.556  26.868   3.686  1.00  0.00    -0.330 N
ATOM     13  H3  UNL     1       0.664  26.705   3.219  1.00  0.00     0.168 HD
ENDROOT
BRANCH   8  14
HETATM   14  C7  UNL     1       1.608  31.673   4.517  1.00  0.00    -0.043 C
HETATM   15  C8  UNL     1       1.119  32.788   4.469  1.00  0.00    -0.059 C
BRANCH  15  16
HETATM   16  C9  UNL     1       0.523  34.089   4.405  1.00  0.00     0.029 A
HETATM   17  C10 UNL     1       1.093  35.174   5.039  1.00  0.00     0.021 A
HETATM   18  C11 UNL     1       0.492  36.426   4.961  1.00  0.00     0.002 A
HETATM   19  C12 UNL     1      -0.677  36.589   4.247  1.00  0.00     0.012 A
HETATM   20  C13 UNL     1      -1.236  35.485   3.614  1.00  0.00    -0.025 A
HETATM   21  C14 UNL     1      -2.405  35.684   2.909  1.00  0.00     0.012 A
HETATM   22  C18 UNL     1      -0.643  34.226   3.686  1.00  0.00    -0.007 A
HETATM   23  C15 UNL     1      -2.977  34.603   2.274  1.00  0.00     0.001 A
HETATM   24  C16 UNL     1      -2.403  33.352   2.336  1.00  0.00     0.001 A
HETATM   25  C17 UNL     1      -1.243  33.157   3.036  1.00  0.00     0.014 A
ENDBRANCH  15  16
ENDBRANCH   8  14
TORSDOF 2
ENDMDL