MODEL 3
REMARK VINA RESULT: -8.332590032      2.358      3.625
REMARK  0 active torsions:
REMARK  status: ('A' for Active; 'I' for Inactive)
ROOT
HETATM    1  O1  UNL     1       4.028  30.772   4.943  1.00  0.00    -0.200 OA
HETATM    2  S1  UNL     1       2.904  31.433   4.197  1.00  0.00     0.264 S
HETATM    3  O2  UNL     1       3.383  31.785   2.844  1.00  0.00    -0.200 OA
HETATM    4  N1  UNL     1       2.455  32.878   5.044  1.00  0.00    -0.280 N
ATOM      5  H1  UNL     1       3.070  33.205   5.789  1.00  0.00     0.179 HD
HETATM    6  C1  UNL     1       1.275  33.639   4.766  1.00  0.00     0.054 A
HETATM    7  C2  UNL     1       1.576  34.977   5.064  1.00  0.00     0.031 A
HETATM    8  C3  UNL     1       0.682  35.964   4.814  1.00  0.00     0.003 A
HETATM    9  C4  UNL     1      -0.513  35.631   4.268  1.00  0.00     0.012 A
HETATM   10  C5  UNL     1      -0.818  34.302   3.972  1.00  0.00    -0.023 A
HETATM   11  C6  UNL     1      -2.063  34.136   3.394  1.00  0.00     0.012 A
HETATM   12  C7  UNL     1      -2.491  32.904   3.027  1.00  0.00     0.002 A
HETATM   13  C8  UNL     1      -1.638  31.822   3.255  1.00  0.00     0.013 A
HETATM   14  C9  UNL     1      -0.407  31.981   3.832  1.00  0.00    -0.011 A
HETATM   15  C10 UNL     1       0.062  33.253   4.212  1.00  0.00     0.013 A
HETATM   16  C11 UNL     1       0.185  30.654   4.049  1.00  0.00    -0.002 A
HETATM   17  C12 UNL     1      -0.744  29.648   4.141  1.00  0.00     0.014 A
HETATM   18  C13 UNL     1      -0.319  28.321   4.328  1.00  0.00     0.001 A
HETATM   19  C14 UNL     1       1.022  28.056   4.418  1.00  0.00     0.002 A
HETATM   20  C15 UNL     1       1.970  29.057   4.331  1.00  0.00     0.026 A
HETATM   21  C16 UNL     1       1.548  30.345   4.150  1.00  0.00     0.090 A
ENDROOT
TORSDOF 0
ENDMDL