MODEL 3
REMARK VINA RESULT: -7.875441243      1.859      3.091
REMARK  0 active torsions:
REMARK  status: ('A' for Active; 'I' for Inactive)
ROOT
HETATM    1  N1  UNL     1      -2.905  33.751   4.705  1.00  0.00    -0.398 N
ATOM      2  H11 UNL     1      -3.655  33.062   4.754  1.00  0.00     0.156 HD
ATOM      3  H12 UNL     1      -3.353  34.667   4.714  1.00  0.00     0.156 HD
HETATM    4  C1  UNL     1      -1.638  33.526   4.645  1.00  0.00     0.049 A
HETATM    5  C2  UNL     1      -0.568  34.510   4.575  1.00  0.00     0.002 A
HETATM    6  C3  UNL     1      -0.555  35.901   4.553  1.00  0.00     0.014 A
HETATM    7  C4  UNL     1       0.615  36.629   4.483  1.00  0.00     0.001 A
HETATM    8  C5  UNL     1       1.789  35.900   4.435  1.00  0.00     0.001 A
HETATM    9  C6  UNL     1       1.807  34.518   4.455  1.00  0.00     0.013 A
HETATM   10  C7  UNL     1       0.626  33.812   4.526  1.00  0.00    -0.012 A
HETATM   11  C8  UNL     1       0.350  32.398   4.562  1.00  0.00    -0.009 A
HETATM   12  C9  UNL     1       1.223  31.292   4.534  1.00  0.00     0.044 A
HETATM   13  C10 UNL     1       0.753  30.013   4.577  1.00  0.00     0.050 A
HETATM   14  C11 UNL     1       1.623  28.953   4.550  1.00  0.00     0.001 A
HETATM   15  C12 UNL     1       2.989  29.125   4.479  1.00  0.00     0.014 A
HETATM   16  C13 UNL     1       3.809  28.022   4.454  1.00  0.00     0.001 A
HETATM   17  C14 UNL     1       3.295  26.740   4.500  1.00  0.00     0.001 A
HETATM   18  C15 UNL     1       1.939  26.577   4.571  1.00  0.00     0.012 A
HETATM   19  C16 UNL     1       1.091  27.654   4.597  1.00  0.00    -0.022 A
HETATM   20  C17 UNL     1      -0.283  27.514   4.669  1.00  0.00     0.030 A
HETATM   21  C18 UNL     1      -1.115  28.607   4.694  1.00  0.00     0.097 A
HETATM   22  N2  UNL     1      -0.592  29.848   4.648  1.00  0.00    -0.331 N
HETATM   23  C19 UNL     1      -1.441  30.912   4.675  1.00  0.00     0.111 A
HETATM   24  C20 UNL     1      -0.995  32.215   4.632  1.00  0.00     0.018 A
ENDROOT
TORSDOF 0
ENDMDL