MODEL 2
REMARK VINA RESULT: -8.661487120      0.785      5.779
REMARK  1 active torsions:
REMARK  status: ('A' for Active; 'I' for Inactive)
REMARK    1  A    between atoms: O1_1  and  N1_3
ROOT
HETATM    1  N1  UNL     1       0.137  30.498   4.264  1.00  0.00    -0.220 N
HETATM    2  C1  UNL     1       0.582  29.194   4.362  1.00  0.00     0.089 A
HETATM    3  C2  UNL     1      -0.290  28.131   4.447  1.00  0.00     0.034 A
HETATM    4  C3  UNL     1       0.160  26.811   4.547  1.00  0.00     0.002 A
HETATM    5  C4  UNL     1       1.508  26.560   4.560  1.00  0.00     0.002 A
HETATM    6  C5  UNL     1       2.376  27.626   4.473  1.00  0.00     0.032 A
HETATM    7  C6  UNL     1       1.923  28.932   4.376  1.00  0.00     0.062 A
HETATM    8  N2  UNL     1       2.814  29.921   4.295  1.00  0.00    -0.352 N
ATOM      9  H2  UNL     1       3.812  29.709   4.307  1.00  0.00     0.166 HD
HETATM   10  C7  UNL     1       2.398  31.207   4.198  1.00  0.00     0.063 A
HETATM   11  C8  UNL     1       3.376  32.184   4.119  1.00  0.00     0.034 A
HETATM   12  C9  UNL     1       2.949  33.467   4.023  1.00  0.00     0.033 A
HETATM   13  C10 UNL     1       1.619  33.803   4.003  1.00  0.00     0.046 A
HETATM   14  N3  UNL     1       0.995  34.987   3.915  1.00  0.00    -0.355 N
ATOM     15  H3  UNL     1       1.453  35.896   3.843  1.00  0.00     0.166 HD
HETATM   16  C11 UNL     1      -0.330  34.781   3.937  1.00  0.00     0.043 A
HETATM   17  C12 UNL     1      -1.317  35.746   3.869  1.00  0.00     0.030 A
HETATM   18  C13 UNL     1      -2.627  35.335   3.906  1.00  0.00     0.002 A
HETATM   19  C14 UNL     1      -2.916  34.004   4.010  1.00  0.00     0.001 A
HETATM   20  C15 UNL     1      -1.885  33.067   4.076  1.00  0.00     0.014 A
HETATM   21  C16 UNL     1      -0.587  33.423   4.043  1.00  0.00     0.005 A
HETATM   22  C17 UNL     1       0.629  32.804   4.084  1.00  0.00     0.035 A
HETATM   23  C18 UNL     1       1.032  31.471   4.185  1.00  0.00     0.103 A
ENDROOT
BRANCH   1  24
HETATM   24  O1  UNL     1      -1.194  30.577   4.264  1.00  0.00    -0.282 OA
ATOM     25  H1  UNL     1      -1.500  31.474   4.326  1.00  0.00     0.245 HD
ENDBRANCH   1  24
TORSDOF 1
ENDMDL