MODEL 1
REMARK VINA RESULT: 2.193564936      0.000      0.000
REMARK  2 active torsions:
REMARK  status: ('A' for Active; 'I' for Inactive)
REMARK    1  A    between atoms: C7_9  and  C8_10
REMARK    2  A    between atoms: C9_11  and  C10_12
ROOT
HETATM    1  C8  UNL     1       3.181  24.841   6.334  1.00  0.00    -0.042 C
HETATM    2  C9  UNL     1       3.032  25.920   5.815  1.00  0.00    -0.042 C
ENDROOT
BRANCH   1   3
HETATM    3  C7  UNL     1       3.347  23.555   6.977  1.00  0.00     0.087 A
HETATM    4  C6  UNL     1       3.398  22.383   6.251  1.00  0.00     0.041 A
HETATM    5  C5  UNL     1       3.553  21.148   6.835  1.00  0.00     0.035 A
HETATM    6  C4  UNL     1       3.662  21.106   8.217  1.00  0.00     0.059 A
HETATM    7  N1  UNL     1       3.819  20.118   9.115  1.00  0.00    -0.363 N
HETATM    8  C19 UNL     1       3.610  22.281   8.932  1.00  0.00     0.067 A
HETATM    9  C3  UNL     1       3.868  20.625  10.355  1.00  0.00     0.097 A
ATOM     10  H1  UNL     1       3.892  19.126   8.886  1.00  0.00     0.165 HD
HETATM   11  C2  UNL     1       3.739  21.995  10.295  1.00  0.00    -0.018 A
HETATM   12  C1  UNL     1       3.731  22.998  11.392  1.00  0.00     0.052 C
HETATM   13  N3  UNL     1       3.454  23.479   8.314  1.00  0.00    -0.347 N
ATOM     14  H3  UNL     1       3.418  24.333   8.871  1.00  0.00     0.167 HD
ENDBRANCH   1   3
BRANCH   2  15
HETATM   15  C10 UNL     1       2.842  27.210   5.218  1.00  0.00     0.087 A
HETATM   16  C11 UNL     1       1.564  27.606   4.898  1.00  0.00     0.051 A
HETATM   17  C12 UNL     1       1.341  28.838   4.324  1.00  0.00    -0.022 A
HETATM   18  C13 UNL     1       0.058  29.229   4.004  1.00  0.00     0.012 A
HETATM   19  C17 UNL     1       2.404  29.670   4.072  1.00  0.00    -0.010 A
HETATM   20  C14 UNL     1      -0.100  30.472   3.432  1.00  0.00     0.001 A
HETATM   21  C15 UNL     1       0.957  31.324   3.171  1.00  0.00     0.001 A
HETATM   22  C16 UNL     1       2.231  30.919   3.495  1.00  0.00     0.013 A
HETATM   23  C18 UNL     1       3.667  29.262   4.396  1.00  0.00     0.101 A
HETATM   24  N2  UNL     1       3.860  28.065   4.952  1.00  0.00    -0.358 N
ATOM     25  H2  UNL     1       4.811  27.781   5.186  1.00  0.00     0.166 HD
ENDBRANCH   2  15
TORSDOF 2
ENDMDL