MODEL 1
REMARK VINA RESULT: -9.031239213      0.000      0.000
REMARK  1 active torsions:
REMARK  status: ('A' for Active; 'I' for Inactive)
REMARK       I    between atoms: C1_2  and  N1_3
REMARK       I    between atoms: C1_2  and  N3_16
REMARK    1  A    between atoms: N1_3  and  C2_5
ROOT
HETATM    1  O1  UNL     1      -0.286  30.695   3.105  1.00  0.00    -0.246 OA
HETATM    2  C1  UNL     1       0.844  31.167   3.295  1.00  0.00     0.331 C
HETATM    3  N1  UNL     1       1.126  32.534   3.005  1.00  0.00    -0.307 N
ATOM      4  H1  UNL     1       1.667  32.737   2.166  1.00  0.00     0.170 HD
HETATM    5  N3  UNL     1       1.928  30.387   3.807  1.00  0.00    -0.274 N
HETATM    6  C11 UNL     1       3.190  30.802   4.049  1.00  0.00     0.103 A
HETATM    7  C12 UNL     1       3.983  29.812   4.538  1.00  0.00     0.031 A
HETATM    8  C13 UNL     1       3.168  28.695   4.610  1.00  0.00    -0.007 A
HETATM    9  C14 UNL     1       3.450  27.414   5.033  1.00  0.00     0.014 A
HETATM   10  C15 UNL     1       2.411  26.486   4.992  1.00  0.00     0.001 A
HETATM   11  C16 UNL     1       1.156  26.845   4.545  1.00  0.00     0.002 A
HETATM   12  C17 UNL     1       0.902  28.140   4.126  1.00  0.00     0.031 A
HETATM   13  C18 UNL     1       1.919  29.068   4.160  1.00  0.00     0.053 A
ENDROOT
BRANCH   3  14
HETATM   14  C2  UNL     1       0.755  33.511   3.713  1.00  0.00     0.050 A
HETATM   15  C3  UNL     1       1.546  33.962   4.740  1.00  0.00     0.047 A
HETATM   16  C4  UNL     1       1.138  35.043   5.524  1.00  0.00     0.090 A
HETATM   17  N2  UNL     1      -0.035  35.627   5.254  1.00  0.00    -0.365 N
HETATM   18  C5  UNL     1      -0.825  35.194   4.249  1.00  0.00     0.044 A
ATOM     19  H2  UNL     1      -0.341  36.417   5.822  1.00  0.00     0.165 HD
HETATM   20  C6  UNL     1      -2.034  35.789   3.966  1.00  0.00     0.030 A
HETATM   21  C10 UNL     1      -0.447  34.114   3.444  1.00  0.00     0.017 A
HETATM   22  C7  UNL     1      -2.854  35.365   2.946  1.00  0.00     0.002 A
HETATM   23  C8  UNL     1      -2.485  34.303   2.151  1.00  0.00     0.001 A
HETATM   24  C9  UNL     1      -1.276  33.694   2.420  1.00  0.00     0.016 A
ENDBRANCH   3  14
TORSDOF 1
ENDMDL