MODEL 5
REMARK VINA RESULT: -8.823081223      3.346      4.278
REMARK  4 active torsions:
REMARK  status: ('A' for Active; 'I' for Inactive)
REMARK    1  A    between atoms: C5_5  and  S1_6
REMARK    2  A    between atoms: S1_6  and  N1_9
REMARK    3  A    between atoms: N1_9  and  C6_11
REMARK    4  A    between atoms: C10_17  and  C11_18
ROOT
HETATM    1  C6  UNL     1       1.194  -8.713  84.324  1.00  0.00     0.044 A
HETATM    2  C7  UNL     1       1.755  -7.514  83.897  1.00  0.00     0.032 A
HETATM    3  C8  UNL     1       1.684  -6.370  84.656  1.00  0.00     0.034 A
HETATM    4  C9  UNL     1       1.036  -6.424  85.872  1.00  0.00     0.060 A
HETATM    5  N2  UNL     1       0.795  -5.490  86.842  1.00  0.00    -0.339 N
ATOM      6  H2  UNL     1       1.097  -4.516  86.793  1.00  0.00     0.167 HD
HETATM    7  C10 UNL     1       0.123  -6.012  87.851  1.00  0.00     0.136 A
HETATM    8  N5  UNL     1      -0.067  -7.318  87.505  1.00  0.00    -0.339 N
ATOM      9  H5  UNL     1      -0.559  -8.001  88.081  1.00  0.00     0.167 HD
HETATM   10  C18 UNL     1       0.476  -7.586  86.316  1.00  0.00     0.062 A
HETATM   11  C19 UNL     1       0.562  -8.730  85.528  1.00  0.00     0.062 A
ENDROOT
BRANCH   1  12
HETATM   12  N1  UNL     1       1.288  -9.877  83.503  1.00  0.00    -0.281 N
ATOM     13  H1  UNL     1       0.493 -10.147  82.923  1.00  0.00     0.179 HD
BRANCH  12  14
HETATM   14  S1  UNL     1       2.711 -10.830  83.472  1.00  0.00     0.263 S
HETATM   15  O1  UNL     1       2.404 -12.224  82.934  1.00  0.00    -0.200 OA
HETATM   16  O2  UNL     1       3.717 -10.246  82.540  1.00  0.00    -0.200 OA
BRANCH  14  17
HETATM   17  C5  UNL     1       3.331 -10.977  85.119  1.00  0.00     0.079 A
HETATM   18  C4  UNL     1       3.023 -12.053  85.912  1.00  0.00     0.026 A
HETATM   19  C3  UNL     1       3.531 -12.133  87.205  1.00  0.00     0.008 A
HETATM   20  C2  UNL     1       4.349 -11.148  87.725  1.00  0.00    -0.062 A
HETATM   21  C1  UNL     1       4.896 -11.237  89.123  1.00  0.00     0.048 C
HETATM   22  C21 UNL     1       4.652 -10.070  86.919  1.00  0.00     0.008 A
HETATM   23  C20 UNL     1       4.153  -9.983  85.636  1.00  0.00     0.026 A
ENDBRANCH  14  17
ENDBRANCH  12  14
ENDBRANCH   1  12
BRANCH   7  24
HETATM   24  C11 UNL     1      -0.346  -5.405  89.082  1.00  0.00     0.104 A
HETATM   25  N3  UNL     1      -1.684  -5.375  89.435  1.00  0.00    -0.296 N
HETATM   26  N4  UNL     1      -1.841  -4.779  90.579  1.00  0.00    -0.299 N
ATOM     27  H3  UNL     1      -2.441  -5.767  88.875  1.00  0.00     0.187 HD
HETATM   28  C12 UNL     1      -0.666  -4.372  91.073  1.00  0.00     0.060 A
ATOM     29  H4  UNL     1      -2.741  -4.639  91.039  1.00  0.00     0.187 HD
HETATM   30  C13 UNL     1      -0.251  -3.714  92.201  1.00  0.00     0.032 A
HETATM   31  C17 UNL     1       0.277  -4.774  90.115  1.00  0.00     0.024 A
HETATM   32  C14 UNL     1       1.083  -3.437  92.418  1.00  0.00     0.002 A
HETATM   33  C15 UNL     1       2.023  -3.816  91.505  1.00  0.00     0.001 A
HETATM   34  C16 UNL     1       1.598  -4.487  90.354  1.00  0.00     0.016 A
ENDBRANCH   7  24
TORSDOF 4
ENDMDL