MODEL 1
REMARK VINA RESULT: -9.169385010      0.000      0.000
REMARK  6 active torsions:
REMARK  status: ('A' for Active; 'I' for Inactive)
REMARK    1  A    between atoms: O1_1  and  C1_3
REMARK    2  A    between atoms: C5_7  and  C6_8
REMARK    3  A    between atoms: C9_11  and  C10_12
REMARK    4  A    between atoms: C13_15  and  C14_16
REMARK    5  A    between atoms: C14_16  and  N1_17
REMARK    6  A    between atoms: N1_17  and  C15_19
ROOT
HETATM    1  C10 UNL     1       0.583  -7.683  86.938  1.00  0.00    -0.009 A
HETATM    2  C11 UNL     1      -0.200  -7.415  88.024  1.00  0.00     0.014 A
HETATM    3  C12 UNL     1      -0.503  -6.116  88.394  1.00  0.00     0.010 A
HETATM    4  C13 UNL     1       0.019  -5.100  87.621  1.00  0.00    -0.041 A
HETATM    5  C23 UNL     1       0.813  -5.345  86.519  1.00  0.00     0.010 A
HETATM    6  C24 UNL     1       1.091  -6.650  86.183  1.00  0.00     0.014 A
ENDROOT
BRANCH   4   7
HETATM    7  C14 UNL     1      -0.306  -3.686  88.018  1.00  0.00     0.159 C
BRANCH   7   8
HETATM    8  N1  UNL     1      -1.162  -3.130  87.021  1.00  0.00    -0.372 N
ATOM      9  H1  UNL     1      -2.164  -3.149  87.213  1.00  0.00     0.161 HD
BRANCH   8  10
HETATM   10  C15 UNL     1      -0.797  -2.610  85.911  1.00  0.00     0.101 A
HETATM   11  C16 UNL     1      -1.537  -2.743  84.744  1.00  0.00     0.049 A
HETATM   12  C17 UNL     1      -1.052  -2.142  83.601  1.00  0.00     0.019 A
HETATM   13  C18 UNL     1       0.140  -1.422  83.606  1.00  0.00     0.006 A
HETATM   14  C19 UNL     1       0.634  -0.819  82.476  1.00  0.00     0.101 A
HETATM   15  C22 UNL     1       0.837  -1.322  84.796  1.00  0.00     0.046 A
HETATM   16  N2  UNL     1       1.785  -0.121  82.470  1.00  0.00    -0.374 N
HETATM   17  C20 UNL     1       2.483  -0.008  83.612  1.00  0.00     0.090 A
ATOM     18  H2  UNL     1       2.122   0.315  81.611  1.00  0.00     0.164 HD
HETATM   19  C21 UNL     1       2.016  -0.600  84.764  1.00  0.00     0.047 A
HETATM   20  N3  UNL     1       0.351  -1.909  85.887  1.00  0.00    -0.342 N
ATOM     21  H3  UNL     1       0.880  -1.823  86.756  1.00  0.00     0.167 HD
ENDBRANCH   8  10
ENDBRANCH   7   8
ENDBRANCH   4   7
BRANCH   1  22
HETATM   22  C9  UNL     1       0.895  -9.048  86.557  1.00  0.00     0.043 A
HETATM   23  C8  UNL     1       0.611 -10.224  87.216  1.00  0.00     0.033 A
HETATM   24  C7  UNL     1       1.111 -11.276  86.458  1.00  0.00     0.033 A
HETATM   25  C6  UNL     1       1.687 -10.729  85.359  1.00  0.00     0.043 A
HETATM   26  N4  UNL     1       1.547  -9.394  85.437  1.00  0.00    -0.355 N
ATOM     27  H4  UNL     1       1.891  -8.733  84.740  1.00  0.00     0.166 HD
BRANCH  25  28
HETATM   28  C5  UNL     1       2.357 -11.448  84.255  1.00  0.00    -0.007 A
HETATM   29  C4  UNL     1       2.562 -10.840  83.037  1.00  0.00     0.014 A
HETATM   30  C3  UNL     1       3.187 -11.492  81.988  1.00  0.00     0.004 A
HETATM   31  C2  UNL     1       3.604 -12.792  82.208  1.00  0.00     0.036 A
HETATM   32  C1  UNL     1       3.423 -13.448  83.408  1.00  0.00     0.066 A
HETATM   33  C25 UNL     1       2.791 -12.740  84.417  1.00  0.00     0.050 A
BRANCH  32  34
HETATM   34  O1  UNL     1       3.865 -14.753  83.561  1.00  0.00    -0.361 OA
ATOM     35  H1  UNL     1       3.417 -15.463  83.117  1.00  0.00     0.217 HD
ENDBRANCH  32  34
ENDBRANCH  25  28
ENDBRANCH   1  22
TORSDOF 6
ENDMDL