MODEL 2
REMARK VINA RESULT: -8.730253074      4.103     10.890
REMARK  4 active torsions:
REMARK  status: ('A' for Active; 'I' for Inactive)
REMARK    1  A    between atoms: S1_2  and  N1_4
REMARK    2  A    between atoms: S1_2  and  C17_26
REMARK    3  A    between atoms: N1_4  and  C1_6
REMARK    4  A    between atoms: C5_12  and  C6_13
ROOT
HETATM    1  C1  UNL     1       1.344  -8.899  85.057  1.00  0.00     0.043 A
HETATM    2  C2  UNL     1       0.769  -9.653  86.037  1.00  0.00     0.032 A
HETATM    3  C3  UNL     1       0.237  -9.092  87.211  1.00  0.00     0.033 A
HETATM    4  C4  UNL     1       0.283  -7.733  87.409  1.00  0.00     0.043 A
HETATM    5  N2  UNL     1      -0.130  -6.924  88.400  1.00  0.00    -0.354 N
ATOM      6  H2  UNL     1      -0.592  -7.243  89.251  1.00  0.00     0.166 HD
HETATM    7  C5  UNL     1       0.149  -5.638  88.120  1.00  0.00     0.060 A
HETATM    8  C14 UNL     1       0.772  -5.608  86.891  1.00  0.00     0.045 A
HETATM    9  C15 UNL     1       0.853  -6.932  86.449  1.00  0.00    -0.005 A
HETATM   10  C16 UNL     1       1.357  -7.504  85.327  1.00  0.00     0.043 A
ENDROOT
BRANCH   1  11
HETATM   11  N1  UNL     1       1.871  -9.323  83.822  1.00  0.00    -0.279 N
ATOM     12  H1  UNL     1       1.375  -8.958  83.009  1.00  0.00     0.179 HD
BRANCH  11  13
HETATM   13  S1  UNL     1       3.170 -10.320  83.441  1.00  0.00     0.278 S
HETATM   14  O1  UNL     1       3.546 -10.222  81.964  1.00  0.00    -0.199 OA
HETATM   15  O2  UNL     1       4.417  -9.904  84.233  1.00  0.00    -0.199 OA
BRANCH  13  16
HETATM   16  C17 UNL     1       2.940 -11.998  83.756  1.00  0.00     0.149 A
HETATM   17  C18 UNL     1       1.913 -12.551  84.465  1.00  0.00     0.044 A
HETATM   18  C19 UNL     1       1.792 -13.893  84.772  1.00  0.00     0.004 A
HETATM   19  C20 UNL     1       2.762 -14.752  84.346  1.00  0.00     0.017 A
HETATM   20  C21 UNL     1       3.809 -14.205  83.629  1.00  0.00     0.089 A
HETATM   21  N4  UNL     1       3.894 -12.899  83.348  1.00  0.00    -0.355 N
ATOM     22  H4  UNL     1       4.694 -12.561  82.813  1.00  0.00     0.166 HD
ENDBRANCH  13  16
ENDBRANCH  11  13
ENDBRANCH   1  11
BRANCH   7  23
HETATM   23  C6  UNL     1      -0.166  -4.496  88.988  1.00  0.00     0.060 A
HETATM   24  C7  UNL     1      -0.002  -3.158  88.700  1.00  0.00     0.045 A
HETATM   25  C8  UNL     1      -0.416  -2.394  89.778  1.00  0.00    -0.007 A
HETATM   26  C9  UNL     1      -0.489  -1.049  90.073  1.00  0.00     0.014 A
HETATM   27  C13 UNL     1      -0.841  -3.301  90.737  1.00  0.00     0.043 A
HETATM   28  C10 UNL     1      -0.963  -0.560  91.272  1.00  0.00     0.001 A
HETATM   29  C11 UNL     1      -1.383  -1.484  92.217  1.00  0.00     0.002 A
HETATM   30  C12 UNL     1      -1.318  -2.832  91.944  1.00  0.00     0.030 A
HETATM   31  N3  UNL     1      -0.674  -4.551  90.225  1.00  0.00    -0.354 N
ATOM     32  H3  UNL     1      -0.906  -5.414  90.718  1.00  0.00     0.166 HD
ENDBRANCH   7  23
TORSDOF 4
ENDMDL