MODEL 1
REMARK VINA RESULT: -8.636234996      0.000      0.000
REMARK  6 active torsions:
REMARK  status: ('A' for Active; 'I' for Inactive)
REMARK    1  A    between atoms: O1_2  and  C2_3
REMARK    2  A    between atoms: C8_11  and  N2_12
REMARK    3  A    between atoms: N2_12  and  C9_14
REMARK    4  A    between atoms: C9_14  and  C10_15
REMARK    5  A    between atoms: C13_18  and  N3_19
REMARK    6  A    between atoms: N3_19  and  C14_21
ROOT
HETATM    1  C10 UNL     1       2.669 -10.011  82.909  1.00  0.00    -0.040 A
HETATM    2  C11 UNL     1       1.378  -9.898  83.352  1.00  0.00     0.011 A
HETATM    3  C12 UNL     1       0.923  -8.715  83.908  1.00  0.00     0.030 A
HETATM    4  C13 UNL     1       1.752  -7.645  84.024  1.00  0.00     0.033 A
HETATM    5  C21 UNL     1       3.053  -7.739  83.586  1.00  0.00     0.030 A
HETATM    6  C22 UNL     1       3.494  -8.926  83.033  1.00  0.00     0.011 A
ENDROOT
BRANCH   1   7
HETATM    7  C9  UNL     1       3.160 -11.255  82.322  1.00  0.00     0.158 C
BRANCH   7   8
HETATM    8  N2  UNL     1       3.993 -11.920  83.311  1.00  0.00    -0.385 N
ATOM      9  H2  UNL     1       4.990 -11.703  83.330  1.00  0.00     0.160 HD
BRANCH   8  10
HETATM   10  C8  UNL     1       3.536 -12.762  84.157  1.00  0.00     0.042 A
HETATM   11  C7  UNL     1       2.962 -13.954  83.867  1.00  0.00     0.047 A
HETATM   12  C6  UNL     1       2.511 -14.767  84.886  1.00  0.00     0.090 A
HETATM   13  N1  UNL     1       2.618 -14.424  86.169  1.00  0.00    -0.365 N
HETATM   14  C5  UNL     1       3.186 -13.242  86.488  1.00  0.00     0.044 A
ATOM     15  H1  UNL     1       2.274 -15.047  86.900  1.00  0.00     0.165 HD
HETATM   16  C4  UNL     1       3.294 -12.892  87.829  1.00  0.00     0.033 A
HETATM   17  C23 UNL     1       3.651 -12.396  85.505  1.00  0.00     0.020 A
HETATM   18  C3  UNL     1       3.871 -11.692  88.159  1.00  0.00     0.039 A
HETATM   19  C2  UNL     1       4.338 -10.840  87.181  1.00  0.00     0.069 A
HETATM   20  C24 UNL     1       4.229 -11.190  85.856  1.00  0.00     0.052 A
BRANCH  19  21
HETATM   21  O1  UNL     1       4.922  -9.624  87.517  1.00  0.00    -0.356 OA
HETATM   22  C1  UNL     1       4.517  -8.420  86.877  1.00  0.00     0.210 C
ENDBRANCH  19  21
ENDBRANCH   8  10
ENDBRANCH   7   8
ENDBRANCH   1   7
BRANCH   4  23
HETATM   23  N3  UNL     1       1.316  -6.393  84.598  1.00  0.00    -0.342 N
ATOM     24  H3  UNL     1       0.819  -6.368  85.488  1.00  0.00     0.167 HD
BRANCH  23  25
HETATM   25  C14 UNL     1       1.579  -5.291  83.940  1.00  0.00     0.107 A
HETATM   26  C15 UNL     1       1.094  -5.170  82.657  1.00  0.00     0.049 A
HETATM   27  C16 UNL     1       1.376  -3.996  81.962  1.00  0.00     0.019 A
HETATM   28  C17 UNL     1       2.117  -2.988  82.542  1.00  0.00     0.009 A
HETATM   29  C18 UNL     1       2.551  -1.747  82.129  1.00  0.00     0.032 A
HETATM   30  C20 UNL     1       2.584  -3.148  83.829  1.00  0.00     0.117 A
HETATM   31  C19 UNL     1       3.273  -1.154  83.145  1.00  0.00     0.090 A
HETATM   32  N4  UNL     1       3.264  -2.041  84.153  1.00  0.00    -0.352 N
ATOM     33  H4  UNL     1       3.718  -1.890  85.054  1.00  0.00     0.166 HD
HETATM   34  N5  UNL     1       2.297  -4.301  84.490  1.00  0.00    -0.328 N
ATOM     35  H5  UNL     1       2.643  -4.418  85.443  1.00  0.00     0.169 HD
ENDBRANCH  23  25
ENDBRANCH   4  23
TORSDOF 6
ENDMDL