MODEL 3
REMARK VINA RESULT: -8.213855931      2.543      5.605
REMARK  4 active torsions:
REMARK  status: ('A' for Active; 'I' for Inactive)
REMARK    1  A    between atoms: S1_2  and  N1_4
REMARK    2  A    between atoms: S1_2  and  C14_23
REMARK    3  A    between atoms: N1_4  and  C1_6
REMARK    4  A    between atoms: C6_13  and  C7_14
ROOT
HETATM    1  C1  UNL     1       3.781 -12.480  85.203  1.00  0.00     0.071 A
HETATM    2  C2  UNL     1       3.199 -13.606  85.703  1.00  0.00     0.032 A
HETATM    3  C3  UNL     1       2.884 -13.766  87.035  1.00  0.00     0.005 A
HETATM    4  C4  UNL     1       3.161 -12.758  87.910  1.00  0.00     0.032 A
HETATM    5  C5  UNL     1       3.744 -11.604  87.465  1.00  0.00     0.063 A
HETATM    6  N2  UNL     1       4.140 -10.450  88.038  1.00  0.00    -0.340 N
ATOM      7  H2  UNL     1       4.046 -10.243  89.033  1.00  0.00     0.167 HD
HETATM    8  C6  UNL     1       4.672  -9.607  87.140  1.00  0.00     0.116 A
HETATM    9  N3  UNL     1       4.605 -10.258  85.963  1.00  0.00    -0.338 N
ATOM     10  H3  UNL     1       4.931  -9.886  85.071  1.00  0.00     0.167 HD
HETATM   11  C13 UNL     1       4.048 -11.471  86.132  1.00  0.00     0.088 A
ENDROOT
BRANCH   1  12
HETATM   12  N1  UNL     1       4.122 -12.244  83.864  1.00  0.00    -0.277 N
ATOM     13  H1  UNL     1       5.032 -12.576  83.544  1.00  0.00     0.179 HD
BRANCH  12  14
HETATM   14  S1  UNL     1       3.122 -11.436  82.720  1.00  0.00     0.279 S
HETATM   15  O1  UNL     1       3.782 -11.346  81.374  1.00  0.00    -0.199 OA
HETATM   16  O2  UNL     1       1.821 -12.165  82.549  1.00  0.00    -0.199 OA
BRANCH  14  17
HETATM   17  C14 UNL     1       2.732  -9.855  83.350  1.00  0.00     0.150 A
HETATM   18  C15 UNL     1       3.326  -8.666  82.973  1.00  0.00     0.057 A
HETATM   19  C16 UNL     1       2.759  -7.638  83.688  1.00  0.00    -0.007 A
HETATM   20  C17 UNL     1       2.932  -6.274  83.746  1.00  0.00     0.014 A
HETATM   21  C21 UNL     1       1.810  -8.208  84.510  1.00  0.00     0.043 A
HETATM   22  C18 UNL     1       2.209  -5.449  84.580  1.00  0.00     0.001 A
HETATM   23  C19 UNL     1       1.248  -6.027  85.410  1.00  0.00     0.002 A
HETATM   24  C20 UNL     1       1.068  -7.392  85.359  1.00  0.00     0.030 A
HETATM   25  N4  UNL     1       1.819  -9.536  84.283  1.00  0.00    -0.345 N
ATOM     26  H4  UNL     1       1.215 -10.209  84.755  1.00  0.00     0.167 HD
ENDBRANCH  14  17
ENDBRANCH  12  14
ENDBRANCH   1  12
BRANCH   8  27
HETATM   27  C7  UNL     1       5.202  -8.275  87.406  1.00  0.00     0.008 A
HETATM   28  C8  UNL     1       4.556  -7.178  86.881  1.00  0.00     0.015 A
HETATM   29  C9  UNL     1       5.031  -5.906  87.113  1.00  0.00     0.001 A
HETATM   30  C10 UNL     1       6.162  -5.703  87.875  1.00  0.00     0.000 A
HETATM   31  C11 UNL     1       6.812  -6.802  88.403  1.00  0.00     0.001 A
HETATM   32  C12 UNL     1       6.329  -8.057  88.163  1.00  0.00     0.015 A
ENDBRANCH   8  27
TORSDOF 4
ENDMDL