MODEL 1
REMARK VINA RESULT: -9.064119968      0.000      0.000
REMARK  3 active torsions:
REMARK  status: ('A' for Active; 'I' for Inactive)
REMARK    1  A    between atoms: C3_5  and  C4_6
REMARK    2  A    between atoms: C7_15  and  C8_16
REMARK    3  A    between atoms: C14_24  and  C15_25
ROOT
HETATM    1  C1  UNL     1       4.905  -6.167  84.576  1.00  0.00     0.069 C
HETATM    2  C2  UNL     1       4.007  -7.289  84.180  1.00  0.00     0.017 A
HETATM    3  N1  UNL     1       4.395  -8.584  84.144  1.00  0.00    -0.357 N
ATOM      4  H1  UNL     1       5.330  -8.916  84.382  1.00  0.00     0.166 HD
HETATM    5  C3  UNL     1       3.380  -9.378  83.752  1.00  0.00     0.061 A
HETATM    6  C13 UNL     1       2.308  -8.504  83.535  1.00  0.00     0.046 A
HETATM    7  C14 UNL     1       2.687  -7.209  83.798  1.00  0.00    -0.002 A
ENDROOT
BRANCH   5   8
HETATM    8  C4  UNL     1       3.363 -10.817  83.578  1.00  0.00     0.079 A
HETATM    9  N2  UNL     1       3.810 -11.420  82.467  1.00  0.00    -0.305 N
HETATM   10  C5  UNL     1       3.780 -12.773  82.334  1.00  0.00     0.327 A
ATOM     11  H2  UNL     1       4.179 -10.852  81.705  1.00  0.00     0.171 HD
HETATM   12  O1  UNL     1       4.220 -13.254  81.256  1.00  0.00    -0.247 OA
HETATM   13  N3  UNL     1       3.300 -13.565  83.311  1.00  0.00    -0.275 N
HETATM   14  C6  UNL     1       2.842 -13.003  84.440  1.00  0.00     0.262 A
ATOM     15  H3  UNL     1       3.285 -14.578  83.195  1.00  0.00     0.173 HD
HETATM   16  O2  UNL     1       2.391 -13.726  85.362  1.00  0.00    -0.267 OA
HETATM   17  C7  UNL     1       2.875 -11.619  84.571  1.00  0.00     0.071 A
BRANCH  17  18
HETATM   18  C8  UNL     1       2.383 -11.006  85.792  1.00  0.00    -0.015 A
HETATM   19  C9  UNL     1       1.052 -10.639  85.892  1.00  0.00     0.029 A
HETATM   20  C10 UNL     1       0.533 -10.051  87.024  1.00  0.00     0.088 A
HETATM   21  N4  UNL     1       1.341  -9.821  88.079  1.00  0.00    -0.375 N
HETATM   22  C11 UNL     1       2.636 -10.163  88.022  1.00  0.00     0.088 A
ATOM     23  H4  UNL     1       0.966  -9.386  88.922  1.00  0.00     0.164 HD
HETATM   24  C12 UNL     1       3.186 -10.759  86.885  1.00  0.00     0.029 A
ENDBRANCH  17  18
ENDBRANCH   5   8
BRANCH   7  25
HETATM   25  C15 UNL     1       1.910  -5.978  83.709  1.00  0.00    -0.023 A
HETATM   26  C16 UNL     1       1.809  -5.297  82.514  1.00  0.00     0.013 A
HETATM   27  C17 UNL     1       1.092  -4.129  82.361  1.00  0.00     0.013 A
HETATM   28  C18 UNL     1       0.449  -3.625  83.473  1.00  0.00    -0.026 A
HETATM   29  C19 UNL     1      -0.273  -2.465  83.363  1.00  0.00     0.012 A
HETATM   30  C23 UNL     1       0.514  -4.263  84.701  1.00  0.00    -0.025 A
HETATM   31  C20 UNL     1      -0.945  -1.900  84.436  1.00  0.00     0.001 A
HETATM   32  C21 UNL     1      -0.887  -2.528  85.662  1.00  0.00     0.001 A
HETATM   33  C22 UNL     1      -0.160  -3.691  85.766  1.00  0.00     0.012 A
HETATM   34  C24 UNL     1       1.240  -5.417  84.786  1.00  0.00     0.024 A
ENDBRANCH   7  25
TORSDOF 3
ENDMDL