MODEL 5
REMARK VINA RESULT: -7.945187138      5.382      9.278
REMARK  6 active torsions:
REMARK  status: ('A' for Active; 'I' for Inactive)
REMARK    1  A    between atoms: C2_5  and  C3_6
REMARK    2  A    between atoms: C8_11  and  C9_12
REMARK    3  A    between atoms: C16_23  and  N5_24
REMARK    4  A    between atoms: N5_24  and  C17_25
REMARK    5  A    between atoms: C17_25  and  C18_26
REMARK    6  A    between atoms: C25_33  and  N6_34
ROOT
HETATM    1  C3  UNL     1       5.138  -8.299  85.070  1.00  0.00     0.034 A
HETATM    2  C4  UNL     1       5.893  -7.467  84.245  1.00  0.00     0.018 A
HETATM    3  C5  UNL     1       6.859  -6.603  84.683  1.00  0.00     0.013 A
HETATM    4  C6  UNL     1       7.081  -6.573  86.038  1.00  0.00    -0.019 A
HETATM    5  C7  UNL     1       8.046  -5.718  86.546  1.00  0.00     0.044 A
HETATM    6  C8  UNL     1       8.335  -5.626  87.907  1.00  0.00     0.059 A
HETATM    7  N4  UNL     1       7.634  -6.406  88.720  1.00  0.00    -0.363 N
ATOM      8  H4  UNL     1       7.825  -6.356  89.721  1.00  0.00     0.165 HD
HETATM    9  C14 UNL     1       6.663  -7.276  88.286  1.00  0.00     0.104 A
HETATM   10  C15 UNL     1       6.337  -7.410  86.962  1.00  0.00     0.031 A
HETATM   11  C16 UNL     1       5.365  -8.272  86.462  1.00  0.00     0.131 A
ENDROOT
BRANCH   1  12
HETATM   12  C2  UNL     1       4.176  -9.198  84.456  1.00  0.00     0.065 A
HETATM   13  N2  UNL     1       4.471 -10.503  84.140  1.00  0.00    -0.296 N
HETATM   14  N1  UNL     1       3.458 -11.087  83.555  1.00  0.00    -0.281 N
ATOM     15  H2  UNL     1       5.364 -10.956  84.335  1.00  0.00     0.187 HD
HETATM   16  C1  UNL     1       3.356 -12.456  83.065  1.00  0.00     0.179 C
HETATM   17  C25 UNL     1       2.456 -10.216  83.455  1.00  0.00     0.117 A
HETATM   18  C24 UNL     1       2.898  -9.009  84.023  1.00  0.00     0.081 A
BRANCH  17  19
HETATM   19  N6  UNL     1       1.277 -10.345  82.956  1.00  0.00    -0.384 N
ATOM     20  H62 UNL     1       0.675  -9.541  82.777  1.00  0.00     0.157 HD
ATOM     21  H61 UNL     1       0.763 -11.178  82.671  1.00  0.00     0.157 HD
ENDBRANCH  17  19
ENDBRANCH   1  12
BRANCH  11  22
HETATM   22  N5  UNL     1       4.760  -8.994  87.219  1.00  0.00    -0.415 NA
BRANCH  22  23
HETATM   23  C17 UNL     1       4.423 -10.088  87.938  1.00  0.00     0.194 C
BRANCH  23  24
HETATM   24  C18 UNL     1       3.145 -10.716  87.444  1.00  0.00    -0.007 A
HETATM   25  C19 UNL     1       1.970 -10.027  87.358  1.00  0.00     0.014 A
HETATM   26  C20 UNL     1       0.799 -10.613  86.902  1.00  0.00     0.001 A
HETATM   27  C21 UNL     1       0.863 -11.948  86.532  1.00  0.00     0.000 A
HETATM   28  C22 UNL     1       2.036 -12.670  86.609  1.00  0.00     0.001 A
HETATM   29  C23 UNL     1       3.188 -12.034  87.074  1.00  0.00     0.014 A
ENDBRANCH  23  24
ENDBRANCH  22  23
ENDBRANCH  11  22
BRANCH   6  30
HETATM   30  C9  UNL     1       9.371  -4.691  88.324  1.00  0.00     0.059 A
HETATM   31  C10 UNL     1       9.162  -3.340  88.257  1.00  0.00     0.032 A
HETATM   32  C11 UNL     1      10.159  -2.436  88.657  1.00  0.00     0.004 A
HETATM   33  C12 UNL     1      11.354  -2.939  89.120  1.00  0.00     0.017 A
HETATM   34  C13 UNL     1      11.550  -4.302  89.182  1.00  0.00     0.088 A
HETATM   35  N3  UNL     1      10.566  -5.122  88.787  1.00  0.00    -0.364 N
ATOM     36  H3  UNL     1      10.728  -6.128  88.839  1.00  0.00     0.165 HD
ENDBRANCH   6  30
TORSDOF 6
ENDMDL