MODEL 2
REMARK VINA RESULT: -9.098522407      6.002      9.871
REMARK  5 active torsions:
REMARK  status: ('A' for Active; 'I' for Inactive)
REMARK    1  A    between atoms: N1_1  and  S1_4
REMARK    2  A    between atoms: S1_4  and  C1_7
REMARK    3  A    between atoms: C5_11  and  N2_12
REMARK    4  A    between atoms: N2_12  and  C6_14
REMARK    5  A    between atoms: C6_14  and  C7_15
ROOT
HETATM    1  C7  UNL     1       3.928  -8.015  85.846  1.00  0.00    -0.040 A
HETATM    2  C8  UNL     1       3.183  -8.176  86.994  1.00  0.00     0.011 A
HETATM    3  C9  UNL     1       2.107  -7.337  87.180  1.00  0.00     0.031 A
HETATM    4  C10 UNL     1       1.759  -6.361  86.270  1.00  0.00     0.043 A
HETATM    5  N3  UNL     1       0.754  -5.441  86.256  1.00  0.00    -0.354 N
ATOM      6  H3  UNL     1       0.049  -5.332  86.986  1.00  0.00     0.166 HD
HETATM    7  C11 UNL     1       0.827  -4.696  85.139  1.00  0.00     0.055 A
HETATM    8  C12 UNL     1       0.041  -3.653  84.683  1.00  0.00     0.002 A
HETATM    9  C13 UNL     1      -1.046  -3.169  85.372  1.00  0.00     0.014 A
HETATM   10  C14 UNL     1      -1.825  -2.127  84.907  1.00  0.00     0.001 A
HETATM   11  C15 UNL     1      -1.465  -1.571  83.693  1.00  0.00     0.001 A
HETATM   12  C16 UNL     1      -0.385  -2.020  82.967  1.00  0.00     0.012 A
HETATM   13  C17 UNL     1       0.358  -3.069  83.483  1.00  0.00    -0.024 A
HETATM   14  C18 UNL     1       1.440  -3.525  82.764  1.00  0.00     0.013 A
HETATM   15  C19 UNL     1       2.230  -4.577  83.226  1.00  0.00     0.015 A
HETATM   16  C20 UNL     1       1.915  -5.169  84.435  1.00  0.00     0.004 A
HETATM   17  C21 UNL     1       2.509  -6.207  85.123  1.00  0.00     0.004 A
HETATM   18  C22 UNL     1       3.597  -7.040  84.916  1.00  0.00     0.023 A
ENDROOT
BRANCH   1  19
HETATM   19  C6  UNL     1       5.083  -8.918  85.647  1.00  0.00     0.158 C
BRANCH  19  20
HETATM   20  N2  UNL     1       5.084  -9.463  84.317  1.00  0.00    -0.386 N
ATOM     21  H2  UNL     1       5.828  -9.188  83.676  1.00  0.00     0.160 HD
BRANCH  20  22
HETATM   22  C5  UNL     1       4.092 -10.368  83.857  1.00  0.00     0.029 A
HETATM   23  C4  UNL     1       3.219 -10.021  82.853  1.00  0.00     0.029 A
HETATM   24  C3  UNL     1       2.253 -10.889  82.399  1.00  0.00     0.004 A
HETATM   25  C2  UNL     1       2.139 -12.144  82.952  1.00  0.00     0.025 A
HETATM   26  C1  UNL     1       3.004 -12.505  83.958  1.00  0.00     0.081 A
HETATM   27  C23 UNL     1       3.973 -11.624  84.407  1.00  0.00     0.054 A
BRANCH  26  28
HETATM   28  S1  UNL     1       2.878 -14.083  84.669  1.00  0.00     0.256 S
HETATM   29  O1  UNL     1       1.431 -14.542  84.692  1.00  0.00    -0.201 OA
HETATM   30  O2  UNL     1       3.371 -14.100  86.094  1.00  0.00    -0.201 OA
BRANCH  28  31
HETATM   31  N1  UNL     1       3.791 -15.192  83.686  1.00  0.00    -0.324 N
ATOM     32  H12 UNL     1       3.879 -15.139  82.671  1.00  0.00     0.169 HD
ATOM     33  H11 UNL     1       4.215 -15.891  84.297  1.00  0.00     0.169 HD
ENDBRANCH  28  31
ENDBRANCH  26  28
ENDBRANCH  20  22
ENDBRANCH  19  20
ENDBRANCH   1  19
TORSDOF 5
ENDMDL