MODEL 3
REMARK VINA RESULT: -8.718836055      2.464      9.720
REMARK  6 active torsions:
REMARK  status: ('A' for Active; 'I' for Inactive)
REMARK    1  A    between atoms: C5_5  and  N1_6
REMARK    2  A    between atoms: N1_6  and  C6_8
REMARK    3  A    between atoms: C9_13  and  N3_14
REMARK    4  A    between atoms: N3_14  and  C10_16
REMARK    5  A    between atoms: C13_19  and  C14_20
REMARK    6  A    between atoms: C15_21  and  C16_22
ROOT
HETATM    1  C16 UNL     1       2.311 -10.460  83.884  1.00  0.00    -0.035 A
HETATM    2  C17 UNL     1       2.870 -10.326  82.637  1.00  0.00     0.011 A
HETATM    3  C18 UNL     1       3.326 -11.419  81.916  1.00  0.00     0.002 A
HETATM    4  C19 UNL     1       3.235 -12.692  82.433  1.00  0.00     0.023 A
HETATM    5  C20 UNL     1       2.682 -12.857  83.676  1.00  0.00     0.045 A
HETATM    6  C21 UNL     1       2.587 -14.202  84.219  1.00  0.00     0.099 C
HETATM    7  N4  UNL     1       2.493 -15.273  84.651  1.00  0.00    -0.191 NA
HETATM    8  C22 UNL     1       2.236 -11.768  84.372  1.00  0.00     0.034 A
ENDROOT
BRANCH   1   9
HETATM    9  C15 UNL     1       1.818  -9.345  84.678  1.00  0.00     0.012 C
HETATM   10  C14 UNL     1       1.688  -9.408  85.968  1.00  0.00     0.012 C
BRANCH  10  11
HETATM   11  C13 UNL     1       1.190  -8.289  86.794  1.00  0.00    -0.036 A
HETATM   12  C12 UNL     1       2.038  -7.253  87.140  1.00  0.00     0.013 A
HETATM   13  C11 UNL     1       1.644  -6.180  87.907  1.00  0.00     0.030 A
HETATM   14  C10 UNL     1       0.346  -6.105  88.367  1.00  0.00     0.033 A
HETATM   15  C24 UNL     1      -0.506  -7.134  88.026  1.00  0.00     0.030 A
HETATM   16  C23 UNL     1      -0.104  -8.220  87.250  1.00  0.00     0.013 A
BRANCH  14  17
HETATM   17  N3  UNL     1      -0.104  -5.002  89.168  1.00  0.00    -0.342 N
ATOM     18  H3  UNL     1      -0.477  -5.184  90.100  1.00  0.00     0.167 HD
BRANCH  17  19
HETATM   19  C9  UNL     1      -0.048  -3.787  88.739  1.00  0.00     0.122 A
HETATM   20  C8  UNL     1       0.507  -2.766  89.483  1.00  0.00     0.066 A
HETATM   21  C7  UNL     1       0.541  -1.478  88.975  1.00  0.00     0.110 A
HETATM   22  N2  UNL     1       0.016  -1.265  87.737  1.00  0.00    -0.202 N
HETATM   23  C6  UNL     1      -0.525  -2.256  87.006  1.00  0.00     0.685 A
ATOM     24  H2  UNL     1       0.034  -0.322  87.350  1.00  0.00     0.183 HD
HETATM   25  N5  UNL     1      -0.549  -3.517  87.525  1.00  0.00    -0.176 N
ATOM     26  H5  UNL     1      -0.959  -4.273  86.975  1.00  0.00     0.186 HD
BRANCH  23  27
HETATM   27  N1  UNL     1      -1.027  -2.080  85.832  1.00  0.00    -0.176 N
ATOM     28  H1  UNL     1      -1.943  -1.640  85.740  1.00  0.00     0.186 HD
BRANCH  27  29
HETATM   29  C5  UNL     1      -0.330  -2.486  84.670  1.00  0.00     0.121 A
HETATM   30  C4  UNL     1       0.244  -1.656  83.749  1.00  0.00     0.051 A
HETATM   31  C3  UNL     1       0.814  -2.486  82.782  1.00  0.00     0.028 A
HETATM   32  C2  UNL     1       0.569  -3.797  83.143  1.00  0.00     0.007 A
HETATM   33  C1  UNL     1       0.994  -5.013  82.402  1.00  0.00     0.068 C
HETATM   34  N6  UNL     1      -0.132  -3.754  84.301  1.00  0.00    -0.346 N
ATOM     35  H6  UNL     1      -0.460  -4.570  84.815  1.00  0.00     0.167 HD
ENDBRANCH  27  29
ENDBRANCH  23  27
ENDBRANCH  17  19
ENDBRANCH  14  17
ENDBRANCH  10  11
ENDBRANCH   1   9
TORSDOF 6
ENDMDL