MODEL 4
REMARK VINA RESULT: -8.023518816      0.837      1.345
REMARK  5 active torsions:
REMARK  status: ('A' for Active; 'I' for Inactive)
REMARK    1  A    between atoms: N1_1  and  S1_4
REMARK    2  A    between atoms: S1_4  and  C1_7
REMARK    3  A    between atoms: C5_13  and  C6_14
REMARK    4  A    between atoms: C6_14  and  C7_15
REMARK    5  A    between atoms: C10_18  and  C11_19
ROOT
HETATM    1  C1  UNL     1       7.358  -2.501  80.090  1.00  0.00     0.080 A
HETATM    2  C2  UNL     1       6.160  -1.930  80.466  1.00  0.00     0.027 A
HETATM    3  C3  UNL     1       5.621  -2.221  81.696  1.00  0.00     0.032 A
HETATM    4  C4  UNL     1       6.223  -3.071  82.597  1.00  0.00     0.042 A
HETATM    5  N2  UNL     1       5.933  -3.523  83.830  1.00  0.00    -0.359 N
ATOM      6  H2  UNL     1       5.104  -3.271  84.368  1.00  0.00     0.166 HD
HETATM    7  C5  UNL     1       6.905  -4.358  84.246  1.00  0.00     0.014 A
HETATM    8  C21 UNL     1       7.849  -4.439  83.234  1.00  0.00     0.039 A
HETATM    9  C22 UNL     1       7.429  -3.636  82.199  1.00  0.00    -0.006 A
HETATM   10  C23 UNL     1       7.980  -3.356  80.975  1.00  0.00     0.039 A
ENDROOT
BRANCH   7  11
HETATM   11  C6  UNL     1       6.988  -5.070  85.523  1.00  0.00     0.095 C
BRANCH  11  12
HETATM   12  C7  UNL     1       6.292  -6.391  85.485  1.00  0.00    -0.052 A
HETATM   13  C8  UNL     1       5.859  -7.014  86.636  1.00  0.00     0.008 A
HETATM   14  C9  UNL     1       5.209  -8.248  86.603  1.00  0.00     0.015 A
HETATM   15  C10 UNL     1       4.981  -8.886  85.404  1.00  0.00    -0.002 A
HETATM   16  C19 UNL     1       5.413  -8.268  84.253  1.00  0.00     0.015 A
HETATM   17  C20 UNL     1       6.060  -7.038  84.289  1.00  0.00     0.008 A
BRANCH  15  18
HETATM   18  C11 UNL     1       4.296 -10.189  85.369  1.00  0.00     0.087 A
HETATM   19  C12 UNL     1       4.401 -11.198  86.304  1.00  0.00     0.052 A
HETATM   20  C13 UNL     1       3.605 -12.254  85.911  1.00  0.00     0.000 A
HETATM   21  C14 UNL     1       3.324 -13.496  86.442  1.00  0.00     0.014 A
HETATM   22  C18 UNL     1       3.031 -11.832  84.719  1.00  0.00     0.086 A
HETATM   23  C15 UNL     1       2.456 -14.358  85.791  1.00  0.00     0.001 A
HETATM   24  C16 UNL     1       1.875 -13.964  84.608  1.00  0.00     0.003 A
HETATM   25  C17 UNL     1       2.168 -12.723  84.097  1.00  0.00     0.038 A
HETATM   26  O3  UNL     1       3.468 -10.631  84.456  1.00  0.00    -0.309 OA
ENDBRANCH  15  18
ENDBRANCH  11  12
ENDBRANCH   7  11
BRANCH   1  27
HETATM   27  S1  UNL     1       8.087  -2.159  78.526  1.00  0.00     0.256 S
HETATM   28  O1  UNL     1       7.287  -2.873  77.467  1.00  0.00    -0.201 OA
HETATM   29  O2  UNL     1       9.485  -2.668  78.442  1.00  0.00    -0.201 OA
BRANCH  27  30
HETATM   30  N1  UNL     1       8.074  -0.463  78.257  1.00  0.00    -0.324 N
ATOM     31  H12 UNL     1       7.830  -0.031  77.365  1.00  0.00     0.169 HD
ATOM     32  H11 UNL     1       8.341   0.039  79.105  1.00  0.00     0.169 HD
ENDBRANCH  27  30
ENDBRANCH   1  27
TORSDOF 5
ENDMDL