MODEL 2
REMARK VINA RESULT: -7.243090466      4.756      6.725
REMARK  6 active torsions:
REMARK  status: ('A' for Active; 'I' for Inactive)
REMARK    1  A    between atoms: N1_2  and  C2_4
REMARK    2  A    between atoms: C2_4  and  N2_6
REMARK    3  A    between atoms: C5_9  and  C6_10
REMARK    4  A    between atoms: C5_9  and  C15_23
REMARK    5  A    between atoms: C7_11  and  C8_12
REMARK    6  A    between atoms: C12_16  and  C13_17
ROOT
HETATM    1  N2  UNL     1      42.470   0.875  24.996  1.00  0.00    -0.357 N
HETATM    2  C3  UNL     1      43.535   1.573  25.635  1.00  0.00     0.127 C
HETATM    3  C4  UNL     1      43.600   1.532  27.092  1.00  0.00     0.049 C
HETATM    4  C5  UNL     1      42.999   0.339  27.801  1.00  0.00     0.070 C
HETATM    5  C21 UNL     1      42.029  -0.469  27.038  1.00  0.00     0.125 C
HETATM    6 CL2  UNL     1      42.688  -2.144  26.944  1.00  0.00    -0.121 Cl
HETATM    7  C22 UNL     1      41.626  -0.030  25.693  1.00  0.00     0.147 C
ENDROOT
BRANCH   4   8
HETATM    8  C6  UNL     1      42.266   0.962  28.943  1.00  0.00    -0.083 C
HETATM    9  C7  UNL     1      41.701   1.445  29.917  1.00  0.00    -0.047 C
BRANCH   9  10
HETATM   10  C8  UNL     1      41.071   1.979  31.104  1.00  0.00     0.089 A
HETATM   11  C9  UNL     1      41.815   2.580  32.097  1.00  0.00     0.039 A
HETATM   12  C10 UNL     1      41.215   3.124  33.187  1.00  0.00     0.005 A
HETATM   13  C11 UNL     1      39.838   3.062  33.274  1.00  0.00     0.034 A
HETATM   14  C12 UNL     1      39.070   2.459  32.281  1.00  0.00     0.119 A
HETATM   15  N3  UNL     1      39.721   1.931  31.219  1.00  0.00    -0.341 N
HETATM   16  C14 UNL     1      38.927   1.301  30.208  1.00  0.00     0.157 C
BRANCH  14  17
HETATM   17  C13 UNL     1      37.622   2.431  32.412  1.00  0.00     0.432 C
HETATM   18  F1  UNL     1      37.270   3.037  33.630  1.00  0.00    -0.165 F
HETATM   19  F2  UNL     1      37.041   1.192  32.427  1.00  0.00    -0.165 F
HETATM   20  F3  UNL     1      37.068   3.285  31.446  1.00  0.00    -0.165 F
ENDBRANCH  14  17
ENDBRANCH   9  10
ENDBRANCH   4   8
BRANCH   4  21
HETATM   21  C15 UNL     1      44.083  -0.493  28.387  1.00  0.00    -0.034 A
HETATM   22  C16 UNL     1      45.291  -0.770  27.788  1.00  0.00     0.009 A
HETATM   23  C17 UNL     1      46.244  -1.581  28.389  1.00  0.00     0.002 A
HETATM   24  C18 UNL     1      45.949  -2.108  29.623  1.00  0.00     0.024 A
HETATM   25  C19 UNL     1      44.729  -1.841  30.259  1.00  0.00     0.034 A
HETATM   26 CL1  UNL     1      44.452  -2.543  31.835  1.00  0.00    -0.084 Cl
HETATM   27  C20 UNL     1      43.806  -1.039  29.641  1.00  0.00     0.032 A
ENDBRANCH   4  21
BRANCH   1  28
HETATM   28  C2  UNL     1      42.306   1.135  23.577  1.00  0.00     0.169 C
HETATM   29  S1  UNL     1      42.541  -0.069  22.508  1.00  0.00    -0.041 SA
BRANCH  28  30
HETATM   30  N1  UNL     1      41.947   2.423  23.111  1.00  0.00    -0.371 N
HETATM   31  C1  UNL     1      42.770   3.063  22.104  1.00  0.00     0.148 C
ATOM     32  H1  UNL     1      41.121   2.894  23.478  1.00  0.00     0.161 HD
ENDBRANCH  28  30
ENDBRANCH   1  28
TORSDOF 6
ENDMDL