MODEL 1
REMARK VINA RESULT: -4.236855784      0.000      0.000
REMARK  1 active torsions:
REMARK  status: ('A' for Active; 'I' for Inactive)
REMARK    1  A    between atoms: C2_2  and  O1_3
ROOT
HETATM    1  C1  UNL     1      44.880  -1.049  22.887  1.00  0.00     0.046 C
HETATM    2  C2  UNL     1      43.528  -0.472  23.349  1.00  0.00     0.060 C
HETATM    3  C3  UNL     1      43.662   1.005  23.309  1.00  0.00     0.059 C
HETATM    4  C4  UNL     1      42.299   1.588  23.000  1.00  0.00     0.104 C
HETATM    5 CL1  UNL     1      42.541   3.321  22.648  1.00  0.00    -0.123 Cl
HETATM    6  C5  UNL     1      41.378   1.349  24.139  1.00  0.00     0.115 C
HETATM    7 CL2  UNL     1      40.071   0.181  23.742  1.00  0.00    -0.122 Cl
HETATM    8  C6  UNL     1      42.026   1.013  25.436  1.00  0.00     0.083 C
HETATM    9 BR1  UNL     1      40.611   1.367  26.758  1.00  0.00    -0.089 Br
HETATM   10  C7  UNL     1      42.382  -0.410  25.617  1.00  0.00     0.017 C
HETATM   11  C8  UNL     1      43.210  -1.090  24.639  1.00  0.00     0.026 C
HETATM   12  C9  UNL     1      44.511  -1.383  25.405  1.00  0.00     0.019 C
HETATM   13  C10 UNL     1      43.900  -1.776  26.741  1.00  0.00     0.068 C
HETATM   14  C11 UNL     1      44.985  -2.025  27.698  1.00  0.00     0.261 C
HETATM   15  F1  UNL     1      45.918  -2.873  27.080  1.00  0.00    -0.205 F
HETATM   16  F2  UNL     1      44.630  -2.645  28.864  1.00  0.00    -0.205 F
HETATM   17  C12 UNL     1      45.764  -0.778  28.070  1.00  0.00     0.130 C
HETATM   18 BR2  UNL     1      46.940  -1.217  29.525  1.00  0.00    -0.085 Br
HETATM   19  C13 UNL     1      44.756   0.216  28.556  1.00  0.00     0.022 C
HETATM   20  C14 UNL     1      43.787   0.587  27.442  1.00  0.00     0.011 C
HETATM   21  C15 UNL     1      43.002  -0.612  27.005  1.00  0.00    -0.029 C
HETATM   22  C16 UNL     1      41.981  -0.990  28.038  1.00  0.00     0.016 C
ENDROOT
BRANCH   2  23
HETATM   23  O1  UNL     1      42.641  -0.840  22.307  1.00  0.00    -0.390 OA
ATOM     24  H1  UNL     1      43.206  -0.901  21.547  1.00  0.00     0.210 HD
ENDBRANCH   2  23
TORSDOF 1
ENDMDL