MODEL 1
REMARK VINA RESULT: -4.301601146      0.000      0.000
REMARK  1 active torsions:
REMARK  status: ('A' for Active; 'I' for Inactive)
REMARK    1  A    between atoms: C18_23  and  O1_25
ROOT
HETATM    1  C1  UNL     1      40.005   1.919  28.789  1.00  0.00     0.013 C
HETATM    2  C2  UNL     1      40.842   0.732  28.253  1.00  0.00     0.017 C
HETATM    3  C3  UNL     1      40.342   0.288  26.964  1.00  0.00     0.028 C
HETATM    4  C4  UNL     1      41.167   0.293  25.764  1.00  0.00     0.023 C
HETATM    5 BR1  UNL     1      40.014   0.679  24.204  1.00  0.00    -0.085 Br
HETATM    6  C5  UNL     1      42.249   1.309  25.642  1.00  0.00     0.037 C
HETATM    7  C6  UNL     1      43.566   0.917  26.275  1.00  0.00     0.034 C
HETATM    8  C7  UNL     1      44.292   2.237  26.607  1.00  0.00     0.022 C
HETATM    9  C8  UNL     1      43.245   0.303  27.595  1.00  0.00     0.048 C
HETATM   10  C9  UNL     1      42.890  -1.115  27.704  1.00  0.00     0.066 C
HETATM   11 BR2  UNL     1      44.396  -2.211  28.378  1.00  0.00    -0.091 Br
HETATM   12  C10 UNL     1      42.227  -1.838  26.638  1.00  0.00     0.023 C
HETATM   13  C11 UNL     1      41.668  -1.133  25.471  1.00  0.00     0.013 C
HETATM   14  C12 UNL     1      42.504  -1.039  24.275  1.00  0.00     0.037 C
HETATM   15  C13 UNL     1      42.559  -2.289  23.391  1.00  0.00     0.008 C
HETATM   16  C14 UNL     1      43.528  -1.771  22.316  1.00  0.00     0.004 C
HETATM   17  C15 UNL     1      44.238  -0.566  22.930  1.00  0.00     0.050 C
HETATM   18  C16 UNL     1      43.964  -0.824  24.438  1.00  0.00     0.173 C
HETATM   19  F1  UNL     1      44.686  -2.021  24.591  1.00  0.00    -0.236 F
HETATM   20  C17 UNL     1      44.432   0.212  25.337  1.00  0.00     0.287 C
HETATM   21  F2  UNL     1      45.549  -0.267  26.043  1.00  0.00    -0.202 F
HETATM   22  F3  UNL     1      45.006   1.177  24.473  1.00  0.00    -0.202 F
HETATM   23  C18 UNL     1      42.270   1.137  28.411  1.00  0.00     0.063 C
HETATM   24  C19 UNL     1      42.643   0.899  29.897  1.00  0.00     0.046 C
ENDROOT
BRANCH  23  25
HETATM   25  O1  UNL     1      42.357   2.489  28.288  1.00  0.00    -0.389 OA
ATOM     26  H1  UNL     1      41.663   2.788  27.713  1.00  0.00     0.210 HD
ENDBRANCH  23  25
TORSDOF 1
ENDMDL