MODEL 5
REMARK VINA RESULT: -4.693869248      1.102      1.208
REMARK  2 active torsions:
REMARK  status: ('A' for Active; 'I' for Inactive)
REMARK    1  A    between atoms: C7_7  and  C8_8
REMARK       I    between atoms: C8_8  and  N1_10
REMARK    2  A    between atoms: N1_10  and  C9_12
ROOT
HETATM    1  C1  UNL     1      44.150  -1.096  22.509  1.00  0.00     0.045 C
HETATM    2  C2  UNL     1      43.623   0.180  23.105  1.00  0.00    -0.064 C
HETATM    3  C3  UNL     1      42.258   0.483  22.695  1.00  0.00     0.004 C
HETATM    4  C4  UNL     1      41.106   0.772  23.239  1.00  0.00     0.000 C
HETATM    5  C5  UNL     1      40.647   0.928  24.594  1.00  0.00    -0.003 C
HETATM    6  C6  UNL     1      41.141   0.641  25.755  1.00  0.00    -0.006 C
HETATM    7  C7  UNL     1      42.312   0.054  26.446  1.00  0.00     0.083 C
HETATM    8  C14 UNL     1      41.704  -1.155  27.191  1.00  0.00     0.027 C
HETATM    9  C15 UNL     1      42.700  -1.842  28.038  1.00  0.00     0.019 C
HETATM   10  C16 UNL     1      43.978  -2.125  27.373  1.00  0.00     0.078 C
HETATM   11 BR1  UNL     1      45.360  -1.999  28.763  1.00  0.00    -0.090 Br
HETATM   12  C17 UNL     1      44.425  -1.278  26.252  1.00  0.00     0.123 C
HETATM   13 CL1  UNL     1      45.905  -0.363  26.623  1.00  0.00    -0.122 Cl
HETATM   14  C18 UNL     1      43.350  -0.486  25.554  1.00  0.00     0.095 C
HETATM   15 CL2  UNL     1      42.444  -1.835  24.696  1.00  0.00    -0.114 Cl
HETATM   16  C19 UNL     1      43.961   0.404  24.547  1.00  0.00     0.137 C
HETATM   17 CL3  UNL     1      43.696   2.155  24.829  1.00  0.00    -0.118 Cl
ENDROOT
BRANCH   7  18
HETATM   18  C8  UNL     1      42.682   0.995  27.515  1.00  0.00     0.237 C
HETATM   19  O1  UNL     1      43.751   1.570  27.715  1.00  0.00    -0.272 OA
HETATM   20  N1  UNL     1      41.668   1.290  28.459  1.00  0.00    -0.312 N
ATOM     21  H1  UNL     1      40.732   1.385  28.065  1.00  0.00     0.170 HD
BRANCH  20  22
HETATM   22  C9  UNL     1      41.734   1.453  29.704  1.00  0.00     0.110 A
HETATM   23  C10 UNL     1      41.153   2.437  30.450  1.00  0.00     0.090 A
HETATM   24  C11 UNL     1      41.312   2.484  31.807  1.00  0.00     0.121 A
HETATM   25  F1  UNL     1      40.740   3.458  32.582  1.00  0.00    -0.206 F
HETATM   26  C12 UNL     1      42.063   1.538  32.460  1.00  0.00     0.059 A
HETATM   27  C13 UNL     1      42.641   0.554  31.687  1.00  0.00     0.092 A
HETATM   28  N2  UNL     1      42.478   0.523  30.375  1.00  0.00    -0.352 N
ATOM     29  H2  UNL     1      42.925  -0.224  29.842  1.00  0.00     0.166 HD
ENDBRANCH  20  22
ENDBRANCH   7  18
TORSDOF 2
ENDMDL