MODEL 4
REMARK VINA RESULT: -4.927333657      2.790      4.208
REMARK  1 active torsions:
REMARK  status: ('A' for Active; 'I' for Inactive)
REMARK    1  A    between atoms: N1_2  and  C2_4
ROOT
HETATM    1  C2  UNL     1      44.349  -0.664  23.976  1.00  0.00     0.097 C
HETATM    2 BR1  UNL     1      46.198  -0.272  24.571  1.00  0.00    -0.061 Br
HETATM    3  C3  UNL     1      44.079   0.487  23.109  1.00  0.00     0.051 C
HETATM    4  C4  UNL     1      44.195   1.807  23.846  1.00  0.00    -0.022 C
HETATM    5  C5  UNL     1      43.575   2.098  24.954  1.00  0.00    -0.019 C
HETATM    6  C6  UNL     1      42.650   1.362  25.803  1.00  0.00     0.085 C
HETATM    7  C7  UNL     1      42.280   0.003  25.309  1.00  0.00     0.009 C
HETATM    8  C8  UNL     1      41.303  -0.038  24.193  1.00  0.00     0.006 C
HETATM    9  C9  UNL     1      41.573   0.880  23.061  1.00  0.00     0.005 C
HETATM   10  C10 UNL     1      42.839   0.569  22.311  1.00  0.00    -0.008 C
HETATM   11  C11 UNL     1      42.558  -0.543  21.360  1.00  0.00     0.011 C
HETATM   12  C12 UNL     1      43.467  -0.917  25.136  1.00  0.00     0.060 C
HETATM   13  C13 UNL     1      44.088  -1.080  26.482  1.00  0.00     0.088 C
HETATM   14 BR2  UNL     1      42.713  -1.979  27.580  1.00  0.00    -0.072 Br
HETATM   15 BR3  UNL     1      45.571  -2.291  26.563  1.00  0.00    -0.072 Br
HETATM   16  C14 UNL     1      44.372   0.194  27.232  1.00  0.00     0.113 C
HETATM   17  C15 UNL     1      43.287   1.209  27.172  1.00  0.00     0.253 C
HETATM   18  F1  UNL     1      43.861   2.459  27.454  1.00  0.00    -0.206 F
HETATM   19  F2  UNL     1      42.328   1.026  28.160  1.00  0.00    -0.206 F
ENDROOT
BRANCH   1  20
HETATM   20  N1  UNL     1      44.512  -1.860  23.196  1.00  0.00    -0.407 N
HETATM   21  C1  UNL     1      43.512  -2.844  23.219  1.00  0.00     0.141 C
ATOM     22  H1  UNL     1      45.349  -1.993  22.628  1.00  0.00     0.154 HD
ENDBRANCH   1  20
TORSDOF 1
ENDMDL