MODEL 2
REMARK VINA RESULT: -3.585855306      3.028      4.480
REMARK  1 active torsions:
REMARK  status: ('A' for Active; 'I' for Inactive)
REMARK    1  A    between atoms: C19_24  and  C20_25
ROOT
HETATM    1  O1  UNL     1      42.977   1.733  24.748  1.00  0.00    -0.273 OA
HETATM    2  C1  UNL     1      43.770   0.779  24.548  1.00  0.00     0.228 C
HETATM    3  N1  UNL     1      45.098   1.187  24.259  1.00  0.00    -0.360 N
ATOM      4  H1  UNL     1      45.236   2.106  23.838  1.00  0.00     0.162 HD
HETATM    5  C2  UNL     1      46.269   0.378  24.526  1.00  0.00     0.123 C
HETATM    6  C3  UNL     1      45.853  -1.090  24.418  1.00  0.00     0.025 C
HETATM    7  C4  UNL     1      44.563  -1.345  25.167  1.00  0.00     0.007 C
HETATM    8  C5  UNL     1      44.914  -0.952  26.604  1.00  0.00     0.006 C
HETATM    9  C6  UNL     1      44.568  -2.037  27.598  1.00  0.00     0.000 C
HETATM   10  C7  UNL     1      45.364  -1.820  28.860  1.00  0.00     0.000 C
HETATM   11  C8  UNL     1      44.860  -0.693  29.698  1.00  0.00     0.000 C
HETATM   12  C9  UNL     1      43.652  -1.107  30.477  1.00  0.00     0.000 C
HETATM   13  C10 UNL     1      43.126  -0.004  31.363  1.00  0.00     0.001 C
HETATM   14  C11 UNL     1      42.697   1.223  30.590  1.00  0.00     0.016 C
HETATM   15  C12 UNL     1      41.521   0.921  29.723  1.00  0.00     0.058 C
HETATM   16 BR1  UNL     1      39.955   1.949  30.286  1.00  0.00    -0.091 Br
HETATM   17  C13 UNL     1      41.718   1.167  28.272  1.00  0.00     0.027 C
HETATM   18  C14 UNL     1      41.009   0.117  27.412  1.00  0.00     0.081 C
HETATM   19  C15 UNL     1      41.507  -0.377  26.325  1.00  0.00    -0.175 C
HETATM   20  C16 UNL     1      42.046  -0.909  25.152  1.00  0.00     0.089 C
HETATM   21  C17 UNL     1      41.133  -0.550  23.988  1.00  0.00     0.099 C
HETATM   22 CL1  UNL     1      40.061   0.843  24.399  1.00  0.00    -0.124 Cl
HETATM   23  C18 UNL     1      41.956  -0.315  22.787  1.00  0.00     0.036 C
HETATM   24  C19 UNL     1      43.229  -1.085  23.181  1.00  0.00     0.114 C
HETATM   25  C21 UNL     1      43.373  -0.650  24.604  1.00  0.00     0.071 C
ENDROOT
BRANCH  24  26
HETATM   26  C20 UNL     1      43.065  -2.445  22.744  1.00  0.00     0.392 C
HETATM   27  F1  UNL     1      42.612  -2.368  21.391  1.00  0.00    -0.171 F
HETATM   28  F2  UNL     1      41.969  -3.165  23.264  1.00  0.00    -0.171 F
HETATM   29  F3  UNL     1      44.063  -3.347  22.708  1.00  0.00    -0.171 F
ENDBRANCH  24  26
TORSDOF 1
ENDMDL