MODEL 1
REMARK VINA RESULT: -3.204986798      0.000      0.000
REMARK  4 active torsions:
REMARK  status: ('A' for Active; 'I' for Inactive)
REMARK       I    between atoms: C2_2  and  N1_4
REMARK    1  A    between atoms: N1_4  and  C3_6
REMARK    2  A    between atoms: C14_18  and  C15_19
REMARK    3  A    between atoms: C21_29  and  O2_30
REMARK    4  A    between atoms: C21_29  and  N3_32
ROOT
HETATM    1  C3  UNL     1      40.013   2.556  33.818  1.00  0.00     0.048 C
HETATM    2  C4  UNL     1      38.872   3.545  33.371  1.00  0.00     0.040 C
HETATM    3  C5  UNL     1      39.173   1.728  34.854  1.00  0.00     0.033 C
HETATM    4  C6  UNL     1      38.114   2.519  35.522  1.00  0.00     0.017 C
HETATM    5  C7  UNL     1      38.743   0.581  34.124  1.00  0.00    -0.023 C
HETATM    6  C8  UNL     1      39.374   0.519  32.990  1.00  0.00    -0.017 C
HETATM    7  C9  UNL     1      40.360   1.653  32.768  1.00  0.00     0.019 C
HETATM    8  C10 UNL     1      39.841   2.166  31.421  1.00  0.00     0.059 C
HETATM    9  C11 UNL     1      40.815   1.759  30.410  1.00  0.00    -0.011 A
HETATM   10  C12 UNL     1      40.734   2.053  29.037  1.00  0.00     0.124 A
HETATM   11  F1  UNL     1      39.819   2.941  28.590  1.00  0.00    -0.206 F
HETATM   12  C13 UNL     1      41.626   1.433  28.184  1.00  0.00     0.059 A
HETATM   13  C14 UNL     1      42.573   0.540  28.710  1.00  0.00     0.051 A
HETATM   14  C16 UNL     1      42.603   0.311  30.064  1.00  0.00     0.025 A
HETATM   15  C17 UNL     1      41.705   0.931  30.952  1.00  0.00    -0.038 A
HETATM   16  C18 UNL     1      41.620   0.994  32.423  1.00  0.00     0.004 C
HETATM   17  C19 UNL     1      42.913   1.698  32.788  1.00  0.00     0.035 C
HETATM   18  C20 UNL     1      43.436   1.369  34.151  1.00  0.00     0.127 C
HETATM   19  N2  UNL     1      43.970  -0.033  34.095  1.00  0.00    -0.347 N
HETATM   20  C21 UNL     1      45.199  -0.257  34.640  1.00  0.00     0.216 C
HETATM   21  C24 UNL     1      43.083  -0.893  33.401  1.00  0.00     0.127 C
HETATM   22  C25 UNL     1      41.753  -0.377  33.003  1.00  0.00     0.035 C
ENDROOT
BRANCH   1  23
HETATM   23  N1  UNL     1      40.784   3.379  34.646  1.00  0.00    -0.351 N
HETATM   24  C2  UNL     1      41.575   4.527  34.390  1.00  0.00     0.214 C
HETATM   25  C1  UNL     1      42.273   5.260  35.497  1.00  0.00     0.117 C
HETATM   26  O1  UNL     1      41.720   4.976  33.245  1.00  0.00    -0.274 OA
ATOM     27  H1  UNL     1      40.776   3.098  35.627  1.00  0.00     0.163 HD
ENDBRANCH   1  23
BRANCH  13  28
HETATM   28  C15 UNL     1      43.525  -0.152  27.806  1.00  0.00     0.417 C
HETATM   29  F2  UNL     1      43.727   0.709  26.714  1.00  0.00    -0.166 F
HETATM   30  F3  UNL     1      42.912  -1.274  27.212  1.00  0.00    -0.166 F
HETATM   31  F4  UNL     1      44.665  -0.583  28.363  1.00  0.00    -0.166 F
ENDBRANCH  13  28
BRANCH  20  32
HETATM   32  O2  UNL     1      45.812   0.870  35.041  1.00  0.00    -0.333 OA
ATOM     33  H2  UNL     1      46.575   0.707  35.582  1.00  0.00     0.220 HD
ENDBRANCH  20  32
BRANCH  20  34
HETATM   34  N3  UNL     1      45.969  -1.382  34.886  1.00  0.00    -0.356 N
HETATM   35  C22 UNL     1      45.523  -2.592  35.521  1.00  0.00     0.152 C
HETATM   36  C23 UNL     1      47.394  -1.449  34.449  1.00  0.00     0.152 C
ENDBRANCH  20  34
TORSDOF 4
ENDMDL