MODEL 3
REMARK VINA RESULT: -7.080753142      8.482     11.209
REMARK  6 active torsions:
REMARK  status: ('A' for Active; 'I' for Inactive)
REMARK    1  A    between atoms: C9_9  and  O1_10
REMARK    2  A    between atoms: O1_10  and  C10_11
REMARK    3  A    between atoms: C10_11  and  N1_12
REMARK    4  A    between atoms: C10_11  and  S1_18
REMARK    5  A    between atoms: N1_12  and  C11_14
REMARK    6  A    between atoms: S1_18  and  N2_19
ROOT
HETATM    1  O1  UNL     1       1.022  61.324  71.450  1.00  0.00    -0.323 OA
ENDROOT
BRANCH   1   2
HETATM    2  C9  UNL     1       0.629  60.252  72.219  1.00  0.00     0.142 C
HETATM    3  C2  UNL     1       1.732  59.343  72.675  1.00  0.00     0.012 C
HETATM    4  C1  UNL     1       2.480  58.875  71.442  1.00  0.00     0.012 C
HETATM    5  C3  UNL     1       1.054  58.084  73.227  1.00  0.00     0.007 C
HETATM    6  C4  UNL     1       0.128  58.401  74.351  1.00  0.00     0.001 C
HETATM    7  C5  UNL     1      -0.961  59.323  73.802  1.00  0.00     0.011 C
HETATM    8  C6  UNL     1      -0.337  60.622  73.332  1.00  0.00    -0.021 C
HETATM    9  C7  UNL     1       0.267  61.323  74.485  1.00  0.00     0.017 C
HETATM   10  C8  UNL     1      -1.452  61.421  72.678  1.00  0.00     0.017 C
ENDBRANCH   1   2
BRANCH   1  11
HETATM   11  C10 UNL     1       1.817  62.365  71.599  1.00  0.00     0.197 C
BRANCH  11  12
HETATM   12  N1  UNL     1       3.178  62.392  71.739  1.00  0.00    -0.356 N
ATOM     13  H1  UNL     1       3.519  62.514  72.693  1.00  0.00     0.163 HD
BRANCH  12  14
HETATM   14  C11 UNL     1       4.202  62.272  70.718  1.00  0.00     0.021 C
HETATM   15  C12 UNL     1       3.802  61.699  69.416  1.00  0.00     0.037 C
HETATM   16  C13 UNL     1       4.861  63.629  70.468  1.00  0.00     0.037 C
HETATM   17  C14 UNL     1       5.331  61.390  71.269  1.00  0.00     0.037 C
ENDBRANCH  12  14
ENDBRANCH  11  12
BRANCH  11  18
HETATM   18  S1  UNL     1       1.075  63.827  71.597  1.00  0.00     0.038 SA
BRANCH  18  19
HETATM   19  N2  UNL     1       1.186  64.398  70.030  1.00  0.00    -0.060 NA
HETATM   20 CL1  UNL     1       1.551  66.132  70.016  1.00  0.00     0.010 Cl
ENDBRANCH  18  19
ENDBRANCH  11  18
ENDBRANCH   1  11
TORSDOF 6
ENDMDL