MODEL 3
REMARK VINA RESULT: -6.955867935      3.362      5.251
REMARK  1 active torsions:
REMARK  status: ('A' for Active; 'I' for Inactive)
REMARK    1  A    between atoms: C2_2  and  O1_3
ROOT
HETATM    1  C1  UNL     1       1.884  58.319  75.535  1.00  0.00     0.052 C
HETATM    2  C2  UNL     1       2.748  59.067  74.523  1.00  0.00     0.092 C
HETATM    3  C3  UNL     1       2.809  60.496  74.980  1.00  0.00     0.044 C
HETATM    4  C4  UNL     1       2.920  61.458  73.822  1.00  0.00     0.013 C
HETATM    5  C5  UNL     1       3.585  60.783  72.613  1.00  0.00     0.025 C
HETATM    6  C6  UNL     1       2.670  59.716  72.196  1.00  0.00    -0.054 C
HETATM    7  C7  UNL     1       2.261  58.867  73.155  1.00  0.00     0.048 C
HETATM    8 CL1  UNL     1       1.156  57.561  72.712  1.00  0.00    -0.086 Cl
HETATM    9  C8  UNL     1       2.191  59.529  70.817  1.00  0.00     0.037 C
HETATM   10  C9  UNL     1       2.093  60.897  70.183  1.00  0.00     0.014 C
HETATM   11  C10 UNL     1       3.487  61.487  70.198  1.00  0.00    -0.035 C
HETATM   12  C11 UNL     1       4.433  60.603  69.442  1.00  0.00     0.016 C
HETATM   13  C12 UNL     1       3.410  62.811  69.464  1.00  0.00     0.026 C
HETATM   14  C13 UNL     1       3.391  63.882  70.502  1.00  0.00     0.060 C
HETATM   15  S1  UNL     1       1.899  64.920  70.264  1.00  0.00    -0.092 SA
HETATM   16  C14 UNL     1       3.247  63.145  71.839  1.00  0.00     0.026 C
HETATM   17  C15 UNL     1       3.928  61.796  71.596  1.00  0.00    -0.028 C
HETATM   18  C16 UNL     1       5.414  62.062  71.641  1.00  0.00     0.016 C
ENDROOT
BRANCH   2  19
HETATM   19  O1  UNL     1       4.052  58.543  74.683  1.00  0.00    -0.384 OA
ATOM     20  H1  UNL     1       4.639  59.248  74.437  1.00  0.00     0.211 HD
ENDBRANCH   2  19
TORSDOF 1
ENDMDL