MODEL 5
REMARK VINA RESULT: -7.164267651      2.342      5.900
REMARK  2 active torsions:
REMARK  status: ('A' for Active; 'I' for Inactive)
REMARK    1  A    between atoms: N2_12  and  C8_13
REMARK    2  A    between atoms: C10_15  and  C11_16
ROOT
HETATM    1  C1  UNL     1       5.396  61.147  72.284  1.00  0.00     0.032 C
HETATM    2  C2  UNL     1       3.923  61.480  72.026  1.00  0.00     0.087 C
HETATM    3  C3  UNL     1       3.850  62.456  70.920  1.00  0.00     0.062 C
HETATM    4  C4  UNL     1       3.100  62.015  69.701  1.00  0.00     0.065 C
HETATM    5  C5  UNL     1       1.600  62.318  69.819  1.00  0.00     0.046 C
HETATM    6  C6  UNL     1       3.602  62.818  68.519  1.00  0.00     0.046 C
HETATM    7  O1  UNL     1       3.290  60.643  69.380  1.00  0.00    -0.312 OA
HETATM    8  C7  UNL     1       3.163  59.765  70.477  1.00  0.00     0.216 C
HETATM    9  N1  UNL     1       3.052  58.514  70.219  1.00  0.00    -0.365 N
ATOM     10  H11 UNL     1       2.960  57.880  71.013  1.00  0.00     0.159 HD
ATOM     11  H12 UNL     1       3.055  58.154  69.265  1.00  0.00     0.159 HD
HETATM   12  N2  UNL     1       3.159  60.267  71.807  1.00  0.00    -0.337 N
ENDROOT
BRANCH  12  13
HETATM   13  C8  UNL     1       2.428  59.587  72.824  1.00  0.00     0.107 C
HETATM   14  C9  UNL     1       0.972  60.054  72.896  1.00  0.00     0.032 C
HETATM   15  C10 UNL     1       0.555  59.939  74.322  1.00  0.00    -0.004 C
HETATM   16  C15 UNL     1       1.757  59.547  75.124  1.00  0.00     0.027 C
HETATM   17  C16 UNL     1       2.953  59.841  74.216  1.00  0.00     0.105 C
HETATM   18 CL1  UNL     1       4.237  58.717  74.694  1.00  0.00    -0.123 Cl
BRANCH  15  19
HETATM   19  C11 UNL     1      -0.566  58.947  74.546  1.00  0.00    -0.048 C
HETATM   20  C12 UNL     1      -1.899  59.522  74.156  1.00  0.00     0.015 C
HETATM   21  C13 UNL     1      -0.603  58.628  76.025  1.00  0.00     0.015 C
HETATM   22  C14 UNL     1      -0.363  57.666  73.780  1.00  0.00     0.015 C
ENDBRANCH  15  19
ENDBRANCH  12  13
TORSDOF 2
ENDMDL