MODEL 4
REMARK VINA RESULT: -6.617259415      4.011      7.209
REMARK  4 active torsions:
REMARK  status: ('A' for Active; 'I' for Inactive)
REMARK    1  A    between atoms: C2_2  and  C3_4
REMARK    2  A    between atoms: C6_7  and  N1_9
REMARK       I    between atoms: N1_9  and  C8_11
REMARK    3  A    between atoms: C8_11  and  O2_13
REMARK    4  A    between atoms: O2_13  and  C9_14
ROOT
HETATM    1  C3  UNL     1       2.607  61.991  70.318  1.00  0.00    -0.018 C
HETATM    2  C4  UNL     1       2.770  62.077  68.826  1.00  0.00     0.018 C
HETATM    3  C5  UNL     1       1.142  62.293  70.668  1.00  0.00     0.042 C
HETATM    4  C6  UNL     1       1.055  63.770  70.852  1.00  0.00     0.033 C
HETATM    5  C7  UNL     1       0.254  64.141  72.082  1.00  0.00     0.038 C
HETATM    6  C13 UNL     1       2.457  64.288  71.062  1.00  0.00     0.040 C
HETATM    7  C14 UNL     1       3.364  63.049  71.054  1.00  0.00    -0.037 C
HETATM    8  C15 UNL     1       4.633  63.473  70.383  1.00  0.00     0.015 C
HETATM    9  C16 UNL     1       3.654  62.713  72.481  1.00  0.00     0.015 C
ENDROOT
BRANCH   4  10
HETATM   10  N1  UNL     1       0.411  64.424  69.716  1.00  0.00    -0.328 N
HETATM   11  C8  UNL     1       0.112  65.798  69.724  1.00  0.00     0.361 C
HETATM   12  O1  UNL     1       0.382  66.552  70.714  1.00  0.00    -0.238 OA
ATOM     13  H1  UNL     1       0.172  63.869  68.894  1.00  0.00     0.165 HD
BRANCH  11  14
HETATM   14  O2  UNL     1      -0.493  66.401  68.650  1.00  0.00    -0.294 OA
BRANCH  14  15
HETATM   15  C9  UNL     1       0.104  67.387  67.863  1.00  0.00     0.061 C
HETATM   16  C10 UNL     1      -0.941  68.485  67.650  1.00  0.00     0.046 C
HETATM   17  C11 UNL     1       1.278  68.056  68.543  1.00  0.00     0.046 C
HETATM   18  C12 UNL     1       0.511  66.905  66.498  1.00  0.00     0.046 C
ENDBRANCH  14  15
ENDBRANCH  11  14
ENDBRANCH   4  10
BRANCH   1  19
HETATM   19  C2  UNL     1       2.860  60.595  70.777  1.00  0.00     0.087 C
HETATM   20  C1  UNL     1       3.051  59.605  69.662  1.00  0.00     0.027 C
HETATM   21 CL1  UNL     1       1.396  60.065  71.681  1.00  0.00    -0.125 Cl
ENDBRANCH   1  19
TORSDOF 4
ENDMDL