MODEL 2
REMARK VINA RESULT: -9.133428504      2.673      4.561
REMARK  1 active torsions:
REMARK  status: ('A' for Active; 'I' for Inactive)
REMARK    1  A    between atoms: C3_4  and  C4_5
ROOT
HETATM    1  O1  UNL     1      -0.808  68.686  63.593  1.00  0.00    -0.274 OA
HETATM    2  C1  UNL     1       0.108  68.641  64.452  1.00  0.00     0.218 C
HETATM    3  C2  UNL     1       1.456  69.038  64.090  1.00  0.00     0.117 C
HETATM    4  C3  UNL     1       2.564  68.372  64.852  1.00  0.00    -0.002 C
HETATM    5  C8  UNL     1       3.501  69.532  65.248  1.00  0.00     0.019 C
HETATM    6  C9  UNL     1       4.547  69.175  66.214  1.00  0.00     0.028 C
HETATM    7  C10 UNL     1       4.697  70.135  67.333  1.00  0.00    -0.027 C
HETATM    8  C11 UNL     1       3.962  70.591  68.279  1.00  0.00    -0.008 C
HETATM    9  C12 UNL     1       2.650  70.514  68.861  1.00  0.00    -0.027 C
HETATM   10  C13 UNL     1       1.523  69.723  68.395  1.00  0.00     0.027 C
HETATM   11  C14 UNL     1       1.526  68.249  68.723  1.00  0.00     0.006 C
HETATM   12  C15 UNL     1       0.586  67.450  67.907  1.00  0.00     0.025 C
HETATM   13  C16 UNL     1       0.810  67.393  66.421  1.00  0.00     0.085 C
HETATM   14  C17 UNL     1       2.200  67.538  65.992  1.00  0.00     0.040 C
HETATM   15  N1  UNL     1      -0.165  68.210  65.755  1.00  0.00    -0.356 N
ATOM     16  H1  UNL     1      -1.035  68.469  66.220  1.00  0.00     0.162 HD
ENDROOT
BRANCH   4  17
HETATM   17  C4  UNL     1       3.347  67.581  63.811  1.00  0.00    -0.042 A
HETATM   18  C5  UNL     1       3.698  66.281  63.983  1.00  0.00     0.015 A
HETATM   19  C6  UNL     1       4.412  65.685  62.983  1.00  0.00     0.050 A
HETATM   20  S1  UNL     1       4.591  66.902  61.824  1.00  0.00    -0.113 SA
HETATM   21  C7  UNL     1       3.745  68.164  62.643  1.00  0.00     0.057 A
ENDBRANCH   4  17
TORSDOF 1
ENDMDL