MODEL 3
REMARK VINA RESULT: -7.345828308      2.053      5.577
REMARK  1 active torsions:
REMARK  status: ('A' for Active; 'I' for Inactive)
REMARK    1  A    between atoms: C3_3  and  C4_4
ROOT
HETATM    1  C4  UNL     1       1.072  67.750  67.000  1.00  0.00     0.123 C
HETATM    2  C5  UNL     1       1.060  66.838  68.197  1.00  0.00     0.055 C
HETATM    3  O1  UNL     1       1.318  67.089  65.809  1.00  0.00    -0.224 OA
HETATM    4  O2  UNL     1       2.630  66.964  65.584  1.00  0.00    -0.229 OA
HETATM    5  C6  UNL     1       3.034  68.131  64.967  1.00  0.00     0.097 C
HETATM    6  C7  UNL     1       4.537  68.283  64.921  1.00  0.00     0.041 C
HETATM    7  C8  UNL     1       4.848  69.452  64.047  1.00  0.00     0.003 C
HETATM    8  C9  UNL     1       5.275  69.076  62.654  1.00  0.00     0.000 C
HETATM    9  C10 UNL     1       4.214  68.424  61.844  1.00  0.00     0.000 C
HETATM   10  C11 UNL     1       3.394  67.410  62.597  1.00  0.00     0.003 C
HETATM   11  C12 UNL     1       2.480  68.122  63.559  1.00  0.00     0.041 C
HETATM   12  C13 UNL     1       2.493  69.293  65.776  1.00  0.00     0.060 C
HETATM   13  C14 UNL     1       2.210  68.766  67.167  1.00  0.00     0.102 C
HETATM   14 BR1  UNL     1       1.721  70.169  68.392  1.00  0.00    -0.087 Br
ENDROOT
BRANCH   1  15
HETATM   15  C3  UNL     1      -0.183  68.578  66.919  1.00  0.00     0.010 C
HETATM   16  C2  UNL     1      -1.204  68.225  66.167  1.00  0.00    -0.032 C
HETATM   17  C1  UNL     1      -2.430  69.044  66.095  1.00  0.00     0.036 C
ENDBRANCH   1  15
TORSDOF 1
ENDMDL