MODEL 3
REMARK VINA RESULT: -7.611433598      2.142      3.740
REMARK  2 active torsions:
REMARK  status: ('A' for Active; 'I' for Inactive)
REMARK    1  A    between atoms: C2_2  and  N1_5
REMARK    2  A    between atoms: C5_6  and  C6_7
ROOT
HETATM    1  N1  UNL     1       1.358  61.175  72.725  1.00  0.00     0.126 N
HETATM    2  C5  UNL     1       1.760  60.952  71.374  1.00  0.00     0.323 C
HETATM    3  S1  UNL     1       2.650  59.350  71.319  1.00  0.00    -0.117 SA
HETATM    4  C12 UNL     1       2.421  59.039  73.085  1.00  0.00     0.038 C
HETATM    5  C13 UNL     1       2.031  57.577  73.123  1.00  0.00     0.029 C
HETATM    6  C14 UNL     1       3.679  59.143  73.863  1.00  0.00     0.029 C
HETATM    7  C15 UNL     1       1.313  59.982  73.477  1.00  0.00     0.171 C
HETATM    8  C16 UNL     1       1.510  60.140  74.970  1.00  0.00     0.050 C
HETATM    9  C17 UNL     1       0.029  59.180  73.366  1.00  0.00     0.050 C
ENDROOT
BRANCH   2  10
HETATM   10  C6  UNL     1       2.803  61.850  70.813  1.00  0.00     0.023 A
HETATM   11  C7  UNL     1       3.802  62.423  71.538  1.00  0.00     0.013 A
HETATM   12  C8  UNL     1       4.750  63.230  70.974  1.00  0.00     0.001 A
HETATM   13  C9  UNL     1       4.685  63.466  69.620  1.00  0.00     0.003 A
HETATM   14  C10 UNL     1       3.693  62.905  68.863  1.00  0.00     0.043 A
HETATM   15  C11 UNL     1       2.764  62.103  69.466  1.00  0.00     0.125 A
HETATM   16  F1  UNL     1       1.796  61.564  68.686  1.00  0.00    -0.205 F
ENDBRANCH   2  10
BRANCH   1  17
HETATM   17  C2  UNL     1       0.274  62.076  72.851  1.00  0.00     0.152 C
HETATM   18  C1  UNL     1      -0.409  62.314  71.486  1.00  0.00     0.048 C
HETATM   19  C3  UNL     1      -0.859  61.685  73.761  1.00  0.00     0.048 C
HETATM   20  C4  UNL     1       0.637  63.503  73.253  1.00  0.00     0.048 C
ENDBRANCH   1  17
TORSDOF 2
ENDMDL