MODEL 4
REMARK VINA RESULT: -7.724503890     11.598     12.910
REMARK  3 active torsions:
REMARK  status: ('A' for Active; 'I' for Inactive)
REMARK    1  A    between atoms: C2_2  and  C4_5
REMARK    2  A    between atoms: C6_7  and  C7_8
REMARK    3  A    between atoms: C7_8  and  O1_9
ROOT
HETATM    1  C4  UNL     1      -0.580  59.433  74.478  1.00  0.00     0.022 A
HETATM    2  C5  UNL     1       0.483  59.912  73.709  1.00  0.00     0.041 A
HETATM    3  C6  UNL     1       1.680  59.266  73.547  1.00  0.00     0.044 A
HETATM    4  N1  UNL     1       1.804  58.073  74.210  1.00  0.00    -0.364 N
ATOM      5  H1  UNL     1       2.679  57.555  74.124  1.00  0.00     0.165 HD
HETATM    6  C17 UNL     1       0.825  57.558  74.969  1.00  0.00     0.131 A
HETATM    7  C18 UNL     1      -0.394  58.238  75.113  1.00  0.00     0.141 A
HETATM    8  F2  UNL     1      -1.367  57.687  75.897  1.00  0.00    -0.204 F
ENDROOT
BRANCH   3   9
HETATM    9  C7  UNL     1       2.767  59.698  72.637  1.00  0.00     0.100 C
HETATM   10  C8  UNL     1       3.467  60.837  73.381  1.00  0.00     0.045 C
HETATM   11  C9  UNL     1       3.629  62.044  72.488  1.00  0.00     0.013 C
HETATM   12  C10 UNL     1       4.283  61.623  71.154  1.00  0.00    -0.041 C
HETATM   13  C11 UNL     1       4.541  62.958  70.445  1.00  0.00     0.015 C
HETATM   14  C12 UNL     1       5.610  61.036  71.431  1.00  0.00     0.015 C
HETATM   15  C13 UNL     1       3.264  60.810  70.435  1.00  0.00    -0.038 C
HETATM   16  C14 UNL     1       3.807  59.893  69.395  1.00  0.00     0.015 C
HETATM   17  C15 UNL     1       2.415  61.818  69.630  1.00  0.00     0.015 C
HETATM   18  C16 UNL     1       2.257  60.104  71.316  1.00  0.00     0.053 C
BRANCH   9  19
HETATM   19  O1  UNL     1       3.628  58.577  72.561  1.00  0.00    -0.384 OA
ATOM     20  H1  UNL     1       3.150  57.881  72.997  1.00  0.00     0.211 HD
ENDBRANCH   9  19
ENDBRANCH   3   9
BRANCH   1  21
HETATM   21  C2  UNL     1      -1.899  60.135  74.510  1.00  0.00     0.126 C
HETATM   22  C1  UNL     1      -2.002  61.067  73.303  1.00  0.00     0.057 C
HETATM   23  C3  UNL     1      -2.166  60.887  75.763  1.00  0.00     0.057 C
HETATM   24  F1  UNL     1      -2.904  59.192  74.319  1.00  0.00    -0.238 F
ENDBRANCH   1  21
TORSDOF 3
ENDMDL