MODEL 4
REMARK VINA RESULT: -7.836292892      7.943     10.051
REMARK  2 active torsions:
REMARK  status: ('A' for Active; 'I' for Inactive)
REMARK    1  A    between atoms: C2_2  and  N2_6
REMARK    2  A    between atoms: N2_6  and  N3_8
ROOT
HETATM    1  N3  UNL     1       1.988  64.183  70.222  1.00  0.00    -0.307 N
ATOM      2  H3  UNL     1       2.980  64.342  70.045  1.00  0.00     0.186 HD
HETATM    3  C3  UNL     1       1.469  63.041  69.984  1.00  0.00     0.007 C
HETATM    4  C4  UNL     1       0.029  62.842  70.253  1.00  0.00     0.054 C
HETATM    5  C5  UNL     1      -0.289  63.016  71.723  1.00  0.00     0.006 C
HETATM    6  C6  UNL     1      -1.032  61.799  72.273  1.00  0.00     0.000 C
HETATM    7  C7  UNL     1      -0.668  61.692  73.740  1.00  0.00     0.000 C
HETATM    8  C8  UNL     1      -0.284  60.274  74.022  1.00  0.00     0.000 C
HETATM    9  C9  UNL     1       0.770  60.206  75.103  1.00  0.00     0.000 C
HETATM   10  C10 UNL     1       1.912  59.277  74.696  1.00  0.00     0.000 C
HETATM   11  C11 UNL     1       3.245  59.971  74.791  1.00  0.00     0.000 C
HETATM   12  C12 UNL     1       3.874  60.206  73.427  1.00  0.00     0.007 C
HETATM   13  C13 UNL     1       3.494  61.581  72.985  1.00  0.00     0.081 C
HETATM   14  C14 UNL     1       3.661  61.821  71.537  1.00  0.00     0.160 C
HETATM   15  O1  UNL     1       4.448  62.678  71.109  1.00  0.00    -0.295 OA
HETATM   16  C15 UNL     1       2.915  61.070  70.493  1.00  0.00     0.244 C
HETATM   17  F1  UNL     1       2.022  60.181  71.015  1.00  0.00    -0.241 F
HETATM   18  C16 UNL     1       2.311  61.966  69.453  1.00  0.00     0.099 C
ENDROOT
BRANCH   1  19
HETATM   19  N2  UNL     1       1.193  65.209  70.725  1.00  0.00    -0.290 N
ATOM     20  H2  UNL     1       0.887  65.166  71.697  1.00  0.00     0.188 HD
BRANCH  19  21
HETATM   21  C2  UNL     1       0.794  66.312  69.927  1.00  0.00     0.085 C
HETATM   22  C1  UNL     1      -0.496  66.309  69.185  1.00  0.00     0.090 C
HETATM   23  N1  UNL     1       1.575  67.326  69.853  1.00  0.00    -0.388 N
ATOM     24  H12 UNL     1       1.288  68.120  69.279  1.00  0.00     0.157 HD
ATOM     25  H11 UNL     1       2.460  67.329  70.361  1.00  0.00     0.157 HD
ENDBRANCH  19  21
ENDBRANCH   1  19
TORSDOF 2
ENDMDL