MODEL 1
REMARK VINA RESULT: -8.493543381      0.000      0.000
REMARK  2 active torsions:
REMARK  status: ('A' for Active; 'I' for Inactive)
REMARK    1  A    between atoms: C5_5  and  C7_7
REMARK    2  A    between atoms: C9_9  and  O1_10
ROOT
HETATM    1  C1  UNL     1       2.630  70.239  68.401  1.00  0.00     0.045 C
HETATM    2  C2  UNL     1       2.160  69.340  67.296  1.00  0.00    -0.062 C
HETATM    3  C3  UNL     1       2.796  69.000  66.192  1.00  0.00    -0.067 C
HETATM    4  C4  UNL     1       4.172  69.491  65.852  1.00  0.00     0.045 C
HETATM    5  C5  UNL     1       1.973  68.105  65.395  1.00  0.00     0.015 C
HETATM    6  C6  UNL     1       2.404  66.641  65.508  1.00  0.00     0.026 C
HETATM    7  C11 UNL     1       0.578  68.233  65.901  1.00  0.00     0.044 C
HETATM    8  C12 UNL     1       0.828  68.694  67.336  1.00  0.00     0.039 C
HETATM    9  C13 UNL     1      -0.200  69.771  67.650  1.00  0.00     0.032 C
HETATM   10 BR1  UNL     1       0.740  67.230  68.574  1.00  0.00    -0.081 Br
ENDROOT
BRANCH   5  11
HETATM   11  C7  UNL     1       2.056  68.419  63.917  1.00  0.00    -0.002 A
HETATM   12  C8  UNL     1       1.072  68.940  63.120  1.00  0.00     0.052 A
HETATM   13  C9  UNL     1       1.368  69.140  61.823  1.00  0.00     0.073 A
HETATM   14  C10 UNL     1       2.633  68.803  61.415  1.00  0.00     0.086 A
HETATM   15  S1  UNL     1       3.359  68.223  62.842  1.00  0.00    -0.102 SA
BRANCH  13  16
HETATM   16  O1  UNL     1       0.442  69.677  60.877  1.00  0.00    -0.360 OA
ATOM     17  H1  UNL     1       0.541  70.531  60.474  1.00  0.00     0.217 HD
ENDBRANCH  13  16
ENDBRANCH   5  11
TORSDOF 2
ENDMDL