MODEL 1
REMARK VINA RESULT: -6.374430692      0.000      0.000
REMARK  4 active torsions:
REMARK  status: ('A' for Active; 'I' for Inactive)
REMARK       I    between atoms: C1_2  and  N2_4
REMARK    1  A    between atoms: N2_4  and  N3_6
REMARK       I    between atoms: N3_6  and  C2_8
REMARK    2  A    between atoms: C2_8  and  O3_10
REMARK    3  A    between atoms: O3_10  and  N4_11
REMARK    4  A    between atoms: N4_11  and  C3_13
ROOT
HETATM    1  O3  UNL     1      47.074 123.206  51.162  1.00  0.00    -0.177 OA
ENDROOT
BRANCH   1   2
HETATM    2  C2  UNL     1      46.441 122.738  50.049  1.00  0.00     0.401 C
HETATM    3  N3  UNL     1      46.498 121.393  49.593  1.00  0.00    -0.240 N
ATOM      4  H3  UNL     1      47.050 120.726  50.133  1.00  0.00     0.192 HD
HETATM    5  O2  UNL     1      45.750 123.535  49.360  1.00  0.00    -0.235 OA
BRANCH   3   6
HETATM    6  N2  UNL     1      45.851 120.938  48.463  1.00  0.00    -0.250 N
HETATM    7  C1  UNL     1      45.695 119.562  48.147  1.00  0.00     0.347 C
HETATM    8  N1  UNL     1      45.021 119.146  46.973  1.00  0.00    -0.038 NA
HETATM    9  O1  UNL     1      46.152 118.664  48.901  1.00  0.00    -0.249 OA
ATOM     10  H2  UNL     1      45.462 121.627  47.820  1.00  0.00     0.191 HD
ENDBRANCH   3   6
ENDBRANCH   1   2
BRANCH   1  11
HETATM   11  N4  UNL     1      46.766 122.881  52.460  1.00  0.00    -0.226 N
ATOM     12  H4  UNL     1      45.881 123.213  52.842  1.00  0.00     0.198 HD
BRANCH  11  13
HETATM   13  C3  UNL     1      47.613 122.107  53.304  1.00  0.00     0.196 C
HETATM   14  N5  UNL     1      48.882 121.989  53.236  1.00  0.00    -0.359 N
HETATM   15  C4  UNL     1      49.403 121.114  54.265  1.00  0.00     0.142 C
ATOM     16  H5  UNL     1      49.461 122.456  52.538  1.00  0.00     0.162 HD
HETATM   17  C5  UNL     1      48.178 120.341  54.714  1.00  0.00     0.142 C
HETATM   18  N6  UNL     1      47.130 121.311  54.404  1.00  0.00    -0.359 N
ATOM     19  H6  UNL     1      46.231 121.407  54.876  1.00  0.00     0.162 HD
ENDBRANCH  11  13
ENDBRANCH   1  11
TORSDOF 4
ENDMDL