MODEL 3
REMARK VINA RESULT: -5.534761094      1.717      1.887
REMARK  4 active torsions:
REMARK  status: ('A' for Active; 'I' for Inactive)
REMARK    1  A    between atoms: N1_1  and  C1_5
REMARK    2  A    between atoms: C1_5  and  C2_6
REMARK       I    between atoms: C2_6  and  N2_8
REMARK    3  A    between atoms: N2_8  and  S1_10
REMARK    4  A    between atoms: S1_10  and  N3_11
ROOT
HETATM    1  C2  UNL     1      49.329 120.746  51.382  1.00  0.00     0.287 C
HETATM    2  O1  UNL     1      48.421 121.534  51.508  1.00  0.00    -0.268 OA
HETATM    3  N2  UNL     1      49.438 119.708  52.402  1.00  0.00    -0.234 N
ATOM      4  H2  UNL     1      50.265 119.111  52.405  1.00  0.00     0.183 HD
ENDROOT
BRANCH   1   5
HETATM    5  C1  UNL     1      50.353 120.591  50.339  1.00  0.00     0.303 C
HETATM    6  C3  UNL     1      50.770 119.163  50.044  1.00  0.00     0.199 C
HETATM    7  N4  UNL     1      49.610 119.190  49.156  1.00  0.00    -0.141 NA
HETATM    8  N5  UNL     1      49.835 120.544  49.006  1.00  0.00    -0.098 NA
BRANCH   5   9
HETATM    9  N1  UNL     1      51.412 121.504  50.555  1.00  0.00    -0.044 N
ATOM     10  H13 UNL     1      51.384 121.905  51.492  1.00  0.00     0.277 HD
ATOM     11  H12 UNL     1      52.314 121.033  50.620  1.00  0.00     0.277 HD
ATOM     12  H11 UNL     1      51.409 122.223  49.832  1.00  0.00     0.277 HD
ENDBRANCH   5   9
ENDBRANCH   1   5
BRANCH   3  13
HETATM   13  S1  UNL     1      48.232 119.446  53.599  1.00  0.00     0.319 S
HETATM   14  O2  UNL     1      48.121 120.569  54.546  1.00  0.00    -0.183 OA
HETATM   15  O3  UNL     1      48.372 118.110  54.219  1.00  0.00    -0.183 OA
BRANCH  13  16
HETATM   16  N3  UNL     1      46.706 119.429  52.677  1.00  0.00    -0.311 N
ATOM     17  H32 UNL     1      46.590 119.264  51.677  1.00  0.00     0.170 HD
ATOM     18  H31 UNL     1      45.992 119.623  53.380  1.00  0.00     0.170 HD
ENDBRANCH  13  16
ENDBRANCH   3  13
TORSDOF 4
ENDMDL