MODEL 2
REMARK VINA RESULT: -6.309024727      0.095      2.121
REMARK  3 active torsions:
REMARK  status: ('A' for Active; 'I' for Inactive)
REMARK    1  A    between atoms: N1_1  and  C1_4
REMARK    2  A    between atoms: C2_7  and  N3_8
REMARK    3  A    between atoms: C7_17  and  N6_18
ROOT
HETATM    1  C1  UNL     1      47.630 119.096  53.298  1.00  0.00     0.705 A
HETATM    2  N2  UNL     1      46.839 119.410  52.231  1.00  0.00    -0.022 N
ATOM      3  H2  UNL     1      45.956 118.916  52.099  1.00  0.00     0.203 HD
HETATM    4  C2  UNL     1      47.203 120.357  51.350  1.00  0.00     0.709 A
HETATM    5  N5  UNL     1      48.365 120.980  51.554  1.00  0.00    -0.022 N
ATOM      6  H5  UNL     1      48.656 121.701  50.895  1.00  0.00     0.203 HD
HETATM    7  C7  UNL     1      49.178 120.689  52.608  1.00  0.00     0.705 A
HETATM    8  N7  UNL     1      48.798 119.738  53.481  1.00  0.00    -0.022 N
ATOM      9  H7  UNL     1      49.392 119.504  54.276  1.00  0.00     0.203 HD
ENDROOT
BRANCH   4  10
HETATM   10  N3  UNL     1      46.401 120.710  50.227  1.00  0.00    -0.214 N
HETATM   11  C3  UNL     1      45.800 119.680  49.404  1.00  0.00     0.160 C
HETATM   12  C4  UNL     1      45.254 120.314  48.148  1.00  0.00     0.134 C
HETATM   13  N4  UNL     1      46.158 121.245  47.551  1.00  0.00    -0.418 N
HETATM   14  C5  UNL     1      46.654 122.255  48.430  1.00  0.00     0.134 C
ATOM     15  H4  UNL     1      46.429 121.193  46.569  1.00  0.00     0.153 HD
HETATM   16  C6  UNL     1      46.145 122.084  49.850  1.00  0.00     0.160 C
ENDBRANCH   4  10
BRANCH   1  17
HETATM   17  N1  UNL     1      47.265 118.177  54.139  1.00  0.00    -0.234 N
ATOM     18  H12 UNL     1      46.298 117.852  54.141  1.00  0.00     0.174 HD
ATOM     19  H11 UNL     1      47.937 117.783  54.798  1.00  0.00     0.174 HD
ENDBRANCH   1  17
BRANCH   7  20
HETATM   20  N6  UNL     1      50.299 121.302  52.789  1.00  0.00    -0.234 N
ATOM     21  H62 UNL     1      50.299 122.312  52.935  1.00  0.00     0.174 HD
ATOM     22  H61 UNL     1      51.189 120.803  52.792  1.00  0.00     0.174 HD
ENDBRANCH   7  20
TORSDOF 3
ENDMDL