MODEL 1
REMARK VINA RESULT: -5.974744684      0.000      0.000
REMARK  6 active torsions:
REMARK  status: ('A' for Active; 'I' for Inactive)
REMARK    1  A    between atoms: N1_1  and  C1_4
REMARK    2  A    between atoms: C2_7  and  C3_8
REMARK    3  A    between atoms: C4_9  and  C5_10
REMARK    4  A    between atoms: C5_10  and  N3_11
REMARK    5  A    between atoms: C5_10  and  C6_15
REMARK    6  A    between atoms: C7_19  and  N5_20
ROOT
HETATM    1  C1  UNL     1      47.595 120.134  53.847  1.00  0.00     0.692 A
HETATM    2  N2  UNL     1      47.201 119.630  52.660  1.00  0.00    -0.168 N
ATOM      3  H2  UNL     1      47.051 118.626  52.562  1.00  0.00     0.186 HD
HETATM    4  C2  UNL     1      47.003 120.440  51.607  1.00  0.00     0.191 A
HETATM    5  N4  UNL     1      47.213 121.759  51.779  1.00  0.00    -0.168 N
ATOM      6  H4  UNL     1      47.067 122.386  50.988  1.00  0.00     0.186 HD
HETATM    7  C7  UNL     1      47.606 122.283  52.954  1.00  0.00     0.692 A
HETATM    8  N6  UNL     1      47.799 121.463  53.996  1.00  0.00    -0.023 N
ATOM      9  H6  UNL     1      48.097 121.839  54.896  1.00  0.00     0.203 HD
ENDROOT
BRANCH   4  10
HETATM   10  C3  UNL     1      46.582 119.871  50.355  1.00  0.00    -0.027 C
HETATM   11  C4  UNL     1      46.243 119.394  49.295  1.00  0.00    -0.058 C
BRANCH  11  12
HETATM   12  C5  UNL     1      45.850 118.803  48.000  1.00  0.00     0.323 C
BRANCH  12  13
HETATM   13  N3  UNL     1      45.609 119.834  47.024  1.00  0.00    -0.058 N
ATOM     14  H33 UNL     1      46.321 120.563  47.060  1.00  0.00     0.276 HD
ATOM     15  H32 UNL     1      45.777 119.502  46.074  1.00  0.00     0.276 HD
ATOM     16  H31 UNL     1      44.670 120.217  47.130  1.00  0.00     0.276 HD
ENDBRANCH  12  13
BRANCH  12  17
HETATM   17  C6  UNL     1      46.974 117.915  47.586  1.00  0.00     0.276 C
HETATM   18  O1  UNL     1      47.086 116.823  48.098  1.00  0.00    -0.304 OA
ENDBRANCH  12  17
ENDBRANCH  11  12
ENDBRANCH   4  10
BRANCH   1  19
HETATM   19  N1  UNL     1      47.789 119.363  54.874  1.00  0.00    -0.234 N
ATOM     20  H12 UNL     1      47.393 118.424  54.854  1.00  0.00     0.174 HD
ATOM     21  H11 UNL     1      48.323 119.685  55.681  1.00  0.00     0.174 HD
ENDBRANCH   1  19
BRANCH   7  22
HETATM   22  N5  UNL     1      47.787 123.560  53.044  1.00  0.00    -0.234 N
ATOM     23  H52 UNL     1      48.710 123.966  53.193  1.00  0.00     0.174 HD
ATOM     24  H51 UNL     1      46.982 124.182  52.965  1.00  0.00     0.174 HD
ENDBRANCH   7  22
TORSDOF 6
ENDMDL