MODEL 1
REMARK VINA RESULT: -7.009436067      0.000      0.000
REMARK  3 active torsions:
REMARK  status: ('A' for Active; 'I' for Inactive)
REMARK    1  A    between atoms: N1_1  and  C1_4
REMARK    2  A    between atoms: C2_7  and  N3_8
REMARK       I    between atoms: N3_8  and  C3_10
REMARK       I    between atoms: C3_10  and  N4_12
REMARK    3  A    between atoms: N4_12  and  N5_14
ROOT
HETATM    1  C1  UNL     1      47.932 120.604  54.516  1.00  0.00     0.694 A
HETATM    2  N2  UNL     1      49.045 120.399  53.769  1.00  0.00    -0.022 N
ATOM      3  H2  UNL     1      49.650 119.606  53.983  1.00  0.00     0.203 HD
HETATM    4  C2  UNL     1      49.370 121.222  52.747  1.00  0.00     0.705 A
HETATM    5  N6  UNL     1      48.547 122.246  52.505  1.00  0.00    -0.140 N
ATOM      6  H6  UNL     1      48.782 122.874  51.736  1.00  0.00     0.189 HD
HETATM    7  C4  UNL     1      47.444 122.500  53.198  1.00  0.00     0.352 A
HETATM    8  O2  UNL     1      46.655 123.450  52.996  1.00  0.00    -0.246 OA
HETATM    9  N7  UNL     1      47.140 121.652  54.225  1.00  0.00    -0.141 N
ATOM     10  H7  UNL     1      46.300 121.817  54.780  1.00  0.00     0.189 HD
ENDROOT
BRANCH   4  11
HETATM   11  N3  UNL     1      50.544 120.969  51.993  1.00  0.00    -0.139 N
HETATM   12  C3  UNL     1      50.596 119.884  51.083  1.00  0.00     0.352 C
HETATM   13  O1  UNL     1      49.611 119.121  50.921  1.00  0.00    -0.245 OA
HETATM   14  N4  UNL     1      51.764 119.617  50.320  1.00  0.00    -0.258 N
ATOM     15  H4  UNL     1      52.580 120.219  50.431  1.00  0.00     0.191 HD
ATOM     16  H3  UNL     1      51.358 121.574  52.107  1.00  0.00     0.189 HD
BRANCH  14  17
HETATM   17  N5  UNL     1      51.822 118.554  49.426  1.00  0.00    -0.341 N
ATOM     18  H52 UNL     1      50.946 118.194  49.047  1.00  0.00     0.177 HD
ATOM     19  H51 UNL     1      52.711 118.137  49.149  1.00  0.00     0.177 HD
ENDBRANCH  14  17
ENDBRANCH   4  11
BRANCH   1  20
HETATM   20  N1  UNL     1      47.631 119.797  55.503  1.00  0.00    -0.234 N
ATOM     21  H12 UNL     1      47.918 120.016  56.457  1.00  0.00     0.174 HD
ATOM     22  H11 UNL     1      47.106 118.939  55.332  1.00  0.00     0.174 HD
ENDBRANCH   1  20
TORSDOF 3
ENDMDL