MODEL 1
REMARK VINA RESULT: -6.842350585      0.000      0.000
REMARK  1 active torsions:
REMARK  status: ('A' for Active; 'I' for Inactive)
REMARK    1  A    between atoms: N1_1  and  C1_4
REMARK       I    between atoms: N4_13  and  C5_14
REMARK       I    between atoms: C5_14  and  N5_15
REMARK       I    between atoms: C5_14  and  N6_19
ROOT
HETATM    1  C1  UNL     1      50.463 120.915  50.346  1.00  0.00     0.680 A
HETATM    2  N2  UNL     1      50.126 119.834  49.618  1.00  0.00    -0.154 N
ATOM      3  H2  UNL     1      50.714 119.501  48.853  1.00  0.00     0.187 HD
HETATM    4  C2  UNL     1      48.977 119.213  49.946  1.00  0.00     0.290 A
HETATM    5  O1  UNL     1      48.638 118.189  49.270  1.00  0.00    -0.265 OA
HETATM    6  C3  UNL     1      48.165 119.640  50.970  1.00  0.00     0.147 A
HETATM    7  N3  UNL     1      46.998 119.236  51.510  1.00  0.00    -0.345 N
ATOM      8  H3  UNL     1      46.460 118.431  51.190  1.00  0.00     0.167 HD
HETATM    9  C4  UNL     1      46.640 120.045  52.530  1.00  0.00     0.189 A
HETATM   10  N4  UNL     1      47.589 120.990  52.657  1.00  0.00    -0.276 N
HETATM   11  C5  UNL     1      47.635 122.076  53.617  1.00  0.00     0.489 C
HETATM   12  N5  UNL     1      47.321 123.354  53.031  1.00  0.00    -0.032 N
ATOM     13  H51 UNL     1      47.354 124.118  53.706  1.00  0.00     0.279 HD
ATOM     14  H52 UNL     1      46.419 123.326  52.555  1.00  0.00     0.279 HD
ATOM     15  H53 UNL     1      47.925 123.547  52.232  1.00  0.00     0.279 HD
HETATM   16  N6  UNL     1      48.923 122.142  54.264  1.00  0.00    -0.032 N
ATOM     17  H61 UNL     1      48.956 122.907  54.939  1.00  0.00     0.279 HD
ATOM     18  H62 UNL     1      49.682 122.208  53.585  1.00  0.00     0.279 HD
ATOM     19  H63 UNL     1      49.174 121.252  54.693  1.00  0.00     0.279 HD
HETATM   20  C6  UNL     1      48.531 120.766  51.717  1.00  0.00     0.160 A
HETATM   21  N7  UNL     1      49.684 121.350  51.352  1.00  0.00    -0.174 N
ATOM     22  H7  UNL     1      49.987 122.175  51.870  1.00  0.00     0.186 HD
ENDROOT
BRANCH   1  23
HETATM   23  N1  UNL     1      51.559 121.533  50.057  1.00  0.00    -0.234 N
ATOM     24  H12 UNL     1      51.682 121.962  49.140  1.00  0.00     0.174 HD
ATOM     25  H11 UNL     1      52.292 121.579  50.765  1.00  0.00     0.174 HD
ENDBRANCH   1  23
TORSDOF 1
ENDMDL