MODEL 4
REMARK VINA RESULT: -5.956278374      2.184      5.279
REMARK  3 active torsions:
REMARK  status: ('A' for Active; 'I' for Inactive)
REMARK    1  A    between atoms: N1_1  and  C1_4
REMARK    2  A    between atoms: N2_7  and  N3_8
REMARK       I    between atoms: N3_8  and  C4_10
REMARK       I    between atoms: C4_10  and  N4_12
REMARK    3  A    between atoms: N4_12  and  N5_14
ROOT
HETATM    1  C1  UNL     1      46.370 122.760  48.949  1.00  0.00     0.103 A
HETATM    2  C2  UNL     1      46.595 123.592  50.023  1.00  0.00     0.067 A
HETATM    3  C3  UNL     1      46.739 123.032  51.287  1.00  0.00     0.125 A
HETATM    4  N2  UNL     1      46.671 121.713  51.528  1.00  0.00    -0.213 N
HETATM    5  C5  UNL     1      46.446 120.924  50.427  1.00  0.00     0.346 A
HETATM    6  O2  UNL     1      46.366 119.663  50.558  1.00  0.00    -0.245 OA
HETATM    7  N6  UNL     1      46.305 121.443  49.206  1.00  0.00    -0.293 N
ATOM      8  H6  UNL     1      46.140 120.805  48.427  1.00  0.00     0.172 HD
ENDROOT
BRANCH   4   9
HETATM    9  N3  UNL     1      46.806 121.103  52.757  1.00  0.00    -0.240 N
HETATM   10  C4  UNL     1      47.971 120.851  53.502  1.00  0.00     0.353 C
HETATM   11  O1  UNL     1      49.122 121.160  53.137  1.00  0.00    -0.244 OA
HETATM   12  N4  UNL     1      47.888 120.192  54.780  1.00  0.00    -0.257 N
ATOM     13  H4  UNL     1      46.981 119.905  55.149  1.00  0.00     0.191 HD
ATOM     14  H3  UNL     1      45.936 120.789  53.188  1.00  0.00     0.192 HD
BRANCH  12  15
HETATM   15  N5  UNL     1      49.044 119.947  55.509  1.00  0.00    -0.341 N
ATOM     16  H52 UNL     1      49.949 120.033  55.046  1.00  0.00     0.177 HD
ATOM     17  H51 UNL     1      48.980 119.685  56.493  1.00  0.00     0.177 HD
ENDBRANCH  12  15
ENDBRANCH   4   9
BRANCH   1  18
HETATM   18  N1  UNL     1      46.225 123.179  47.746  1.00  0.00    -0.385 N
ATOM     19  H12 UNL     1      46.906 122.916  47.035  1.00  0.00     0.157 HD
ATOM     20  H11 UNL     1      45.453 123.775  47.446  1.00  0.00     0.157 HD
ENDBRANCH   1  18
TORSDOF 3
ENDMDL