MODEL 2
REMARK VINA RESULT: -6.336771562      2.219      4.753
REMARK  4 active torsions:
REMARK  status: ('A' for Active; 'I' for Inactive)
REMARK    1  A    between atoms: C1_4  and  C2_5
REMARK    2  A    between atoms: C2_5  and  C3_7
REMARK    3  A    between atoms: C4_10  and  N3_11
REMARK    4  A    between atoms: C5_16  and  N5_17
ROOT
HETATM    1  C3  UNL     1      49.222 120.211  50.665  1.00  0.00     0.144 C
HETATM    2  N2  UNL     1      47.980 119.822  50.344  1.00  0.00    -0.184 N
ATOM      3  H2  UNL     1      47.896 119.381  49.428  1.00  0.00     0.184 HD
HETATM    4  C4  UNL     1      46.833 119.916  51.025  1.00  0.00     0.691 C
HETATM    5  N4  UNL     1      46.632 120.453  52.250  1.00  0.00    -0.023 N
ATOM      6  H4  UNL     1      45.662 120.503  52.560  1.00  0.00     0.203 HD
HETATM    7  C5  UNL     1      47.547 120.930  53.113  1.00  0.00     0.692 C
HETATM    8  N6  UNL     1      48.904 120.971  52.979  1.00  0.00    -0.174 N
ATOM      9  H6  UNL     1      49.440 121.169  53.824  1.00  0.00     0.186 HD
HETATM   10  C6  UNL     1      49.610 120.778  51.854  1.00  0.00     0.146 C
HETATM   11  N7  UNL     1      50.814 121.176  51.886  1.00  0.00    -0.383 N
ATOM     12  H71 UNL     1      51.102 121.597  52.769  1.00  0.00     0.157 HD
ATOM     13  H72 UNL     1      51.350 121.029  51.030  1.00  0.00     0.157 HD
ENDROOT
BRANCH   1  14
HETATM   14  C2  UNL     1      50.225 120.004  49.646  1.00  0.00     0.217 C
HETATM   15  O1  UNL     1      50.479 120.938  48.843  1.00  0.00    -0.284 OA
BRANCH  14  16
HETATM   16  C1  UNL     1      50.957 118.760  49.505  1.00  0.00     0.138 C
HETATM   17  N1  UNL     1      52.194 118.654  49.834  1.00  0.00    -0.405 N
ATOM     18  H12 UNL     1      52.662 119.481  50.205  1.00  0.00     0.155 HD
ATOM     19  H11 UNL     1      52.709 117.779  49.735  1.00  0.00     0.155 HD
ENDBRANCH  14  16
ENDBRANCH   1  14
BRANCH   4  20
HETATM   20  N3  UNL     1      45.808 119.439  50.444  1.00  0.00    -0.234 N
ATOM     21  H32 UNL     1      45.672 119.713  49.471  1.00  0.00     0.174 HD
ATOM     22  H31 UNL     1      45.223 118.828  51.013  1.00  0.00     0.174 HD
ENDBRANCH   4  20
BRANCH   7  23
HETATM   23  N5  UNL     1      47.051 121.405  54.204  1.00  0.00    -0.234 N
ATOM     24  H52 UNL     1      47.704 121.606  54.961  1.00  0.00     0.174 HD
ATOM     25  H51 UNL     1      46.039 121.529  54.186  1.00  0.00     0.174 HD
ENDBRANCH   7  23
TORSDOF 4
ENDMDL