MODEL 2
REMARK VINA RESULT: -6.780902303      2.268      3.498
REMARK  1 active torsions:
REMARK  status: ('A' for Active; 'I' for Inactive)
REMARK    1  A    between atoms: N1_1  and  C1_4
REMARK       I    between atoms: N3_7  and  C2_8
REMARK       I    between atoms: C2_8  and  N4_9
REMARK       I    between atoms: C2_8  and  N5_13
ROOT
HETATM    1  C1  UNL     1      50.209 120.942  50.427  1.00  0.00     0.143 A
HETATM    2  N2  UNL     1      49.270 121.179  51.359  1.00  0.00    -0.278 N
ATOM      3  H2  UNL     1      49.410 121.755  52.189  1.00  0.00     0.189 HD
HETATM    4  N3  UNL     1      48.133 120.562  51.052  1.00  0.00    -0.228 N
HETATM    5  C2  UNL     1      46.919 120.595  51.822  1.00  0.00     0.502 C
HETATM    6  N4  UNL     1      46.825 119.382  52.642  1.00  0.00    -0.031 N
ATOM      7  H41 UNL     1      45.964 119.406  53.188  1.00  0.00     0.279 HD
ATOM      8  H42 UNL     1      47.649 119.249  53.228  1.00  0.00     0.279 HD
ATOM      9  H43 UNL     1      46.904 118.532  52.083  1.00  0.00     0.279 HD
HETATM   10  N5  UNL     1      46.960 121.761  52.687  1.00  0.00    -0.031 N
ATOM     11  H51 UNL     1      46.099 121.784  53.233  1.00  0.00     0.279 HD
ATOM     12  H52 UNL     1      47.123 122.626  52.173  1.00  0.00     0.279 HD
ATOM     13  H53 UNL     1      47.796 121.787  53.271  1.00  0.00     0.279 HD
HETATM   14  C3  UNL     1      48.283 119.898  49.908  1.00  0.00     0.153 A
HETATM   15  C4  UNL     1      47.431 119.115  49.169  1.00  0.00     0.277 A
HETATM   16  O1  UNL     1      46.247 118.879  49.494  1.00  0.00    -0.266 OA
HETATM   17  N6  UNL     1      47.885 118.568  48.032  1.00  0.00    -0.318 N
ATOM     18  H6  UNL     1      47.258 117.985  47.477  1.00  0.00     0.169 HD
HETATM   19  C5  UNL     1      49.142 118.766  47.605  1.00  0.00     0.184 A
HETATM   20  N7  UNL     1      49.947 119.531  48.344  1.00  0.00    -0.347 N
ATOM     21  H7  UNL     1      50.899 119.674  48.007  1.00  0.00     0.167 HD
HETATM   22  C6  UNL     1      49.601 120.129  49.496  1.00  0.00     0.113 A
ENDROOT
BRANCH   1  23
HETATM   23  N1  UNL     1      51.442 121.364  50.370  1.00  0.00    -0.383 N
ATOM     24  H12 UNL     1      52.262 120.832  50.660  1.00  0.00     0.157 HD
ATOM     25  H11 UNL     1      51.804 122.260  50.043  1.00  0.00     0.157 HD
ENDBRANCH   1  23
TORSDOF 1
ENDMDL