MODEL 3
REMARK VINA RESULT: -6.822124484      3.551      5.461
REMARK  2 active torsions:
REMARK  status: ('A' for Active; 'I' for Inactive)
REMARK       I    between atoms: C1_4  and  N2_5
REMARK       I    between atoms: C1_4  and  N4_10
REMARK    1  A    between atoms: N2_5  and  N3_7
REMARK    2  A    between atoms: N4_10  and  C2_12
ROOT
HETATM    1  C2  UNL     1      47.046 121.203  51.558  1.00  0.00     0.113 A
HETATM    2  C3  UNL     1      47.458 120.164  50.744  1.00  0.00     0.142 A
HETATM    3  N5  UNL     1      47.934 119.174  51.535  1.00  0.00    -0.297 N
ATOM      4  H5  UNL     1      48.307 118.284  51.206  1.00  0.00     0.186 HD
HETATM    5  N6  UNL     1      47.838 119.542  52.802  1.00  0.00    -0.184 N
HETATM    6  C4  UNL     1      48.055 119.200  54.085  1.00  0.00     0.362 A
HETATM    7  O1  UNL     1      48.557 118.105  54.512  1.00  0.00    -0.243 OA
HETATM    8  N7  UNL     1      47.651 120.216  54.868  1.00  0.00    -0.248 N
ATOM      9  H7  UNL     1      47.701 120.226  55.887  1.00  0.00     0.192 HD
HETATM   10  N8  UNL     1      47.185 121.193  54.127  1.00  0.00    -0.278 N
ATOM     11  H8  UNL     1      46.810 122.084  54.453  1.00  0.00     0.189 HD
HETATM   12  C5  UNL     1      47.298 120.781  52.845  1.00  0.00     0.175 A
ENDROOT
BRANCH   1  13
HETATM   13  N4  UNL     1      46.491 122.418  51.106  1.00  0.00    -0.186 N
HETATM   14  C1  UNL     1      47.085 123.201  50.063  1.00  0.00     0.690 C
HETATM   15  N1  UNL     1      48.314 123.565  50.201  1.00  0.00    -0.233 N
HETATM   16  N2  UNL     1      46.349 123.570  48.903  1.00  0.00    -0.139 N
ATOM     17  H12 UNL     1      48.737 124.123  49.459  1.00  0.00     0.174 HD
ATOM     18  H11 UNL     1      48.842 123.301  51.032  1.00  0.00     0.174 HD
ATOM     19  H2  UNL     1      45.666 124.326  48.955  1.00  0.00     0.205 HD
ATOM     20  H4  UNL     1      45.631 122.753  51.539  1.00  0.00     0.184 HD
BRANCH  16  21
HETATM   21  N3  UNL     1      46.554 122.906  47.702  1.00  0.00    -0.331 N
ATOM     22  H32 UNL     1      46.340 121.910  47.648  1.00  0.00     0.177 HD
ATOM     23  H31 UNL     1      46.912 123.408  46.890  1.00  0.00     0.177 HD
ENDBRANCH  16  21
ENDBRANCH   1  13
TORSDOF 2
ENDMDL