MODEL 3
REMARK VINA RESULT: -8.401047738      1.389      2.168
REMARK  6 active torsions:
REMARK  status: ('A' for Active; 'I' for Inactive)
REMARK    1  A    between atoms: N2_8  and  C7_9
REMARK    2  A    between atoms: C7_9  and  C8_10
REMARK    3  A    between atoms: C8_10  and  C9_11
REMARK    4  A    between atoms: C9_11  and  C10_12
REMARK    5  A    between atoms: C16_25  and  C17_26
REMARK    6  A    between atoms: C20_29  and  N6_30
ROOT
HETATM    1  C1  UNL     1      14.849  -9.082  20.466  1.00  0.00     0.046 C
HETATM    2  C2  UNL     1      13.581  -8.430  20.066  1.00  0.00    -0.055 C
HETATM    3  C3  UNL     1      12.616  -7.700  19.687  1.00  0.00     0.046 C
HETATM    4  C4  UNL     1      12.837  -6.250  19.303  1.00  0.00     0.126 C
HETATM    5  N1  UNL     1      13.078  -5.460  20.443  1.00  0.00    -0.322 N
HETATM    6  C5  UNL     1      14.347  -5.474  21.051  1.00  0.00     0.098 C
HETATM    7  C6  UNL     1      14.035  -6.076  22.396  1.00  0.00     0.289 C
HETATM    8  N2  UNL     1      12.573  -6.282  22.450  1.00  0.00    -0.028 N
HETATM    9  C14 UNL     1      12.187  -5.314  21.497  1.00  0.00     0.300 C
HETATM   10  C15 UNL     1      12.091  -7.531  22.622  1.00  0.00     0.257 C
HETATM   11  C16 UNL     1      11.709  -8.686  21.816  1.00  0.00     0.008 C
HETATM   12  C26 UNL     1      10.619  -8.207  20.845  1.00  0.00     0.131 C
HETATM   13  N7  UNL     1      11.293  -8.228  19.497  1.00  0.00    -0.388 N
ATOM     14  H7  UNL     1      10.889  -8.554  18.620  1.00  0.00     0.159 HD
HETATM   15  C27 UNL     1      12.615  -9.489  20.995  1.00  0.00     0.049 C
ENDROOT
BRANCH   8  16
HETATM   16  C7  UNL     1      12.321  -5.590  23.764  1.00  0.00     0.245 C
BRANCH  16  17
HETATM   17  C8  UNL     1      11.948  -4.182  23.720  1.00  0.00     0.036 C
BRANCH  17  18
HETATM   18  C9  UNL     1      12.912  -3.404  24.619  1.00  0.00     0.078 C
BRANCH  18  19
HETATM   19  C10 UNL     1      12.627  -3.450  26.042  1.00  0.00     0.082 A
HETATM   20  N3  UNL     1      13.599  -3.520  26.944  1.00  0.00    -0.332 N
HETATM   21  C11 UNL     1      13.448  -3.552  28.266  1.00  0.00     0.101 A
ATOM     22  H3  UNL     1      14.554  -3.554  26.589  1.00  0.00     0.168 HD
HETATM   23  N4  UNL     1      14.432  -3.633  29.080  1.00  0.00    -0.385 N
HETATM   24  C12 UNL     1      12.137  -3.506  28.769  1.00  0.00     0.065 A
ATOM     25  H42 UNL     1      15.384  -3.665  28.715  1.00  0.00     0.157 HD
ATOM     26  H41 UNL     1      14.317  -3.657  30.093  1.00  0.00     0.157 HD
HETATM   27  C13 UNL     1      11.118  -3.432  27.851  1.00  0.00     0.093 A
HETATM   28  N5  UNL     1      11.382  -3.406  26.525  1.00  0.00    -0.356 N
ATOM     29  H5  UNL     1      10.602  -3.350  25.870  1.00  0.00     0.166 HD
ENDBRANCH  18  19
ENDBRANCH  17  18
ENDBRANCH  16  17
ENDBRANCH   8  16
BRANCH  11  30
HETATM   30  C17 UNL     1      11.141  -9.754  22.784  1.00  0.00     0.001 C
HETATM   31  C18 UNL     1      11.826  -9.841  24.087  1.00  0.00     0.034 C
HETATM   32  C19 UNL     1      12.633 -11.090  24.358  1.00  0.00     0.006 C
HETATM   33  C20 UNL     1      12.172 -12.248  23.970  1.00  0.00     0.109 C
HETATM   34  C24 UNL     1      10.869 -12.206  23.260  1.00  0.00     0.065 C
HETATM   35  C25 UNL     1      10.810 -11.069  22.242  1.00  0.00     0.011 C
BRANCH  33  36
HETATM   36  N6  UNL     1      12.892 -13.439  24.208  1.00  0.00    -0.053 N
HETATM   37  C21 UNL     1      13.516 -13.447  25.519  1.00  0.00     0.278 C
HETATM   38  C22 UNL     1      12.143 -14.657  24.049  1.00  0.00     0.278 C
HETATM   39  C23 UNL     1      14.010 -13.509  23.241  1.00  0.00     0.278 C
ENDBRANCH  33  36
ENDBRANCH  11  30
TORSDOF 6
ENDMDL