MODEL 3
REMARK VINA RESULT: -7.385081029      0.877      1.613
REMARK  9 active torsions:
REMARK  status: ('A' for Active; 'I' for Inactive)
REMARK    1  A    between atoms: C5_5  and  C6_6
REMARK    2  A    between atoms: C7_7  and  C8_8
REMARK    3  A    between atoms: C10_12  and  N2_13
REMARK    4  A    between atoms: C13_21  and  C14_22
REMARK    5  A    between atoms: C14_22  and  C15_23
REMARK    6  A    between atoms: C15_23  and  S1_24
REMARK    7  A    between atoms: S1_24  and  C16_26
REMARK    8  A    between atoms: C16_26  and  C17_27
REMARK    9  A    between atoms: C17_27  and  N4_28
ROOT
HETATM    1  C1  UNL     1      15.308  -6.390  17.317  1.00  0.00     0.049 C
HETATM    2  C2  UNL     1      14.844  -5.976  18.679  1.00  0.00    -0.056 A
HETATM    3  C3  UNL     1      14.536  -4.663  18.964  1.00  0.00     0.009 A
HETATM    4  C4  UNL     1      14.106  -4.270  20.214  1.00  0.00     0.021 A
HETATM    5  C5  UNL     1      13.964  -5.177  21.252  1.00  0.00     0.018 A
HETATM    6  C12 UNL     1      14.276  -6.488  20.955  1.00  0.00     0.028 A
HETATM    7  C13 UNL     1      14.705  -6.887  19.706  1.00  0.00    -0.050 A
ENDROOT
BRANCH   7   8
HETATM    8  C14 UNL     1      15.008  -8.306  19.503  1.00  0.00     0.051 C
BRANCH   8   9
HETATM    9  C15 UNL     1      15.255  -9.056  20.783  1.00  0.00     0.113 C
BRANCH   9  10
HETATM   10  S1  UNL     1      14.398 -10.594  20.857  1.00  0.00     0.016 S
HETATM   11  O2  UNL     1      14.942 -11.689  19.730  1.00  0.00    -0.258 OA
BRANCH  10  12
HETATM   12  C16 UNL     1      12.660 -10.240  20.596  1.00  0.00     0.136 C
BRANCH  12  13
HETATM   13  C17 UNL     1      12.097  -9.826  21.918  1.00  0.00     0.250 C
BRANCH  13  14
HETATM   14  N4  UNL     1      11.095  -8.785  21.836  1.00  0.00    -0.063 N
HETATM   15  C18 UNL     1      11.059  -8.313  20.485  1.00  0.00     0.239 C
HETATM   16  C19 UNL     1      10.716  -6.861  20.335  1.00  0.00     0.056 C
HETATM   17  C20 UNL     1       9.294  -6.621  20.818  1.00  0.00     0.238 C
HETATM   18  N5  UNL     1       9.132  -7.049  22.197  1.00  0.00    -0.068 N
HETATM   19  C21 UNL     1       8.040  -6.242  22.764  1.00  0.00     0.272 C
HETATM   20  C22 UNL     1      10.307  -6.744  22.953  1.00  0.00     0.265 C
HETATM   21  C24 UNL     1       8.708  -8.413  22.256  1.00  0.00     0.265 C
HETATM   22  C23 UNL     1      11.402  -7.780  22.812  1.00  0.00     0.265 C
HETATM   23  C25 UNL     1       9.804  -9.418  22.106  1.00  0.00     0.265 C
ENDBRANCH  13  14
ENDBRANCH  12  13
ENDBRANCH  10  12
ENDBRANCH   9  10
ENDBRANCH   8   9
ENDBRANCH   7   8
BRANCH   5  24
HETATM   24  C6  UNL     1      13.519  -4.770  22.558  1.00  0.00    -0.061 C
HETATM   25  C7  UNL     1      13.164  -4.435  23.662  1.00  0.00    -0.054 C
BRANCH  25  26
HETATM   26  C8  UNL     1      12.765  -4.042  24.985  1.00  0.00     0.102 A
HETATM   27  C9  UNL     1      11.470  -4.213  25.453  1.00  0.00     0.132 A
HETATM   28  N1  UNL     1      11.121  -3.836  26.695  1.00  0.00    -0.201 N
HETATM   29  C10 UNL     1      12.006  -3.277  27.538  1.00  0.00     0.678 A
ATOM     30  H1  UNL     1      10.160  -3.978  27.005  1.00  0.00     0.183 HD
HETATM   31  N3  UNL     1      13.283  -3.093  27.117  1.00  0.00    -0.155 N
HETATM   32  C11 UNL     1      13.644  -3.465  25.879  1.00  0.00     0.279 A
ATOM     33  H3  UNL     1      13.969  -2.671  27.742  1.00  0.00     0.187 HD
HETATM   34  O1  UNL     1      14.844  -3.297  25.472  1.00  0.00    -0.266 OA
BRANCH  29  35
HETATM   35  N2  UNL     1      11.654  -2.914  28.743  1.00  0.00    -0.234 N
ATOM     36  H22 UNL     1      10.785  -3.261  29.149  1.00  0.00     0.174 HD
ATOM     37  H21 UNL     1      12.236  -2.283  29.294  1.00  0.00     0.174 HD
ENDBRANCH  29  35
ENDBRANCH  25  26
ENDBRANCH   5  24
TORSDOF 9
ENDMDL