MODEL 2
REMARK VINA RESULT: -7.465304687      4.638      8.271
REMARK  8 active torsions:
REMARK  status: ('A' for Active; 'I' for Inactive)
REMARK    1  A    between atoms: C9_14  and  C10_15
REMARK    2  A    between atoms: C10_15  and  C11_16
REMARK    3  A    between atoms: C11_16  and  C12_17
REMARK    4  A    between atoms: C12_17  and  C13_18
REMARK    5  A    between atoms: C13_18  and  C14_19
REMARK    6  A    between atoms: C13_18  and  N5_31
REMARK    7  A    between atoms: C14_19  and  C15_20
REMARK    8  A    between atoms: C26_37  and  O2_38
ROOT
HETATM    1  C10 UNL     1      13.428  -9.640  21.571  1.00  0.00     0.025 C
ENDROOT
BRANCH   1   2
HETATM    2  C9  UNL     1      13.683 -11.110  21.384  1.00  0.00     0.083 C
HETATM    3  C8  UNL     1      13.064 -11.528  20.018  1.00  0.00     0.029 C
HETATM    4  C7  UNL     1      11.595 -11.902  20.118  1.00  0.00     0.030 C
HETATM    5  C6  UNL     1      11.303 -13.330  20.341  1.00  0.00    -0.010 C
HETATM    6  C5  UNL     1      10.119 -13.791  21.071  1.00  0.00     0.079 C
HETATM    7  N2  UNL     1       9.768 -13.365  22.342  1.00  0.00    -0.390 N
HETATM    8  C4  UNL     1      10.257 -14.092  23.511  1.00  0.00     0.221 C
ATOM      9  H2  UNL     1       9.171 -12.547  22.461  1.00  0.00     0.159 HD
HETATM   10  C3  UNL     1      10.617 -13.212  24.649  1.00  0.00     0.235 C
HETATM   11  N1  UNL     1      11.783 -13.054  25.409  1.00  0.00    -0.348 N
HETATM   12  O1  UNL     1       9.617 -12.452  24.974  1.00  0.00    -0.272 OA
HETATM   13  C2  UNL     1      13.097 -12.539  24.961  1.00  0.00     0.154 C
ATOM     14  H1  UNL     1      11.719 -13.326  26.390  1.00  0.00     0.163 HD
HETATM   15  C1  UNL     1      14.126 -13.422  25.655  1.00  0.00     0.041 C
HETATM   16  C26 UNL     1      13.205 -12.662  23.484  1.00  0.00     0.134 C
HETATM   17  N6  UNL     1      13.031 -11.820  22.429  1.00  0.00    -0.368 N
ATOM     18  H6  UNL     1      12.034 -11.618  22.360  1.00  0.00     0.161 HD
BRANCH  16  19
HETATM   19  O2  UNL     1      13.542 -13.904  23.293  1.00  0.00    -0.348 OA
ATOM     20  H2  UNL     1      12.967 -14.196  22.595  1.00  0.00     0.219 HD
ENDBRANCH  16  19
ENDBRANCH   1   2
BRANCH   1  21
HETATM   21  C11 UNL     1      12.755  -9.215  22.823  1.00  0.00     0.004 C
BRANCH  21  22
HETATM   22  C12 UNL     1      11.388  -8.695  22.589  1.00  0.00     0.034 C
BRANCH  22  23
HETATM   23  C13 UNL     1      11.304  -7.274  22.050  1.00  0.00     0.193 C
BRANCH  23  24
HETATM   24  C14 UNL     1      11.156  -6.296  23.149  1.00  0.00     0.074 C
BRANCH  24  25
HETATM   25  C15 UNL     1      12.316  -5.476  23.536  1.00  0.00    -0.027 A
HETATM   26  C16 UNL     1      13.511  -5.320  22.875  1.00  0.00     0.096 A
HETATM   27  N3  UNL     1      14.252  -4.463  23.574  1.00  0.00    -0.365 N
HETATM   28  C17 UNL     1      13.601  -4.047  24.660  1.00  0.00     0.045 A
ATOM     29  H3  UNL     1      15.192  -4.164  23.312  1.00  0.00     0.165 HD
HETATM   30  C18 UNL     1      13.926  -3.174  25.684  1.00  0.00     0.047 A
HETATM   31  C22 UNL     1      12.380  -4.668  24.664  1.00  0.00     0.014 A
HETATM   32  C19 UNL     1      13.005  -2.943  26.700  1.00  0.00     0.092 A
HETATM   33  N4  UNL     1      11.814  -3.570  26.672  1.00  0.00    -0.370 N
HETATM   34  C20 UNL     1      10.861  -3.300  27.764  1.00  0.00     0.154 C
HETATM   35  C21 UNL     1      11.470  -4.419  25.696  1.00  0.00     0.104 A
ENDBRANCH  24  25
ENDBRANCH  23  24
BRANCH  23  36
HETATM   36  N5  UNL     1      10.510  -7.162  20.888  1.00  0.00    -0.074 N
HETATM   37  C23 UNL     1      10.128  -8.416  20.258  1.00  0.00     0.272 C
HETATM   38  C24 UNL     1       9.201  -6.588  21.299  1.00  0.00     0.272 C
HETATM   39  C25 UNL     1      10.986  -6.298  19.864  1.00  0.00     0.272 C
ENDBRANCH  23  36
ENDBRANCH  22  23
ENDBRANCH  21  22
ENDBRANCH   1  21
TORSDOF 8
ENDMDL