MODEL 2
REMARK VINA RESULT: -7.388427009      1.231      2.186
REMARK  10 active torsions:
REMARK  status: ('A' for Active; 'I' for Inactive)
REMARK    1  A    between atoms: C2_2  and  C3_3
REMARK    2  A    between atoms: C3_3  and  C4_4
REMARK    3  A    between atoms: C5_5  and  C6_6
REMARK    4  A    between atoms: C7_9  and  C8_10
REMARK    5  A    between atoms: C9_11  and  C10_12
REMARK    6  A    between atoms: C11_13  and  C12_14
REMARK    7  A    between atoms: C12_14  and  N1_15
REMARK    8  A    between atoms: N1_15  and  C13_16
REMARK    9  A    between atoms: C13_16  and  C14_17
REMARK   10  A    between atoms: C20_28  and  C21_29
ROOT
HETATM    1  C4  UNL     1      12.666  -6.351  23.628  1.00  0.00     0.036 C
HETATM    2  C5  UNL     1      11.309  -5.582  23.809  1.00  0.00     0.029 C
HETATM    3  C7  UNL     1      10.407  -6.148  23.056  1.00  0.00    -0.043 C
HETATM    4  C19 UNL     1      10.974  -7.308  22.360  1.00  0.00     0.051 C
HETATM    5  C20 UNL     1      12.192  -7.659  23.348  1.00  0.00     0.049 C
ENDROOT
BRANCH   3   6
HETATM    6  C8  UNL     1       9.028  -5.721  22.947  1.00  0.00     0.017 C
HETATM    7  C9  UNL     1       8.180  -5.941  21.966  1.00  0.00     0.065 C
BRANCH   7   8
HETATM    8  C10 UNL     1       6.837  -5.371  22.139  1.00  0.00    -0.077 C
HETATM    9  C11 UNL     1       5.705  -4.958  22.226  1.00  0.00    -0.073 C
BRANCH   9  10
HETATM   10  C12 UNL     1       4.350  -4.523  22.268  1.00  0.00     0.337 C
BRANCH  10  11
HETATM   11  N1  UNL     1       4.094  -3.165  22.627  1.00  0.00    -0.029 N
HETATM   12  C15 UNL     1       3.374  -2.358  21.726  1.00  0.00     0.271 C
HETATM   13  C16 UNL     1       1.891  -2.326  21.794  1.00  0.00     0.260 C
HETATM   14  N3  UNL     1       1.423  -2.237  23.151  1.00  0.00    -0.072 N
HETATM   15  C17 UNL     1       1.935  -3.464  23.796  1.00  0.00     0.260 C
ATOM     16  H32 UNL     1       1.685  -1.375  23.627  1.00  0.00     0.277 HD
ATOM     17  H31 UNL     1       0.414  -2.112  23.237  1.00  0.00     0.277 HD
HETATM   18  C18 UNL     1       3.401  -3.267  23.958  1.00  0.00     0.271 C
BRANCH  11  19
HETATM   19  C13 UNL     1       5.376  -2.594  23.012  1.00  0.00     0.274 C
BRANCH  19  20
HETATM   20  C14 UNL     1       5.662  -1.221  22.655  1.00  0.00     0.278 C
HETATM   21  N2  UNL     1       6.564  -0.941  21.557  1.00  0.00    -0.057 NA
HETATM   22  O3  UNL     1       5.208  -0.191  23.204  1.00  0.00    -0.270 OA
ENDBRANCH  19  20
ENDBRANCH  11  19
ENDBRANCH  10  11
ENDBRANCH   9  10
ENDBRANCH   7   8
ENDBRANCH   3   6
BRANCH   2  23
HETATM   23  C6  UNL     1      11.229  -4.434  24.658  1.00  0.00     0.206 C
HETATM   24  O1  UNL     1      11.122  -3.252  24.205  1.00  0.00    -0.644 OA
HETATM   25  O2  UNL     1      11.251  -4.513  26.045  1.00  0.00    -0.644 OA
ENDBRANCH   2  23
BRANCH   1  26
HETATM   26  C3  UNL     1      13.449  -5.405  22.844  1.00  0.00     0.010 C
BRANCH  26  27
HETATM   27  C2  UNL     1      13.113  -5.019  21.459  1.00  0.00    -0.004 C
HETATM   28  C1  UNL     1      14.251  -5.357  20.489  1.00  0.00     0.005 C
ENDBRANCH  26  27
ENDBRANCH   1  26
BRANCH   5  29
HETATM   29  C21 UNL     1      12.907  -8.713  22.636  1.00  0.00     0.021 A
HETATM   30  N4  UNL     1      13.726  -8.729  21.597  1.00  0.00    -0.362 N
HETATM   31  C22 UNL     1      14.063  -9.969  21.194  1.00  0.00     0.012 A
ATOM     32  H4  UNL     1      14.069  -7.882  21.143  1.00  0.00     0.165 HD
HETATM   33  C23 UNL     1      14.974 -10.305  20.048  1.00  0.00     0.068 C
HETATM   34  C24 UNL     1      13.415 -10.831  22.036  1.00  0.00    -0.032 A
HETATM   35  C25 UNL     1      13.486 -12.334  22.021  1.00  0.00     0.050 C
HETATM   36  C26 UNL     1      12.694 -10.078  22.930  1.00  0.00    -0.031 A
HETATM   37  C27 UNL     1      11.856 -10.606  24.039  1.00  0.00     0.051 C
ENDBRANCH   5  29
TORSDOF 10
ENDMDL