MODEL 4
REMARK VINA RESULT: -6.714480608      2.665      4.019
REMARK  7 active torsions:
REMARK  status: ('A' for Active; 'I' for Inactive)
REMARK    1  A    between atoms: O1_2  and  C2_3
REMARK    2  A    between atoms: C5_8  and  C6_9
REMARK    3  A    between atoms: C6_9  and  C7_10
REMARK    4  A    between atoms: C7_10  and  C8_11
REMARK    5  A    between atoms: N3_17  and  C12_18
REMARK    6  A    between atoms: C13_19  and  N4_20
REMARK    7  A    between atoms: C17_24  and  C18_25
ROOT
HETATM    1  C8  UNL     1      12.842  -5.089  23.626  1.00  0.00    -0.030 A
HETATM    2  C9  UNL     1      14.165  -5.029  23.299  1.00  0.00     0.096 A
HETATM    3  N2  UNL     1      14.505  -6.207  22.784  1.00  0.00    -0.364 N
ATOM      4  H2  UNL     1      15.437  -6.450  22.450  1.00  0.00     0.165 HD
HETATM    5  C10 UNL     1      13.434  -7.039  22.767  1.00  0.00     0.058 A
HETATM    6  C11 UNL     1      13.294  -8.336  22.332  1.00  0.00     0.123 A
HETATM    7  N3  UNL     1      12.079  -8.967  22.419  1.00  0.00    -0.334 N
HETATM    8  C24 UNL     1      11.068  -8.255  22.944  1.00  0.00     0.093 A
HETATM    9  C25 UNL     1      11.171  -6.965  23.386  1.00  0.00     0.031 A
HETATM   10  C26 UNL     1      12.389  -6.326  23.299  1.00  0.00     0.001 A
ENDROOT
BRANCH   7  11
HETATM   11  C12 UNL     1      12.009 -10.305  21.942  1.00  0.00     0.328 C
HETATM   12  C13 UNL     1      13.082 -11.271  22.324  1.00  0.00     0.271 C
HETATM   13  C17 UNL     1      13.063 -11.590  20.836  1.00  0.00     0.240 C
HETATM   14  N6  UNL     1      12.232 -10.508  20.504  1.00  0.00    -0.044 N
HETATM   15  C22 UNL     1      12.662  -9.387  19.772  1.00  0.00     0.275 C
HETATM   16  C23 UNL     1      10.932 -10.936  19.914  1.00  0.00     0.275 C
BRANCH  12  17
HETATM   17  N4  UNL     1      12.737 -12.320  23.219  1.00  0.00    -0.069 N
HETATM   18  C14 UNL     1      12.630 -11.726  24.555  1.00  0.00     0.272 C
HETATM   19  C15 UNL     1      11.492 -12.992  22.979  1.00  0.00     0.272 C
HETATM   20  C16 UNL     1      13.755 -13.360  23.319  1.00  0.00     0.272 C
ENDBRANCH  12  17
BRANCH  13  21
HETATM   21  C18 UNL     1      14.384 -11.849  20.263  1.00  0.00     0.112 C
HETATM   22  C19 UNL     1      15.382 -10.766  20.159  1.00  0.00     0.036 C
HETATM   23  C20 UNL     1      16.404 -11.376  19.208  1.00  0.00     0.123 C
HETATM   24  N5  UNL     1      15.630 -12.297  18.358  1.00  0.00    -0.361 N
HETATM   25  C21 UNL     1      14.384 -12.557  18.964  1.00  0.00     0.224 C
ATOM     26  H5  UNL     1      15.947 -12.686  17.470  1.00  0.00     0.162 HD
HETATM   27  O2  UNL     1      13.471 -13.238  18.509  1.00  0.00    -0.273 OA
ENDBRANCH  13  21
ENDBRANCH   7  11
BRANCH   1  28
HETATM   28  C7  UNL     1      12.029  -4.007  24.232  1.00  0.00     0.045 C
BRANCH  28  29
HETATM   29  C6  UNL     1      12.872  -3.338  25.291  1.00  0.00     0.048 C
BRANCH  29  30
HETATM   30  C5  UNL     1      12.216  -3.456  26.630  1.00  0.00    -0.006 A
HETATM   31  C2  UNL     1      12.890  -3.433  27.817  1.00  0.00     0.148 A
HETATM   32  N1  UNL     1      11.963  -3.567  28.800  1.00  0.00    -0.346 N
HETATM   33  C3  UNL     1      10.742  -3.672  28.249  1.00  0.00     0.091 A
ATOM     34  H1  UNL     1      12.161  -3.586  29.800  1.00  0.00     0.167 HD
HETATM   35  C4  UNL     1      10.884  -3.604  26.890  1.00  0.00     0.028 A
BRANCH  31  36
HETATM   36  O1  UNL     1      14.257  -3.297  27.955  1.00  0.00    -0.340 OA
HETATM   37  C1  UNL     1      14.880  -3.672  29.159  1.00  0.00     0.211 C
ENDBRANCH  31  36
ENDBRANCH  29  30
ENDBRANCH  28  29
ENDBRANCH   1  28
TORSDOF 7
ENDMDL