MODEL 3
REMARK VINA RESULT: -6.270033329      2.906      5.315
REMARK  10 active torsions:
REMARK  status: ('A' for Active; 'I' for Inactive)
REMARK    1  A    between atoms: C4_4  and  C5_5
REMARK    2  A    between atoms: C5_5  and  N1_6
REMARK    3  A    between atoms: C7_8  and  C8_9
REMARK    4  A    between atoms: C9_10  and  C10_11
REMARK    5  A    between atoms: C18_21  and  N3_22
REMARK    6  A    between atoms: N3_22  and  S2_24
REMARK    7  A    between atoms: S2_24  and  N4_25
REMARK    8  A    between atoms: C19_30  and  C20_31
REMARK    9  A    between atoms: C20_31  and  C21_32
REMARK   10  A    between atoms: C22_33  and  C23_34
ROOT
HETATM    1  C1  UNL     1      11.635  -7.628  19.746  1.00  0.00     0.020 C
HETATM    2  C2  UNL     1      11.910  -7.104  20.881  1.00  0.00    -0.054 C
HETATM    3  C3  UNL     1      10.917  -6.748  21.849  1.00  0.00    -0.039 C
HETATM    4  C4  UNL     1       9.873  -7.466  22.164  1.00  0.00     0.002 C
HETATM    5  C16 UNL     1      11.144  -5.476  22.604  1.00  0.00     0.096 A
HETATM    6  S1  UNL     1      12.333  -5.718  23.949  1.00  0.00    -0.150 SA
HETATM    7  C17 UNL     1      12.426  -4.786  22.401  1.00  0.00     0.090 A
HETATM    8  C18 UNL     1      13.260  -5.247  21.253  1.00  0.00     0.118 C
HETATM    9  C19 UNL     1      13.346  -6.741  21.232  1.00  0.00     0.046 C
ENDROOT
BRANCH   4  10
HETATM   10  C5  UNL     1       9.412  -8.761  21.689  1.00  0.00     0.157 C
BRANCH  10  11
HETATM   11  N1  UNL     1       9.374  -9.745  22.796  1.00  0.00    -0.348 N
HETATM   12  C6  UNL     1      10.523 -10.329  23.142  1.00  0.00     0.114 A
HETATM   13  C7  UNL     1      10.542 -11.268  24.178  1.00  0.00     0.048 A
HETATM   14  C13 UNL     1       9.327 -11.520  24.775  1.00  0.00     0.113 A
HETATM   15  N2  UNL     1       8.187 -10.913  24.401  1.00  0.00    -0.356 N
HETATM   16  C14 UNL     1       6.916 -11.191  25.042  1.00  0.00     0.156 C
HETATM   17  C15 UNL     1       8.209 -10.011  23.395  1.00  0.00     0.184 A
BRANCH  13  18
HETATM   18  C8  UNL     1      11.763 -11.915  24.576  1.00  0.00    -0.064 C
HETATM   19  C9  UNL     1      12.792 -12.463  24.893  1.00  0.00    -0.097 C
BRANCH  19  20
HETATM   20  C10 UNL     1      14.039 -13.143  25.261  1.00  0.00     0.057 C
HETATM   21  C11 UNL     1      13.863 -14.042  26.464  1.00  0.00     0.023 C
HETATM   22  C12 UNL     1      14.492 -13.915  24.043  1.00  0.00     0.023 C
ENDBRANCH  19  20
ENDBRANCH  13  18
ENDBRANCH  10  11
ENDBRANCH   4  10
BRANCH   9  23
HETATM   23  C20 UNL     1      14.267  -7.373  20.248  1.00  0.00     0.038 C
BRANCH  23  24
HETATM   24  C21 UNL     1      15.296  -8.224  20.855  1.00  0.00    -0.030 C
HETATM   25  C22 UNL     1      15.306  -9.547  20.859  1.00  0.00    -0.031 C
BRANCH  25  26
HETATM   26  C23 UNL     1      14.247 -10.376  20.234  1.00  0.00     0.022 C
HETATM   27  C24 UNL     1      13.605 -11.227  21.322  1.00  0.00     0.009 C
ENDBRANCH  25  26
ENDBRANCH  23  24
ENDBRANCH   9  23
BRANCH   8  28
HETATM   28  N3  UNL     1      14.479  -4.511  21.134  1.00  0.00    -0.296 N
ATOM     29  H3  UNL     1      15.205  -4.522  21.851  1.00  0.00     0.174 HD
BRANCH  28  30
HETATM   30  S2  UNL     1      14.612  -3.611  19.689  1.00  0.00     0.313 S
HETATM   31  O1  UNL     1      14.460  -2.147  20.057  1.00  0.00    -0.183 OA
HETATM   32  O2  UNL     1      15.975  -3.862  19.107  1.00  0.00    -0.183 OA
BRANCH  30  33
HETATM   33  N4  UNL     1      13.449  -3.970  18.504  1.00  0.00    -0.312 N
ATOM     34  H42 UNL     1      12.822  -4.769  18.597  1.00  0.00     0.170 HD
ATOM     35  H41 UNL     1      13.431  -3.334  17.706  1.00  0.00     0.170 HD
ENDBRANCH  30  33
ENDBRANCH  28  30
ENDBRANCH   8  28
TORSDOF 10
ENDMDL