MODEL 1
REMARK VINA RESULT: -7.826669531      0.000      0.000
REMARK  8 active torsions:
REMARK  status: ('A' for Active; 'I' for Inactive)
REMARK    1  A    between atoms: C2_2  and  C3_3
REMARK    2  A    between atoms: C3_3  and  N1_4
REMARK    3  A    between atoms: N2_7  and  C6_8
REMARK    4  A    between atoms: C6_8  and  C7_9
REMARK    5  A    between atoms: C7_9  and  N3_10
REMARK       I    between atoms: N4_18  and  C15_19
REMARK       I    between atoms: C15_19  and  N6_23
REMARK    6  A    between atoms: N6_23  and  C16_25
REMARK    7  A    between atoms: C16_25  and  C17_26
REMARK    8  A    between atoms: C20_29  and  N7_30
ROOT
HETATM    1  N3  UNL     1      11.440 -12.177  22.082  1.00  0.00     0.090 N
HETATM    2  C8  UNL     1      10.621 -11.085  21.564  1.00  0.00     0.273 C
HETATM    3  C9  UNL     1      11.447  -9.950  21.040  1.00  0.00     0.041 C
HETATM    4  C10 UNL     1      12.355  -9.356  22.078  1.00  0.00    -0.019 C
HETATM    5  C11 UNL     1      12.225 -10.187  23.324  1.00  0.00     0.041 C
HETATM    6  C12 UNL     1      12.442 -11.629  23.000  1.00  0.00     0.273 C
HETATM    7  C13 UNL     1      13.744  -9.242  21.565  1.00  0.00     0.032 C
HETATM    8  C14 UNL     1      14.322  -8.141  22.437  1.00  0.00     0.142 C
HETATM    9  N4  UNL     1      13.219  -7.207  22.488  1.00  0.00    -0.218 N
HETATM   10  C15 UNL     1      13.318  -5.811  22.606  1.00  0.00     0.670 C
HETATM   11  N5  UNL     1      14.298  -5.148  22.039  1.00  0.00    -0.235 N
ATOM     12  H51 UNL     1      14.370  -4.134  22.125  1.00  0.00     0.174 HD
ATOM     13  H52 UNL     1      14.979  -5.692  21.509  1.00  0.00     0.174 HD
HETATM   14  N6  UNL     1      12.377  -5.061  23.337  1.00  0.00    -0.222 N
ATOM     15  H6  UNL     1      11.488  -5.502  23.574  1.00  0.00     0.178 HD
HETATM   16  C22 UNL     1      11.955  -7.930  22.401  1.00  0.00     0.151 C
ENDROOT
BRANCH   1  17
HETATM   17  C7  UNL     1      10.544 -12.954  22.906  1.00  0.00     0.300 C
BRANCH  17  18
HETATM   18  C6  UNL     1       9.255 -12.321  23.271  1.00  0.00     0.268 C
BRANCH  18  19
HETATM   19  N2  UNL     1       8.770 -12.536  24.595  1.00  0.00    -0.061 N
HETATM   20  C5  UNL     1       9.104 -13.850  25.119  1.00  0.00     0.265 C
HETATM   21  C4  UNL     1       8.104 -14.171  26.210  1.00  0.00     0.265 C
HETATM   22  N1  UNL     1       7.706 -12.915  26.829  1.00  0.00    -0.062 N
HETATM   23  C24 UNL     1       6.760 -12.304  25.916  1.00  0.00     0.265 C
HETATM   24  C26 UNL     1       8.907 -12.109  26.931  1.00  0.00     0.265 C
HETATM   25  C23 UNL     1       7.297 -12.529  24.526  1.00  0.00     0.265 C
HETATM   26  C25 UNL     1       9.171 -11.536  25.521  1.00  0.00     0.265 C
BRANCH  22  27
HETATM   27  C3  UNL     1       7.177 -13.083  28.143  1.00  0.00     0.237 C
BRANCH  27  28
HETATM   28  C2  UNL     1       5.676 -13.061  28.228  1.00  0.00     0.023 C
HETATM   29  C1  UNL     1       5.254 -14.455  28.702  1.00  0.00     0.007 C
ENDBRANCH  27  28
ENDBRANCH  22  27
ENDBRANCH  18  19
ENDBRANCH  17  18
ENDBRANCH   1  17
BRANCH  14  30
HETATM   30  C16 UNL     1      12.598  -3.707  23.768  1.00  0.00     0.178 C
BRANCH  30  31
HETATM   31  C17 UNL     1      12.427  -3.511  25.222  1.00  0.00    -0.024 A
HETATM   32  C18 UNL     1      11.245  -3.860  25.841  1.00  0.00     0.014 A
HETATM   33  C19 UNL     1      11.094  -3.672  27.199  1.00  0.00     0.048 A
HETATM   34  C20 UNL     1      12.127  -3.137  27.922  1.00  0.00     0.098 A
HETATM   35  N8  UNL     1      13.274  -2.796  27.333  1.00  0.00    -0.352 N
HETATM   36  C21 UNL     1      13.426  -2.979  25.999  1.00  0.00     0.098 A
ATOM     37  H8  UNL     1      14.034  -2.398  27.884  1.00  0.00     0.166 HD
BRANCH  34  38
HETATM   38  N7  UNL     1      12.001  -2.952  29.202  1.00  0.00    -0.385 N
ATOM     39  H72 UNL     1      11.605  -3.700  29.771  1.00  0.00     0.157 HD
ATOM     40  H71 UNL     1      12.296  -2.071  29.624  1.00  0.00     0.157 HD
ENDBRANCH  34  38
ENDBRANCH  30  31
ENDBRANCH  14  30
TORSDOF 8
ENDMDL