MODEL 2
REMARK VINA RESULT: -7.437612703      1.145      1.301
REMARK  7 active torsions:
REMARK  status: ('A' for Active; 'I' for Inactive)
REMARK    1  A    between atoms: C3_3  and  C4_4
REMARK    2  A    between atoms: C4_4  and  C5_5
REMARK    3  A    between atoms: C5_5  and  C6_6
REMARK    4  A    between atoms: C6_6  and  N1_7
REMARK    5  A    between atoms: C8_9  and  C9_10
REMARK    6  A    between atoms: C9_10  and  C10_11
REMARK    7  A    between atoms: C10_11  and  N2_12
ROOT
HETATM    1  C1  UNL     1      14.133 -14.165  26.513  1.00  0.00     0.012 C
HETATM    2  C2  UNL     1      13.648 -13.401  25.717  1.00  0.00    -0.117 C
HETATM    3  C3  UNL     1      13.041 -12.478  24.760  1.00  0.00     0.093 C
ENDROOT
BRANCH   3   4
HETATM    4  C4  UNL     1      11.519 -12.446  24.954  1.00  0.00     0.014 C
BRANCH   4   5
HETATM    5  C5  UNL     1      10.999 -11.063  24.859  1.00  0.00     0.031 C
BRANCH   5   6
HETATM    6  C6  UNL     1      11.840 -10.113  24.113  1.00  0.00     0.268 C
BRANCH   6   7
HETATM    7  N1  UNL     1      11.490  -9.872  22.759  1.00  0.00     0.042 N
HETATM    8  C7  UNL     1      11.393  -8.386  22.599  1.00  0.00     0.276 C
HETATM    9  C8  UNL     1      12.768  -7.771  22.643  1.00  0.00     0.052 C
HETATM   10  C12 UNL     1      13.463  -8.205  21.374  1.00  0.00     0.100 C
HETATM   11  C13 UNL     1      14.861  -8.550  21.675  1.00  0.00     0.041 C
HETATM   12  C22 UNL     1      13.428  -7.196  20.264  1.00  0.00     0.264 C
HETATM   13  O1  UNL     1      12.749  -9.299  20.928  1.00  0.00    -0.343 OA
HETATM   14  C14 UNL     1      15.771  -8.891  20.565  1.00  0.00     0.003 C
HETATM   15  C15 UNL     1      15.226  -9.611  19.394  1.00  0.00     0.001 C
HETATM   16  C16 UNL     1      14.122  -9.060  18.637  1.00  0.00     0.009 C
HETATM   17  C17 UNL     1      13.597  -7.718  18.917  1.00  0.00     0.055 C
HETATM   18  C18 UNL     1      14.639  -6.651  18.662  1.00  0.00     0.230 C
HETATM   19  C19 UNL     1      14.163  -5.459  17.875  1.00  0.00     0.038 C
HETATM   20  N5  UNL     1      14.538  -6.325  20.072  1.00  0.00     0.101 N
HETATM   21  C20 UNL     1      14.690  -4.328  18.769  1.00  0.00     0.032 C
HETATM   22  C21 UNL     1      14.341  -4.909  20.127  1.00  0.00     0.273 C
HETATM   23  C23 UNL     1      12.470 -10.290  21.810  1.00  0.00     0.352 C
HETATM   24  C24 UNL     1      12.057 -11.505  20.968  1.00  0.00     0.073 C
HETATM   25  C25 UNL     1      10.837 -11.260  20.145  1.00  0.00     0.109 C
HETATM   26  C26 UNL     1       9.840 -10.607  21.037  1.00  0.00     0.241 C
HETATM   27  O2  UNL     1       8.700 -10.356  20.580  1.00  0.00    -0.272 OA
HETATM   28  N6  UNL     1      10.222 -10.298  22.365  1.00  0.00    -0.182 N
ATOM     29  H6  UNL     1       9.512 -10.394  23.092  1.00  0.00     0.197 HD
BRANCH   9  30
HETATM   30  C9  UNL     1      12.743  -6.314  22.907  1.00  0.00     0.029 C
BRANCH  30  31
HETATM   31  C10 UNL     1      11.344  -5.845  23.250  1.00  0.00     0.122 C
BRANCH  31  32
HETATM   32  N2  UNL     1      11.361  -5.593  24.704  1.00  0.00    -0.367 N
HETATM   33  C11 UNL     1      11.268  -4.404  25.176  1.00  0.00     0.196 C
HETATM   34  N3  UNL     1      11.277  -4.103  26.556  1.00  0.00    -0.067 NA
HETATM   35  N4  UNL     1      11.147  -3.325  24.256  1.00  0.00    -0.067 NA
ATOM     36  H2  UNL     1      11.448  -6.381  25.346  1.00  0.00     0.161 HD
ENDBRANCH  31  32
ENDBRANCH  30  31
ENDBRANCH   9  30
ENDBRANCH   6   7
ENDBRANCH   5   6
ENDBRANCH   4   5
ENDBRANCH   3   4
TORSDOF 7
ENDMDL