MODEL 5
REMARK VINA RESULT: -6.308299801      3.935      8.156
REMARK  10 active torsions:
REMARK  status: ('A' for Active; 'I' for Inactive)
REMARK    1  A    between atoms: N1_2  and  C2_5
REMARK    2  A    between atoms: C2_5  and  C3_6
REMARK    3  A    between atoms: C3_6  and  N2_8
REMARK    4  A    between atoms: N2_8  and  C5_10
REMARK    5  A    between atoms: C5_10  and  O1_11
REMARK    6  A    between atoms: C5_10  and  C6_13
REMARK    7  A    between atoms: C6_13  and  N3_14
REMARK    8  A    between atoms: C6_13  and  C17_31
REMARK    9  A    between atoms: N3_14  and  S1_16
REMARK   10  A    between atoms: S1_16  and  N4_19
ROOT
HETATM    1  C6  UNL     1      11.103  -6.096  22.758  1.00  0.00     0.176 C
ENDROOT
BRANCH   1   2
HETATM    2  C5  UNL     1      10.863  -4.985  23.692  1.00  0.00     0.136 C
BRANCH   2   3
HETATM    3  N2  UNL     1      11.706  -3.981  24.152  1.00  0.00    -0.367 N
ATOM      4  H2  UNL     1      11.887  -3.181  23.546  1.00  0.00     0.161 HD
BRANCH   3   5
HETATM    5  C3  UNL     1      12.345  -4.020  25.473  1.00  0.00     0.104 C
HETATM    6  C4  UNL     1      13.779  -3.532  25.373  1.00  0.00     0.034 C
BRANCH   5   7
HETATM    7  C2  UNL     1      11.533  -3.224  26.465  1.00  0.00     0.256 C
BRANCH   7   8
HETATM    8  N1  UNL     1      12.401  -2.889  27.573  1.00  0.00    -0.077 N
HETATM    9  C1  UNL     1      11.949  -3.515  28.806  1.00  0.00     0.267 C
ATOM     10  H12 UNL     1      12.500  -1.879  27.679  1.00  0.00     0.276 HD
ATOM     11  H11 UNL     1      13.374  -3.120  27.370  1.00  0.00     0.276 HD
ENDBRANCH   7   8
ENDBRANCH   5   7
ENDBRANCH   3   5
ENDBRANCH   2   3
BRANCH   2  12
HETATM   12  O1  UNL     1       9.655  -4.930  24.177  1.00  0.00    -0.348 OA
ATOM     13  H1  UNL     1       9.133  -5.706  24.007  1.00  0.00     0.219 HD
ENDBRANCH   2  12
ENDBRANCH   1   2
BRANCH   1  14
HETATM   14  N3  UNL     1      10.627  -7.286  23.470  1.00  0.00    -0.289 N
ATOM     15  H3  UNL     1      11.090  -7.640  24.307  1.00  0.00     0.174 HD
BRANCH  14  16
HETATM   16  S1  UNL     1       9.263  -8.032  22.815  1.00  0.00     0.321 S
HETATM   17  O2  UNL     1       8.993  -7.566  21.410  1.00  0.00    -0.182 OA
HETATM   18  O3  UNL     1       8.032  -7.622  23.625  1.00  0.00    -0.182 OA
BRANCH  16  19
HETATM   19  N4  UNL     1       9.433  -9.734  22.864  1.00  0.00    -0.271 N
HETATM   20  C7  UNL     1      10.399 -10.219  21.939  1.00  0.00     0.170 C
HETATM   21  C8  UNL     1      11.628 -10.585  22.696  1.00  0.00     0.259 C
HETATM   22  N5  UNL     1      11.422 -11.633  23.676  1.00  0.00    -0.053 N
HETATM   23  C9  UNL     1      12.594 -11.543  24.566  1.00  0.00     0.239 C
HETATM   24  C12 UNL     1      11.518 -12.937  23.070  1.00  0.00     0.123 C
HETATM   25  C15 UNL     1      10.256 -11.454  24.463  1.00  0.00     0.283 C
HETATM   26  C10 UNL     1      13.113 -12.912  24.787  1.00  0.00     0.030 C
HETATM   27  C11 UNL     1      12.072 -13.811  24.206  1.00  0.00     0.040 C
HETATM   28  C13 UNL     1      10.224 -13.551  22.653  1.00  0.00     0.046 C
HETATM   29  C14 UNL     1      12.513 -13.025  21.952  1.00  0.00     0.046 C
HETATM   30  C16 UNL     1       9.379 -10.303  24.141  1.00  0.00     0.105 C
ENDBRANCH  16  19
ENDBRANCH  14  16
ENDBRANCH   1  14
BRANCH   1  31
HETATM   31  C17 UNL     1      12.463  -6.257  22.208  1.00  0.00    -0.015 C
HETATM   32  C18 UNL     1      13.393  -7.021  23.138  1.00  0.00     0.018 C
HETATM   33  C19 UNL     1      13.064  -4.929  21.876  1.00  0.00     0.012 C
HETATM   34  C20 UNL     1      13.593  -4.810  20.471  1.00  0.00     0.001 C
HETATM   35  C21 UNL     1      12.674  -5.190  19.378  1.00  0.00     0.000 C
HETATM   36  C22 UNL     1      11.780  -6.319  19.798  1.00  0.00     0.001 C
HETATM   37  C23 UNL     1      12.458  -7.077  20.910  1.00  0.00     0.012 C
ENDBRANCH   1  31
TORSDOF 10
ENDMDL