MODEL 4
REMARK VINA RESULT: -7.982872490      2.091     10.053
REMARK  7 active torsions:
REMARK  status: ('A' for Active; 'I' for Inactive)
REMARK    1  A    between atoms: N2_6  and  C5_7
REMARK    2  A    between atoms: C9_11  and  C10_12
REMARK    3  A    between atoms: C10_12  and  O1_13
REMARK    4  A    between atoms: O1_13  and  C11_14
REMARK    5  A    between atoms: C14_17  and  C15_18
REMARK    6  A    between atoms: C15_18  and  N3_19
REMARK    7  A    between atoms: C18_22  and  C19_23
ROOT
HETATM    1  C1  UNL     1      10.377 -16.618  21.540  1.00  0.00     0.124 C
HETATM    2  C2  UNL     1      11.125 -16.407  22.484  1.00  0.00    -0.068 C
HETATM    3  N1  UNL     1      11.985 -16.198  23.577  1.00  0.00    -0.291 N
HETATM    4  C3  UNL     1      12.304 -17.312  24.290  1.00  0.00     0.123 A
HETATM    5  C4  UNL     1      13.141 -17.204  25.376  1.00  0.00     0.109 A
HETATM    6  N2  UNL     1      13.642 -16.005  25.735  1.00  0.00    -0.358 N
HETATM    7  C7  UNL     1      13.305 -14.938  25.012  1.00  0.00     0.033 A
HETATM    8  C8  UNL     1      13.858 -13.617  25.407  1.00  0.00     0.070 C
HETATM    9  C9  UNL     1      12.458 -14.990  23.896  1.00  0.00     0.070 A
ENDROOT
BRANCH   9  10
HETATM   10  C10 UNL     1      12.134 -13.772  23.156  1.00  0.00     0.236 C
BRANCH  10  11
HETATM   11  O1  UNL     1      12.666 -13.636  21.886  1.00  0.00    -0.345 OA
BRANCH  11  12
HETATM   12  C11 UNL     1      13.362 -12.496  21.538  1.00  0.00     0.069 A
HETATM   13  C12 UNL     1      12.895 -11.243  21.943  1.00  0.00     0.037 A
HETATM   14  C13 UNL     1      13.610 -10.118  21.582  1.00  0.00     0.011 A
HETATM   15  C14 UNL     1      14.772 -10.162  20.835  1.00  0.00    -0.038 A
HETATM   16  C26 UNL     1      15.217 -11.408  20.444  1.00  0.00     0.011 A
HETATM   17  C27 UNL     1      14.515 -12.568  20.795  1.00  0.00     0.037 A
BRANCH  15  18
HETATM   18  C15 UNL     1      15.493  -8.915  20.474  1.00  0.00     0.186 C
BRANCH  18  19
HETATM   19  N3  UNL     1      14.760  -7.714  20.824  1.00  0.00    -0.299 N
HETATM   20  C16 UNL     1      14.183  -6.880  19.948  1.00  0.00     0.113 A
HETATM   21  C17 UNL     1      13.599  -5.874  20.677  1.00  0.00     0.052 A
HETATM   22  C18 UNL     1      13.828  -6.101  21.992  1.00  0.00     0.078 A
HETATM   23  N6  UNL     1      14.557  -7.263  22.042  1.00  0.00    -0.296 N
ATOM     24  H6  UNL     1      14.892  -7.709  22.896  1.00  0.00     0.187 HD
BRANCH  22  25
HETATM   25  C19 UNL     1      13.449  -5.357  23.194  1.00  0.00     0.086 A
HETATM   26  C20 UNL     1      12.301  -5.544  23.795  1.00  0.00     0.035 A
HETATM   27  C21 UNL     1      11.350  -6.535  23.252  1.00  0.00     0.070 C
HETATM   28  N4  UNL     1      11.946  -4.794  24.987  1.00  0.00    -0.354 N
HETATM   29  C22 UNL     1      12.820  -3.831  25.552  1.00  0.00     0.097 A
ATOM     30  H4  UNL     1      11.043  -4.965  25.430  1.00  0.00     0.166 HD
HETATM   31  C23 UNL     1      12.496  -3.152  26.639  1.00  0.00     0.004 C
HETATM   32  C25 UNL     1      14.096  -3.637  24.865  1.00  0.00     0.272 A
HETATM   33  C24 UNL     1      11.182  -3.420  27.269  1.00  0.00     0.038 C
HETATM   34  O2  UNL     1      14.891  -2.798  25.330  1.00  0.00    -0.266 OA
HETATM   35  N5  UNL     1      14.398  -4.394  23.702  1.00  0.00    -0.318 N
ATOM     36  H5  UNL     1      15.287  -4.256  23.223  1.00  0.00     0.169 HD
ENDBRANCH  22  25
ENDBRANCH  18  19
ENDBRANCH  15  18
ENDBRANCH  11  12
ENDBRANCH  10  11
ENDBRANCH   9  10
BRANCH   6  37
HETATM   37  C5  UNL     1      14.512 -15.951  26.874  1.00  0.00     0.124 C
HETATM   38  C6  UNL     1      14.882 -17.368  27.288  1.00  0.00     0.027 C
ENDBRANCH   6  37
TORSDOF 7
ENDMDL