MODEL 1
REMARK VINA RESULT: -3.208094800      0.000      0.000
REMARK  3 active torsions:
REMARK  status: ('A' for Active; 'I' for Inactive)
REMARK    1  A    between atoms: N1_1  and  C1_5
REMARK    2  A    between atoms: C1_5  and  C2_6
REMARK    3  A    between atoms: C1_5  and  C3_13
ROOT
HETATM    1  C1  UNL     1      21.828  11.589  28.632  1.00  0.00     0.283 C
ENDROOT
BRANCH   1   2
HETATM    2  N1  UNL     1      21.650  13.005  28.891  1.00  0.00    -0.066 N
ATOM      3  H13 UNL     1      20.700  13.205  29.204  1.00  0.00     0.275 HD
ATOM      4  H12 UNL     1      22.161  13.293  29.726  1.00  0.00     0.275 HD
ATOM      5  H11 UNL     1      21.902  13.581  28.088  1.00  0.00     0.275 HD
ENDBRANCH   1   2
BRANCH   1   6
HETATM    6  C2  UNL     1      20.541  10.863  28.558  1.00  0.00     0.146 A
HETATM    7  N2  UNL     1      19.265  11.122  28.177  1.00  0.00    -0.272 N
HETATM    8  N3  UNL     1      18.879   9.912  28.468  1.00  0.00    -0.240 N
ATOM      9  H2  UNL     1      18.791  11.946  27.807  1.00  0.00     0.190 HD
HETATM   10  N4  UNL     1      20.100   9.612  28.849  1.00  0.00    -0.272 N
ATOM     11  H3  UNL     1      17.995   9.406  28.420  1.00  0.00     0.208 HD
ATOM     12  H4  UNL     1      20.544   8.770  29.218  1.00  0.00     0.190 HD
ENDBRANCH   1   6
BRANCH   1  13
HETATM   13  C3  UNL     1      22.517  11.447  27.311  1.00  0.00     0.223 C
HETATM   14  C4  UNL     1      22.251  12.630  26.393  1.00  0.00     0.037 C
HETATM   15  C5  UNL     1      23.306  12.389  25.320  1.00  0.00     0.029 C
HETATM   16  C6  UNL     1      24.436  11.771  26.098  1.00  0.00     0.233 C
HETATM   17  N5  UNL     1      23.971  11.533  27.434  1.00  0.00    -0.069 N
ATOM     18  H52 UNL     1      24.289  12.223  28.114  1.00  0.00     0.277 HD
ATOM     19  H51 UNL     1      24.397  10.723  27.884  1.00  0.00     0.277 HD
ENDBRANCH   1  13
TORSDOF 3
ENDMDL