MODEL 3
REMARK VINA RESULT: -2.898796681      2.632      3.922
REMARK  3 active torsions:
REMARK  status: ('A' for Active; 'I' for Inactive)
REMARK    1  A    between atoms: C2_2  and  N1_3
REMARK    2  A    between atoms: C2_2  and  C3_7
REMARK    3  A    between atoms: N3_14  and  O1_16
ROOT
HETATM    1  C3  UNL     1      23.259  11.525  26.697  1.00  0.00     0.315 C
HETATM    2  N2  UNL     1      23.899  11.752  27.955  1.00  0.00    -0.052 N
ATOM      3  H21 UNL     1      23.765  10.952  28.573  1.00  0.00     0.279 HD
ATOM      4  H22 UNL     1      23.399  12.466  28.486  1.00  0.00     0.279 HD
HETATM    5  C4  UNL     1      25.293  12.085  27.856  1.00  0.00     0.242 C
HETATM    6  C5  UNL     1      26.026  10.837  27.363  1.00  0.00     0.105 C
HETATM    7  C6  UNL     1      25.394  10.471  26.068  1.00  0.00     0.100 C
HETATM    8  N3  UNL     1      25.959   9.576  25.315  1.00  0.00    -0.257 N
ATOM      9  H3  UNL     1      26.827   9.134  25.618  1.00  0.00     0.195 HD
HETATM   10  N4  UNL     1      24.181  11.113  25.684  1.00  0.00    -0.349 N
ATOM     11  H4  UNL     1      23.973  11.277  24.698  1.00  0.00     0.163 HD
ENDROOT
BRANCH   1  12
HETATM   12  C2  UNL     1      22.487  12.770  26.320  1.00  0.00     0.229 C
HETATM   13  C1  UNL     1      22.387  12.866  24.817  1.00  0.00     0.043 C
BRANCH  12  14
HETATM   14  N1  UNL     1      21.185  12.691  26.907  1.00  0.00    -0.072 N
ATOM     15  H13 UNL     1      20.458  12.577  26.202  1.00  0.00     0.274 HD
ATOM     16  H12 UNL     1      21.049  11.815  27.410  1.00  0.00     0.274 HD
ATOM     17  H11 UNL     1      21.010  13.501  27.503  1.00  0.00     0.274 HD
ENDBRANCH  12  14
ENDBRANCH   1  12
BRANCH   8  18
HETATM   18  O1  UNL     1      25.396   9.220  24.115  1.00  0.00    -0.288 OA
ATOM     19  H1  UNL     1      25.925   8.820  23.436  1.00  0.00     0.244 HD
ENDBRANCH   8  18
TORSDOF 3
ENDMDL