MODEL 4
REMARK VINA RESULT: -3.492727097      1.728      2.354
REMARK  4 active torsions:
REMARK  status: ('A' for Active; 'I' for Inactive)
REMARK    1  A    between atoms: C2_2  and  N1_3
REMARK    2  A    between atoms: C2_2  and  C3_7
REMARK    3  A    between atoms: C3_7  and  N2_9
REMARK    4  A    between atoms: N2_9  and  C5_11
ROOT
HETATM    1  N2  UNL     1      22.053  11.461  28.586  1.00  0.00    -0.217 N
ATOM      2  H2  UNL     1      22.610  11.011  29.313  1.00  0.00     0.178 HD
ENDROOT
BRANCH   1   3
HETATM    3  C3  UNL     1      22.699  12.445  27.769  1.00  0.00     0.125 C
HETATM    4  C4  UNL     1      24.065  12.721  28.399  1.00  0.00     0.035 C
BRANCH   3   5
HETATM    5  C2  UNL     1      22.957  11.963  26.360  1.00  0.00     0.202 C
HETATM    6  C1  UNL     1      24.379  12.247  25.983  1.00  0.00     0.042 C
BRANCH   5   7
HETATM    7  N1  UNL     1      22.018  12.607  25.441  1.00  0.00    -0.073 N
ATOM      8  H13 UNL     1      22.497  13.248  24.807  1.00  0.00     0.274 HD
ATOM      9  H12 UNL     1      21.656  11.946  24.753  1.00  0.00     0.274 HD
ATOM     10  H11 UNL     1      21.263  13.075  25.943  1.00  0.00     0.274 HD
ENDBRANCH   5   7
ENDBRANCH   3   5
ENDBRANCH   1   3
BRANCH   1  11
HETATM   11  C5  UNL     1      20.823  11.102  28.472  1.00  0.00     0.710 A
HETATM   12  N3  UNL     1      19.825  11.970  28.264  1.00  0.00    -0.115 N
HETATM   13  N4  UNL     1      18.708  11.269  28.198  1.00  0.00    -0.213 N
ATOM     14  H3  UNL     1      19.912  12.982  28.172  1.00  0.00     0.207 HD
HETATM   15  N5  UNL     1      18.971   9.992  28.358  1.00  0.00    -0.213 N
ATOM     16  H4  UNL     1      17.779  11.661  28.047  1.00  0.00     0.210 HD
HETATM   17  N6  UNL     1      20.274   9.883  28.527  1.00  0.00    -0.115 N
ATOM     18  H5  UNL     1      18.295   9.228  28.352  1.00  0.00     0.210 HD
ATOM     19  H6  UNL     1      20.782   9.011  28.677  1.00  0.00     0.207 HD
ENDBRANCH   1  11
TORSDOF 4
ENDMDL