MODEL 2
REMARK VINA RESULT: -2.430152974      1.467      4.627
REMARK  2 active torsions:
REMARK  status: ('A' for Active; 'I' for Inactive)
REMARK    1  A    between atoms: N1_3  and  C3_4
REMARK    2  A    between atoms: C3_4  and  C4_5
ROOT
HETATM    1  C4  UNL     1      22.649  11.128  27.448  1.00  0.00     0.410 C
HETATM    2  N2  UNL     1      21.913  12.150  26.768  1.00  0.00    -0.043 N
ATOM      3  H21 UNL     1      21.321  11.786  26.022  1.00  0.00     0.279 HD
ATOM      4  H22 UNL     1      22.502  12.749  26.189  1.00  0.00     0.279 HD
HETATM    5  C5  UNL     1      21.175  12.883  27.769  1.00  0.00     0.262 C
HETATM    6  C6  UNL     1      21.061  11.890  28.891  1.00  0.00     0.262 C
HETATM    7  N3  UNL     1      21.696  10.669  28.457  1.00  0.00    -0.043 N
ATOM      8  H31 UNL     1      22.107  10.115  29.208  1.00  0.00     0.279 HD
ATOM      9  H32 UNL     1      21.052   9.946  28.136  1.00  0.00     0.279 HD
ENDROOT
BRANCH   1  10
HETATM   10  C3  UNL     1      23.848  11.661  28.202  1.00  0.00     0.337 C
BRANCH  10  11
HETATM   11  N1  UNL     1      25.047  11.113  27.594  1.00  0.00     0.119 N
HETATM   12  C2  UNL     1      25.410  11.832  26.401  1.00  0.00     0.302 C
HETATM   13  C1  UNL     1      25.754  10.784  25.361  1.00  0.00     0.264 C
HETATM   14  N4  UNL     1      25.967   9.607  26.185  1.00  0.00    -0.047 N
HETATM   15  C7  UNL     1      24.882   9.756  27.164  1.00  0.00     0.502 C
ATOM     16  H42 UNL     1      25.990   8.719  25.686  1.00  0.00     0.279 HD
ATOM     17  H41 UNL     1      26.903   9.510  26.579  1.00  0.00     0.279 HD
ENDBRANCH  10  11
ENDBRANCH   1  10
TORSDOF 2
ENDMDL