MODEL 1
REMARK VINA RESULT: -3.763429300      0.000      0.000
REMARK  5 active torsions:
REMARK  status: ('A' for Active; 'I' for Inactive)
REMARK    1  A    between atoms: C2_3  and  N2_4
REMARK    2  A    between atoms: C2_3  and  N3_8
REMARK    3  A    between atoms: N3_8  and  N4_9
REMARK    4  A    between atoms: N3_8  and  C3_12
REMARK    5  A    between atoms: C3_12  and  C4_13
ROOT
HETATM    1  N1  UNL     1      19.007   3.078  20.253  1.00  0.00    -0.194 NA
HETATM    2  C1  UNL     1      18.502   4.103  20.422  1.00  0.00     0.110 C
HETATM    3  C2  UNL     1      17.902   5.382  20.658  1.00  0.00     0.387 C
ENDROOT
BRANCH   3   4
HETATM    4  N2  UNL     1      18.916   6.296  21.235  1.00  0.00    -0.048 N
ATOM      5  H23 UNL     1      18.687   6.578  22.188  1.00  0.00     0.277 HD
ATOM      6  H22 UNL     1      19.797   5.821  21.435  1.00  0.00     0.277 HD
ATOM      7  H21 UNL     1      19.039   7.095  20.613  1.00  0.00     0.277 HD
ENDBRANCH   3   4
BRANCH   3   8
HETATM    8  N3  UNL     1      17.349   6.040  19.559  1.00  0.00    -0.168 NA
BRANCH   8   9
HETATM    9  N4  UNL     1      17.427   5.245  18.409  1.00  0.00    -0.357 NA
ATOM     10  H42 UNL     1      18.329   4.768  18.388  1.00  0.00     0.171 HD
ATOM     11  H41 UNL     1      16.542   4.767  18.236  1.00  0.00     0.171 HD
ENDBRANCH   8   9
BRANCH   8  12
HETATM   12  C3  UNL     1      17.657   7.361  19.230  1.00  0.00     0.118 C
BRANCH  12  13
HETATM   13  C4  UNL     1      16.562   8.235  18.764  1.00  0.00     0.077 A
HETATM   14  C5  UNL     1      15.946   9.366  19.246  1.00  0.00     0.139 A
HETATM   15  N5  UNL     1      15.142   9.340  18.172  1.00  0.00    -0.309 N
HETATM   16  N6  UNL     1      15.727   8.269  17.717  1.00  0.00    -0.299 N
ATOM     17  H5  UNL     1      14.376   9.928  17.842  1.00  0.00     0.186 HD
ATOM     18  H6  UNL     1      15.598   7.686  16.890  1.00  0.00     0.187 HD
ENDBRANCH  12  13
ENDBRANCH   8  12
ENDBRANCH   3   8
TORSDOF 5
ENDMDL