MODEL 1
REMARK VINA RESULT: -3.699712620      0.000      0.000
REMARK  5 active torsions:
REMARK  status: ('A' for Active; 'I' for Inactive)
REMARK    1  A    between atoms: N1_1  and  S1_4
REMARK    2  A    between atoms: S1_4  and  N2_5
REMARK    3  A    between atoms: S1_4  and  N3_8
REMARK    4  A    between atoms: S1_4  and  C1_11
REMARK    5  A    between atoms: C3_13  and  N4_14
ROOT
HETATM    1  S1  UNL     1      18.412   3.658  19.188  1.00  0.00    -0.031 SA
ENDROOT
BRANCH   1   2
HETATM    2  N1  UNL     1      17.499   2.502  19.693  1.00  0.00    -0.361 N
ATOM      3  H12 UNL     1      17.820   1.592  20.024  1.00  0.00     0.165 HD
ATOM      4  H11 UNL     1      16.535   2.829  19.628  1.00  0.00     0.165 HD
ENDBRANCH   1   2
BRANCH   1   5
HETATM    5  N2  UNL     1      19.525   3.016  18.318  1.00  0.00    -0.361 N
ATOM      6  H22 UNL     1      19.910   3.412  17.460  1.00  0.00     0.165 HD
ATOM      7  H21 UNL     1      19.788   2.139  18.765  1.00  0.00     0.165 HD
ENDBRANCH   1   5
BRANCH   1   8
HETATM    8  N3  UNL     1      17.413   4.723  18.272  1.00  0.00    -0.361 N
ATOM      9  H32 UNL     1      16.644   5.284  18.640  1.00  0.00     0.165 HD
ATOM     10  H31 UNL     1      17.740   4.681  17.308  1.00  0.00     0.165 HD
ENDBRANCH   1   8
BRANCH   1  11
HETATM   11  C1  UNL     1      19.095   4.582  20.533  1.00  0.00     0.088 C
HETATM   12  C2  UNL     1      18.293   4.542  21.812  1.00  0.00     0.051 C
HETATM   13  C3  UNL     1      18.338   6.047  21.835  1.00  0.00     0.186 C
HETATM   14  C4  UNL     1      18.781   6.048  20.383  1.00  0.00     0.051 C
BRANCH  13  15
HETATM   15  N4  UNL     1      19.383   6.625  22.653  1.00  0.00    -0.075 N
ATOM     16  H43 UNL     1      20.092   7.060  22.060  1.00  0.00     0.274 HD
ATOM     17  H42 UNL     1      19.029   7.447  23.143  1.00  0.00     0.274 HD
ATOM     18  H41 UNL     1      19.825   5.987  23.314  1.00  0.00     0.274 HD
ENDBRANCH  13  15
ENDBRANCH   1  11
TORSDOF 5
ENDMDL