MODEL 3
REMARK VINA RESULT: -0.046690422     10.255     11.188
REMARK  1 active torsions:
REMARK  status: ('A' for Active; 'I' for Inactive)
REMARK    1  A    between atoms: N3_4  and  N4_6
ROOT
HETATM    1  N4  UNL     1      25.263   9.987  25.420  1.00  0.00    -0.287 N
ATOM      2  H4  UNL     1      24.983   9.238  24.787  1.00  0.00     0.188 HD
HETATM    3  C2  UNL     1      24.997   9.892  26.699  1.00  0.00     0.099 C
HETATM    4  C3  UNL     1      25.417  10.995  27.600  1.00  0.00     0.097 C
HETATM    5  C4  UNL     1      24.641  11.049  28.881  1.00  0.00     0.130 C
HETATM    6  N5  UNL     1      23.486  10.197  28.861  1.00  0.00    -0.364 N
ATOM      7  H5  UNL     1      22.604  10.517  29.261  1.00  0.00     0.162 HD
HETATM    8  C5  UNL     1      23.579   8.905  28.279  1.00  0.00     0.189 C
HETATM    9  N6  UNL     1      22.869   7.802  28.851  1.00  0.00    -0.064 NA
HETATM   10  N7  UNL     1      24.320   8.752  27.220  1.00  0.00    -0.319 N
ATOM     11  H7  UNL     1      24.413   7.840  26.773  1.00  0.00     0.169 HD
ENDROOT
BRANCH   1  12
HETATM   12  N3  UNL     1      25.923  11.101  24.922  1.00  0.00    -0.275 N
HETATM   13  C1  UNL     1      25.322  11.868  24.090  1.00  0.00     0.215 C
HETATM   14  N1  UNL     1      24.003  11.571  23.694  1.00  0.00    -0.065 NA
HETATM   15  N2  UNL     1      26.025  13.002  23.598  1.00  0.00    -0.065 NA
ATOM     16  H3  UNL     1      26.877  11.307  25.217  1.00  0.00     0.189 HD
ENDBRANCH   1  12
TORSDOF 1
ENDMDL