MODEL 2
REMARK VINA RESULT: -2.730677620      1.845      2.423
REMARK  2 active torsions:
REMARK  status: ('A' for Active; 'I' for Inactive)
REMARK    1  A    between atoms: N3_4  and  N4_6
REMARK    2  A    between atoms: C5_11  and  N5_12
ROOT
HETATM    1  N4  UNL     1      21.102  11.054  28.140  1.00  0.00    -0.307 N
ATOM      2  H4  UNL     1      20.885  10.088  28.387  1.00  0.00     0.186 HD
HETATM    3  C2  UNL     1      22.300  11.366  27.822  1.00  0.00     0.005 C
HETATM    4  C3  UNL     1      22.766  12.718  27.446  1.00  0.00     0.056 C
HETATM    5  C4  UNL     1      24.255  12.570  27.153  1.00  0.00     0.039 C
HETATM    6  C5  UNL     1      24.324  11.128  26.697  1.00  0.00     0.189 C
HETATM    7  C6  UNL     1      23.462  10.451  27.766  1.00  0.00     0.086 C
ENDROOT
BRANCH   1   8
HETATM    8  N3  UNL     1      20.083  12.012  28.158  1.00  0.00    -0.276 N
HETATM    9  C1  UNL     1      18.903  11.653  28.517  1.00  0.00     0.215 C
HETATM   10  N1  UNL     1      18.613  10.326  28.890  1.00  0.00    -0.065 NA
HETATM   11  N2  UNL     1      17.876  12.630  28.532  1.00  0.00    -0.065 NA
ATOM     12  H3  UNL     1      20.274  12.978  27.890  1.00  0.00     0.189 HD
ENDBRANCH   1   8
BRANCH   6  13
HETATM   13  N5  UNL     1      25.690  10.649  26.740  1.00  0.00    -0.075 N
ATOM     14  H53 UNL     1      26.332  11.289  26.271  1.00  0.00     0.274 HD
ATOM     15  H52 UNL     1      26.083  10.704  27.680  1.00  0.00     0.274 HD
ATOM     16  H51 UNL     1      25.748   9.705  26.358  1.00  0.00     0.274 HD
ENDBRANCH   6  13
TORSDOF 2
ENDMDL