MODEL 3
REMARK VINA RESULT: -3.300181177      1.017      1.481
REMARK  5 active torsions:
REMARK  status: ('A' for Active; 'I' for Inactive)
REMARK    1  A    between atoms: O1_2  and  C2_3
REMARK    2  A    between atoms: C2_3  and  C3_4
REMARK    3  A    between atoms: C3_4  and  N1_5
REMARK    4  A    between atoms: N1_5  and  C4_7
REMARK    5  A    between atoms: C5_12  and  N4_13
ROOT
HETATM    1  C4  UNL     1      22.963   9.195  28.294  1.00  0.00     0.707 A
HETATM    2  N2  UNL     1      21.845   8.725  28.883  1.00  0.00    -0.117 N
ATOM      3  H2  UNL     1      21.742   7.787  29.272  1.00  0.00     0.206 HD
HETATM    4  N3  UNL     1      20.904   9.647  28.885  1.00  0.00    -0.118 N
ATOM      5  H3  UNL     1      19.965   9.546  29.270  1.00  0.00     0.206 HD
HETATM    6  C5  UNL     1      21.400  10.747  28.288  1.00  0.00     0.705 A
HETATM    7  N5  UNL     1      22.667  10.461  27.928  1.00  0.00    -0.020 N
ATOM      8  H5  UNL     1      23.304  11.101  27.452  1.00  0.00     0.203 HD
ENDROOT
BRANCH   1   9
HETATM    9  N1  UNL     1      24.056   8.529  28.140  1.00  0.00    -0.222 N
ATOM     10  H1  UNL     1      24.030   7.562  27.819  1.00  0.00     0.177 HD
BRANCH   9  11
HETATM   11  C3  UNL     1      25.318   9.166  28.427  1.00  0.00     0.164 C
BRANCH  11  12
HETATM   12  C2  UNL     1      26.028   9.733  27.254  1.00  0.00     0.187 C
BRANCH  12  13
HETATM   13  O1  UNL     1      25.854   9.179  26.043  1.00  0.00    -0.394 OA
HETATM   14  C1  UNL     1      25.601   9.953  24.958  1.00  0.00     0.201 C
ENDBRANCH  12  13
ENDBRANCH  11  12
ENDBRANCH   9  11
ENDBRANCH   1   9
BRANCH   6  15
HETATM   15  N4  UNL     1      20.751  11.873  28.105  1.00  0.00    -0.233 N
ATOM     16  H42 UNL     1      20.514  12.576  28.805  1.00  0.00     0.174 HD
ATOM     17  H41 UNL     1      20.385  12.206  27.213  1.00  0.00     0.174 HD
ENDBRANCH   6  15
TORSDOF 5
ENDMDL