MODEL 2
REMARK VINA RESULT: -2.775467347      1.736      2.597
REMARK  3 active torsions:
REMARK  status: ('A' for Active; 'I' for Inactive)
REMARK    1  A    between atoms: C1_4  and  C2_6
REMARK    2  A    between atoms: C2_6  and  N3_7
REMARK    3  A    between atoms: C2_6  and  C3_11
ROOT
HETATM    1  C2  UNL     1      24.858  11.240  25.118  1.00  0.00     0.277 C
ENDROOT
BRANCH   1   2
HETATM    2  C1  UNL     1      25.524   9.911  25.148  1.00  0.00     0.119 C
HETATM    3  N1  UNL     1      25.653   9.255  24.056  1.00  0.00    -0.389 N
ATOM      4  H12 UNL     1      26.110   8.343  24.076  1.00  0.00     0.157 HD
ATOM      5  H11 UNL     1      25.293   9.666  23.195  1.00  0.00     0.157 HD
HETATM    6  N2  UNL     1      26.027   9.337  26.351  1.00  0.00    -0.086 NA
ENDBRANCH   1   2
BRANCH   1   7
HETATM    7  N3  UNL     1      25.655  12.154  24.411  1.00  0.00    -0.067 N
ATOM      8  H33 UNL     1      25.417  13.121  24.631  1.00  0.00     0.275 HD
ATOM      9  H32 UNL     1      26.620  12.160  24.743  1.00  0.00     0.275 HD
ATOM     10  H31 UNL     1      25.595  11.961  23.411  1.00  0.00     0.275 HD
ENDBRANCH   1   7
BRANCH   1  11
HETATM   11  C3  UNL     1      24.484  11.637  26.516  1.00  0.00     0.223 C
HETATM   12  C4  UNL     1      23.939  13.005  26.661  1.00  0.00     0.036 C
HETATM   13  C5  UNL     1      22.424  12.941  26.646  1.00  0.00     0.004 C
HETATM   14  C6  UNL     1      21.998  12.334  27.957  1.00  0.00     0.027 C
HETATM   15  C7  UNL     1      22.843  11.106  28.198  1.00  0.00     0.233 C
HETATM   16  N4  UNL     1      23.538  10.666  27.015  1.00  0.00    -0.069 N
ATOM     17  H42 UNL     1      22.878  10.395  26.285  1.00  0.00     0.277 HD
ATOM     18  H41 UNL     1      23.991   9.766  27.175  1.00  0.00     0.277 HD
ENDBRANCH   1  11
TORSDOF 3
ENDMDL