MODEL 1
REMARK VINA RESULT: -5.758605314      0.000      0.000
REMARK  17 active torsions:
REMARK  status: ('A' for Active; 'I' for Inactive)
REMARK    1  A    between atoms: C2_2  and  C3_3
REMARK    2  A    between atoms: C3_3  and  C4_4
REMARK    3  A    between atoms: C4_4  and  C5_5
REMARK    4  A    between atoms: C7_10  and  C8_11
REMARK    5  A    between atoms: C8_11  and  C9_12
REMARK    6  A    between atoms: N2_15  and  C12_16
REMARK    7  A    between atoms: C12_16  and  C13_17
REMARK    8  A    between atoms: C13_17  and  O2_18
REMARK    9  A    between atoms: N3_20  and  O3_22
REMARK   10  A    between atoms: N4_24  and  C14_25
REMARK   11  A    between atoms: C14_25  and  C15_26
REMARK   12  A    between atoms: C22_34  and  C23_35
REMARK   13  A    between atoms: C23_35  and  C24_36
REMARK   14  A    between atoms: C27_41  and  O5_42
REMARK   15  A    between atoms: C28_44  and  C29_45
REMARK   16  A    between atoms: C29_45  and  C30_46
REMARK   17  A    between atoms: C30_46  and  C31_47
ROOT
HETATM    1  C5  UNL     1      18.690  18.820  10.056  1.00  0.00     0.176 C
HETATM    2  N1  UNL     1      19.300  17.592  10.505  1.00  0.00    -0.346 N
ATOM      3  H1  UNL     1      19.648  17.610  11.464  1.00  0.00     0.163 HD
HETATM    4  C6  UNL     1      19.488  16.390   9.834  1.00  0.00     0.243 C
HETATM    5  O1  UNL     1      20.630  15.934   9.726  1.00  0.00    -0.271 OA
HETATM    6  C7  UNL     1      18.378  15.523   9.189  1.00  0.00     0.200 C
HETATM    7  N2  UNL     1      18.948  14.813   8.108  1.00  0.00    -0.277 N
HETATM    8  N4  UNL     1      19.743  15.568   7.228  1.00  0.00    -0.234 N
HETATM    9  C21 UNL     1      19.443  16.880   6.767  1.00  0.00     0.265 C
HETATM   10  O4  UNL     1      20.436  17.706   6.830  1.00  0.00    -0.269 OA
HETATM   11  C22 UNL     1      18.181  17.424   6.235  1.00  0.00     0.178 C
HETATM   12  N5  UNL     1      18.406  18.837   5.916  1.00  0.00    -0.359 N
ATOM     13  H5  UNL     1      18.630  19.051   4.944  1.00  0.00     0.162 HD
HETATM   14  C27 UNL     1      18.348  19.931   6.798  1.00  0.00     0.135 C
HETATM   15  C28 UNL     1      17.332  20.275   7.795  1.00  0.00     0.159 C
HETATM   16  N6  UNL     1      16.744  19.206   8.523  1.00  0.00    -0.347 N
ATOM     17  H6  UNL     1      15.911  18.761   8.138  1.00  0.00     0.163 HD
HETATM   18  C32 UNL     1      17.257  18.718   9.768  1.00  0.00     0.241 C
HETATM   19  O8  UNL     1      16.478  18.215  10.588  1.00  0.00    -0.271 OA
ENDROOT
BRANCH   7  20
HETATM   20  C12 UNL     1      18.581  13.571   7.653  1.00  0.00     0.169 C
BRANCH  20  21
HETATM   21  C13 UNL     1      19.351  12.360   7.946  1.00  0.00     0.177 C
HETATM   22  N3  UNL     1      20.148  12.368   8.984  1.00  0.00    -0.246 N
ATOM     23  H3  UNL     1      20.234  13.194   9.577  1.00  0.00     0.196 HD
BRANCH  21  24
HETATM   24  O2  UNL     1      19.258  11.233   7.168  1.00  0.00    -0.344 OA
ATOM     25  H2  UNL     1      18.666  11.178   6.428  1.00  0.00     0.219 HD
ENDBRANCH  21  24
BRANCH  22  26
HETATM   26  O3  UNL     1      20.862  11.233   9.246  1.00  0.00    -0.288 OA
ATOM     27  H3  UNL     1      21.729  11.332   9.621  1.00  0.00     0.244 HD
ENDBRANCH  22  26
ENDBRANCH  20  21
ENDBRANCH   7  20
BRANCH   6  28
HETATM   28  C8  UNL     1      17.916  14.794  10.394  1.00  0.00     0.041 C
BRANCH  28  29
HETATM   29  C9  UNL     1      18.226  15.152  11.767  1.00  0.00    -0.020 C
HETATM   30  C10 UNL     1      16.869  15.408  12.498  1.00  0.00     0.009 C
HETATM   31  C11 UNL     1      18.697  13.847  12.500  1.00  0.00     0.009 C
ENDBRANCH  28  29
ENDBRANCH   6  28
BRANCH   8  32
HETATM   32  C14 UNL     1      21.005  15.041   6.817  1.00  0.00     0.097 C
BRANCH  32  33
HETATM   33  C15 UNL     1      21.473  14.967   5.443  1.00  0.00     0.026 C
HETATM   34  C16 UNL     1      21.206  13.512   4.933  1.00  0.00     0.010 C
HETATM   35  C17 UNL     1      22.403  12.626   5.255  1.00  0.00     0.001 C
HETATM   36  C18 UNL     1      23.463  12.996   4.230  1.00  0.00     0.000 C
HETATM   37  C19 UNL     1      23.298  14.460   3.853  1.00  0.00     0.001 C
HETATM   38  C20 UNL     1      22.932  15.170   5.154  1.00  0.00     0.010 C
ENDBRANCH  32  33
ENDBRANCH   8  32
BRANCH  11  39
HETATM   39  C23 UNL     1      17.753  16.786   4.929  1.00  0.00     0.038 C
BRANCH  39  40
HETATM   40  C24 UNL     1      17.223  17.664   3.872  1.00  0.00    -0.020 C
HETATM   41  C25 UNL     1      15.671  17.623   4.068  1.00  0.00     0.009 C
HETATM   42  C26 UNL     1      17.407  17.263   2.453  1.00  0.00     0.009 C
ENDBRANCH  39  40
ENDBRANCH  11  39
BRANCH   1  43
HETATM   43  C4  UNL     1      18.803  19.928  11.125  1.00  0.00     0.035 C
BRANCH  43  44
HETATM   44  C3  UNL     1      19.040  19.355  12.479  1.00  0.00     0.002 C
BRANCH  44  45
HETATM   45  C2  UNL     1      20.384  19.868  13.008  1.00  0.00    -0.004 C
HETATM   46  C1  UNL     1      20.674  19.181  14.335  1.00  0.00     0.005 C
ENDBRANCH  44  45
ENDBRANCH  43  44
ENDBRANCH   1  43
BRANCH  14  47
HETATM   47  O5  UNL     1      19.339  20.773   6.729  1.00  0.00    -0.348 OA
ATOM     48  H5  UNL     1      19.967  20.736   7.441  1.00  0.00     0.219 HD
ENDBRANCH  14  47
BRANCH  15  49
HETATM   49  C29 UNL     1      16.202  21.102   7.203  1.00  0.00     0.044 C
BRANCH  49  50
HETATM   50  C30 UNL     1      15.269  21.618   8.241  1.00  0.00     0.116 C
BRANCH  50  51
HETATM   51  C31 UNL     1      14.132  22.302   7.585  1.00  0.00     0.172 C
HETATM   52  O6  UNL     1      14.076  23.565   7.607  1.00  0.00    -0.648 OA
HETATM   53  O7  UNL     1      13.114  21.625   6.943  1.00  0.00    -0.648 OA
ENDBRANCH  50  51
ENDBRANCH  49  50
ENDBRANCH  15  49
TORSDOF 17
ENDMDL