MODEL 1
REMARK VINA RESULT: -9.162595539      0.000      0.000
REMARK  18 active torsions:
REMARK  status: ('A' for Active; 'I' for Inactive)
REMARK    1  A    between atoms: S1_2  and  C2_3
REMARK    2  A    between atoms: C2_3  and  N3_15
REMARK    3  A    between atoms: N1_4  and  S2_6
REMARK    4  A    between atoms: S2_6  and  N2_9
REMARK    5  A    between atoms: N3_15  and  C8_17
REMARK    6  A    between atoms: C8_17  and  C9_18
REMARK    7  A    between atoms: C9_18  and  C10_19
REMARK    8  A    between atoms: C10_19  and  C11_20
REMARK    9  A    between atoms: C11_20  and  C12_21
REMARK       I    between atoms: C12_21  and  N4_23
REMARK   10  A    between atoms: N4_23  and  C13_25
REMARK   11  A    between atoms: C17_29  and  O4_30
REMARK   12  A    between atoms: C18_32  and  C19_33
REMARK   13  A    between atoms: C19_33  and  O5_34
REMARK   14  A    between atoms: C19_33  and  N5_36
REMARK   15  A    between atoms: N5_36  and  C20_38
REMARK   16  A    between atoms: C20_38  and  C21_39
REMARK   17  A    between atoms: C22_42  and  C23_43
REMARK   18  A    between atoms: C23_43  and  C26_46
ROOT
HETATM    1  C13 UNL     1      14.248  22.479   5.559  1.00  0.00     0.052 A
HETATM    2  C14 UNL     1      14.342  22.831   6.918  1.00  0.00     0.038 A
HETATM    3  C15 UNL     1      15.039  22.092   7.843  1.00  0.00    -0.046 A
HETATM    4  C16 UNL     1      15.687  20.946   7.440  1.00  0.00    -0.012 A
HETATM    5  C17 UNL     1      15.595  20.586   6.113  1.00  0.00     0.089 A
HETATM    6  C18 UNL     1      14.875  21.339   5.137  1.00  0.00     0.075 A
HETATM    7  C22 UNL     1      16.485  20.160   8.389  1.00  0.00     0.036 C
HETATM    8  C27 UNL     1      15.896  20.159   9.787  1.00  0.00     0.011 C
HETATM    9  C28 UNL     1      14.994  21.270  10.140  1.00  0.00     0.005 C
HETATM   10  C29 UNL     1      15.006  22.481   9.286  1.00  0.00     0.039 C
ENDROOT
BRANCH   1  11
HETATM   11  N4  UNL     1      13.670  23.409   4.671  1.00  0.00    -0.326 N
HETATM   12  C12 UNL     1      12.302  23.601   4.384  1.00  0.00     0.222 C
HETATM   13  O3  UNL     1      11.386  22.936   4.910  1.00  0.00    -0.273 OA
ATOM     14  H4  UNL     1      14.322  24.018   4.176  1.00  0.00     0.169 HD
BRANCH  12  15
HETATM   15  C11 UNL     1      11.880  24.639   3.412  1.00  0.00     0.103 C
BRANCH  15  16
HETATM   16  C10 UNL     1      11.158  24.155   2.220  1.00  0.00     0.011 C
BRANCH  16  17
HETATM   17  C9  UNL     1       9.655  24.207   2.259  1.00  0.00     0.020 C
BRANCH  17  18
HETATM   18  C8  UNL     1       9.171  25.620   2.117  1.00  0.00     0.121 C
BRANCH  18  19
HETATM   19  N3  UNL     1       8.676  26.102   3.382  1.00  0.00    -0.370 N
ATOM     20  H3  UNL     1       9.300  26.641   3.983  1.00  0.00     0.161 HD
BRANCH  19  21
HETATM   21  C2  UNL     1       7.357  25.853   3.816  1.00  0.00     0.150 C
HETATM   22  N1  UNL     1       6.965  26.202   4.987  1.00  0.00    -0.251 N
ATOM     23  H1  UNL     1       5.999  26.010   5.250  1.00  0.00     0.182 HD
BRANCH  21  24
HETATM   24  S1  UNL     1       6.192  25.058   2.731  1.00  0.00    -0.098 SA
HETATM   25  C1  UNL     1       4.507  25.342   3.327  1.00  0.00     0.099 C
ENDBRANCH  21  24
BRANCH  22  26
HETATM   26  S2  UNL     1       7.966  26.967   6.116  1.00  0.00     0.304 S
HETATM   27  O1  UNL     1       8.789  28.094   5.567  1.00  0.00    -0.188 OA
HETATM   28  O2  UNL     1       7.163  27.507   7.286  1.00  0.00    -0.188 OA
BRANCH  26  29
HETATM   29  N2  UNL     1       9.083  25.806   6.747  1.00  0.00    -0.193 NA
HETATM   30  C3  UNL     1      10.435  26.171   6.457  1.00  0.00     0.109 C
HETATM   31  C4  UNL     1      11.395  25.588   7.447  1.00  0.00     0.015 C
HETATM   32  C5  UNL     1      11.134  26.235   8.792  1.00  0.00     0.002 C
HETATM   33  C6  UNL     1       9.665  26.354   9.070  1.00  0.00     0.015 C
HETATM   34  C7  UNL     1       8.826  25.521   8.137  1.00  0.00     0.109 C
ENDBRANCH  26  29
ENDBRANCH  22  26
ENDBRANCH  19  21
ENDBRANCH  18  19
ENDBRANCH  17  18
ENDBRANCH  16  17
ENDBRANCH  15  16
ENDBRANCH  12  15
ENDBRANCH   1  11
BRANCH   6  35
HETATM   35  C19 UNL     1      14.831  20.823   3.795  1.00  0.00     0.151 C
BRANCH  35  36
HETATM   36  O5  UNL     1      14.876  21.744   2.860  1.00  0.00    -0.346 OA
ATOM     37  H5  UNL     1      14.045  21.902   2.427  1.00  0.00     0.219 HD
ENDBRANCH  35  36
BRANCH  35  38
HETATM   38  N5  UNL     1      14.758  19.530   3.272  1.00  0.00    -0.360 N
ATOM     39  H5  UNL     1      14.181  18.824   3.729  1.00  0.00     0.162 HD
BRANCH  38  40
HETATM   40  C20 UNL     1      15.527  19.190   2.048  1.00  0.00     0.235 C
BRANCH  40  41
HETATM   41  C21 UNL     1      16.765  18.519   2.446  1.00  0.00     0.191 C
HETATM   42  O6  UNL     1      17.888  18.761   1.899  1.00  0.00    -0.647 OA
HETATM   43  O7  UNL     1      16.754  17.572   3.456  1.00  0.00    -0.647 OA
ENDBRANCH  40  41
ENDBRANCH  38  40
ENDBRANCH  35  38
ENDBRANCH   6  35
BRANCH   5  44
HETATM   44  O4  UNL     1      16.184  19.454   5.618  1.00  0.00    -0.359 OA
ATOM     45  H4  UNL     1      15.679  18.729   5.267  1.00  0.00     0.217 HD
ENDBRANCH   5  44
BRANCH   7  46
HETATM   46  C23 UNL     1      17.940  20.512   8.508  1.00  0.00     0.013 C
HETATM   47  C24 UNL     1      18.683  19.687   7.432  1.00  0.00     0.023 C
HETATM   48  C25 UNL     1      18.311  21.933   8.275  1.00  0.00     0.023 C
BRANCH  46  49
HETATM   49  C26 UNL     1      18.570  20.110   9.795  1.00  0.00     0.240 C
HETATM   50  O8  UNL     1      19.104  19.026   9.962  1.00  0.00    -0.306 OA
ENDBRANCH  46  49
ENDBRANCH   7  46
TORSDOF 18
ENDMDL