MODEL 2
REMARK VINA RESULT: -9.667653187      1.111      1.442
REMARK  14 active torsions:
REMARK  status: ('A' for Active; 'I' for Inactive)
REMARK    1  A    between atoms: C6_6  and  N1_7
REMARK    2  A    between atoms: C7_10  and  C8_11
REMARK       I    between atoms: C8_11  and  N2_13
REMARK    3  A    between atoms: N2_13  and  C9_15
REMARK    4  A    between atoms: C9_15  and  C10_16
REMARK    5  A    between atoms: C9_15  and  C14_26
REMARK    6  A    between atoms: C10_16  and  C11_17
REMARK    7  A    between atoms: C11_17  and  C12_18
REMARK    8  A    between atoms: C12_18  and  N3_19
REMARK       I    between atoms: N3_19  and  C13_21
REMARK       I    between atoms: C14_26  and  N6_28
REMARK    9  A    between atoms: N6_28  and  C15_30
REMARK   10  A    between atoms: N7_36  and  C21_37
REMARK   11  A    between atoms: C22_38  and  O5_39
REMARK   12  A    between atoms: C22_38  and  N8_41
REMARK       I    between atoms: N8_41  and  C23_43
REMARK   13  A    between atoms: C23_43  and  C24_45
REMARK   14  A    between atoms: C24_45  and  C25_46
ROOT
HETATM    1  C1  UNL     1      12.063  23.512   2.747  1.00  0.00     0.050 C
HETATM    2  C2  UNL     1      11.365  24.350   3.743  1.00  0.00    -0.035 A
HETATM    3  C3  UNL     1      10.158  24.929   3.297  1.00  0.00    -0.024 A
HETATM    4  C4  UNL     1       9.455  25.697   4.202  1.00  0.00     0.043 A
HETATM    5  C5  UNL     1       9.932  25.873   5.470  1.00  0.00     0.067 A
HETATM    6  C6  UNL     1      11.131  25.307   5.931  1.00  0.00     0.121 A
HETATM    7  C7  UNL     1      11.839  24.540   5.039  1.00  0.00     0.071 A
HETATM    8  N7  UNL     1       8.218  26.309   3.784  1.00  0.00    -0.352 N
HETATM    9  C31 UNL     1       8.055  26.449   2.319  1.00  0.00     0.129 C
HETATM   10  C32 UNL     1       8.236  25.009   1.790  1.00  0.00     0.025 C
HETATM   11  C33 UNL     1       9.711  24.703   1.895  1.00  0.00     0.043 C
ENDROOT
BRANCH   7  12
HETATM   12  C8  UNL     1      13.104  23.952   5.437  1.00  0.00     0.255 C
HETATM   13  O3  UNL     1      14.178  24.489   5.063  1.00  0.00    -0.268 OA
HETATM   14  N2  UNL     1      13.192  22.782   6.230  1.00  0.00    -0.344 N
ATOM     15  H2  UNL     1      12.341  22.323   6.552  1.00  0.00     0.163 HD
BRANCH  14  16
HETATM   16  C9  UNL     1      14.535  22.211   6.603  1.00  0.00     0.177 C
BRANCH  16  17
HETATM   17  C10 UNL     1      14.404  21.852   8.036  1.00  0.00     0.040 C
BRANCH  17  18
HETATM   18  C11 UNL     1      15.478  22.150   8.995  1.00  0.00     0.047 C
BRANCH  18  19
HETATM   19  C12 UNL     1      16.656  22.921   8.559  1.00  0.00     0.063 C
BRANCH  19  20
HETATM   20  N3  UNL     1      17.785  22.298   8.019  1.00  0.00    -0.344 N
HETATM   21  C13 UNL     1      18.050  20.924   8.323  1.00  0.00     0.185 C
HETATM   22  N4  UNL     1      18.448  20.506   9.473  1.00  0.00    -0.374 N
HETATM   23  N5  UNL     1      17.866  19.961   7.296  1.00  0.00    -0.064 NA
ATOM     24  H42 UNL     1      18.580  21.198  10.211  1.00  0.00     0.158 HD
ATOM     25  H41 UNL     1      18.637  19.527   9.690  1.00  0.00     0.158 HD
ATOM     26  H3  UNL     1      18.416  22.819   7.410  1.00  0.00     0.167 HD
ENDBRANCH  19  20
ENDBRANCH  18  19
ENDBRANCH  17  18
ENDBRANCH  16  17
BRANCH  16  27
HETATM   27  C14 UNL     1      14.751  21.047   5.690  1.00  0.00     0.240 C
HETATM   28  O4  UNL     1      13.792  20.192   5.646  1.00  0.00    -0.271 OA
HETATM   29  N6  UNL     1      15.850  20.763   4.882  1.00  0.00    -0.355 N
ATOM     30  H6  UNL     1      16.641  21.408   4.878  1.00  0.00     0.162 HD
BRANCH  29  31
HETATM   31  C15 UNL     1      15.906  19.563   4.035  1.00  0.00     0.084 C
HETATM   32  C16 UNL     1      17.330  19.078   3.851  1.00  0.00     0.025 C
HETATM   33  C17 UNL     1      17.245  17.863   2.946  1.00  0.00     0.002 C
HETATM   34  C18 UNL     1      16.738  18.317   1.598  1.00  0.00     0.000 C
HETATM   35  C19 UNL     1      15.336  18.825   1.689  1.00  0.00     0.002 C
HETATM   36  C20 UNL     1      15.194  19.850   2.762  1.00  0.00     0.025 C
ENDBRANCH  29  31
ENDBRANCH  16  27
ENDBRANCH  14  16
ENDBRANCH   7  12
BRANCH   6  37
HETATM   37  N1  UNL     1      11.517  25.598   7.265  1.00  0.00    -0.115 N
HETATM   38  O1  UNL     1      10.600  25.940   8.079  1.00  0.00    -0.532 OA
HETATM   39  O2  UNL     1      12.775  25.550   7.773  1.00  0.00    -0.532 OA
ENDBRANCH   6  37
BRANCH   8  40
HETATM   40  C21 UNL     1       7.258  26.702   4.715  1.00  0.00     0.147 C
HETATM   41  C22 UNL     1       5.956  26.129   4.763  1.00  0.00     0.158 C
BRANCH  41  42
HETATM   42  O5  UNL     1       5.296  26.625   5.854  1.00  0.00    -0.345 OA
ATOM     43  H5  UNL     1       4.461  26.180   5.935  1.00  0.00     0.219 HD
ENDBRANCH  41  42
BRANCH  41  44
HETATM   44  N8  UNL     1       5.158  25.246   4.064  1.00  0.00    -0.307 N
HETATM   45  C23 UNL     1       4.544  25.239   2.810  1.00  0.00     0.224 C
HETATM   46  O6  UNL     1       4.598  26.110   1.935  1.00  0.00    -0.273 OA
ATOM     47  H8  UNL     1       4.973  24.392   4.591  1.00  0.00     0.171 HD
BRANCH  45  48
HETATM   48  C24 UNL     1       3.705  23.993   2.492  1.00  0.00     0.108 C
BRANCH  48  49
HETATM   49  C25 UNL     1       3.005  23.504   3.708  1.00  0.00    -0.006 C
HETATM   50  C26 UNL     1       3.536  22.162   4.174  1.00  0.00     0.005 C
HETATM   51  C27 UNL     1       2.956  20.975   3.507  1.00  0.00     0.000 C
HETATM   52  C28 UNL     1       2.160  21.195   2.274  1.00  0.00     0.000 C
HETATM   53  C29 UNL     1       1.284  22.412   2.270  1.00  0.00     0.000 C
HETATM   54  C30 UNL     1       1.519  23.279   3.489  1.00  0.00     0.005 C
ENDBRANCH  48  49
ENDBRANCH  45  48
ENDBRANCH  41  44
ENDBRANCH   8  40
TORSDOF 14
ENDMDL