MODEL 1
REMARK VINA RESULT: -9.187713722      0.000      0.000
REMARK  14 active torsions:
REMARK  status: ('A' for Active; 'I' for Inactive)
REMARK       I    between atoms: C1_4  and  N3_6
REMARK    1  A    between atoms: N3_6  and  C2_8
REMARK    2  A    between atoms: C2_8  and  C3_9
REMARK    3  A    between atoms: C3_9  and  C4_10
REMARK    4  A    between atoms: C4_10  and  C5_11
REMARK    5  A    between atoms: C5_11  and  N4_12
REMARK    6  A    between atoms: C5_11  and  C32_48
REMARK       I    between atoms: N4_12  and  C6_14
REMARK    7  A    between atoms: C6_14  and  C7_16
REMARK    8  A    between atoms: C7_16  and  C8_17
REMARK    9  A    between atoms: C7_16  and  N6_38
REMARK   10  A    between atoms: C8_17  and  C9_18
REMARK   11  A    between atoms: C9_18  and  C10_19
REMARK   12  A    between atoms: C10_19  and  N5_20
REMARK       I    between atoms: N6_38  and  C26_40
REMARK   13  A    between atoms: C26_40  and  C27_42
REMARK   14  A    between atoms: C27_42  and  C28_43
ROOT
HETATM    1  C7  UNL     1      15.539  20.357   5.464  1.00  0.00     0.176 C
ENDROOT
BRANCH   1   2
HETATM    2  C6  UNL     1      15.916  19.069   4.865  1.00  0.00     0.241 C
HETATM    3  N4  UNL     1      17.245  18.715   4.608  1.00  0.00    -0.345 N
ATOM      4  H4  UNL     1      18.007  19.354   4.835  1.00  0.00     0.163 HD
HETATM    5  O1  UNL     1      14.964  18.262   4.580  1.00  0.00    -0.271 OA
BRANCH   3   6
HETATM    6  C5  UNL     1      17.528  17.367   3.990  1.00  0.00     0.185 C
BRANCH   6   7
HETATM    7  C4  UNL     1      18.724  16.874   4.705  1.00  0.00     0.038 C
BRANCH   7   8
HETATM    8  C3  UNL     1      18.731  15.704   5.566  1.00  0.00     0.022 C
BRANCH   8   9
HETATM    9  C2  UNL     1      19.522  14.501   5.198  1.00  0.00     0.122 C
BRANCH   9  10
HETATM   10  N3  UNL     1      20.471  14.857   4.125  1.00  0.00    -0.365 N
HETATM   11  C1  UNL     1      21.849  14.855   4.458  1.00  0.00     0.181 C
HETATM   12  N1  UNL     1      22.413  15.812   5.106  1.00  0.00    -0.374 N
HETATM   13  N2  UNL     1      22.663  13.752   4.069  1.00  0.00    -0.064 NA
ATOM     14  H12 UNL     1      23.405  15.811   5.347  1.00  0.00     0.158 HD
ATOM     15  H11 UNL     1      21.831  16.602   5.385  1.00  0.00     0.158 HD
ATOM     16  H3  UNL     1      20.150  15.093   3.186  1.00  0.00     0.162 HD
ENDBRANCH   9  10
ENDBRANCH   8   9
ENDBRANCH   7   8
ENDBRANCH   6   7
BRANCH   6  17
HETATM   17  C32 UNL     1      17.766  17.612   2.558  1.00  0.00     0.196 C
HETATM   18  O5  UNL     1      18.248  18.753   2.267  1.00  0.00    -0.646 OA
HETATM   19  O6  UNL     1      17.512  16.740   1.532  1.00  0.00    -0.646 OA
ENDBRANCH   6  17
ENDBRANCH   3   6
ENDBRANCH   1   2
BRANCH   1  20
HETATM   20  C8  UNL     1      14.074  20.702   5.094  1.00  0.00     0.036 C
BRANCH  20  21
HETATM   21  C9  UNL     1      14.054  21.678   3.977  1.00  0.00     0.033 C
BRANCH  21  22
HETATM   22  C10 UNL     1      12.793  22.411   3.776  1.00  0.00     0.272 C
BRANCH  22  23
HETATM   23  N5  UNL     1      12.407  23.297   4.809  1.00  0.00     0.092 N
HETATM   24  C11 UNL     1      10.925  23.583   4.669  1.00  0.00     0.298 C
HETATM   25  C12 UNL     1      10.560  23.807   3.255  1.00  0.00     0.198 C
HETATM   26  O2  UNL     1       9.335  24.356   3.029  1.00  0.00    -0.389 OA
HETATM   27  C13 UNL     1       8.701  24.984   4.056  1.00  0.00     0.167 C
HETATM   28  C14 UNL     1       8.947  26.474   4.108  1.00  0.00     0.026 C
HETATM   29  C15 UNL     1       7.703  27.273   4.302  1.00  0.00     0.002 C
HETATM   30  C16 UNL     1       6.993  26.966   5.624  1.00  0.00     0.000 C
HETATM   31  C17 UNL     1       7.525  27.795   6.739  1.00  0.00     0.000 C
HETATM   32  C18 UNL     1       7.490  27.195   8.094  1.00  0.00     0.000 C
HETATM   33  C19 UNL     1       7.743  25.740   8.200  1.00  0.00     0.000 C
HETATM   34  C20 UNL     1       8.602  25.307   9.348  1.00  0.00     0.000 C
HETATM   35  C21 UNL     1       9.999  25.816   9.342  1.00  0.00     0.002 C
HETATM   36  C22 UNL     1      10.538  26.249   8.025  1.00  0.00     0.026 C
HETATM   37  C23 UNL     1      12.016  25.885   7.826  1.00  0.00     0.167 C
HETATM   38  O3  UNL     1      12.336  26.050   6.470  1.00  0.00    -0.389 OA
HETATM   39  C24 UNL     1      13.362  25.207   6.067  1.00  0.00     0.198 C
HETATM   40  C25 UNL     1      13.035  24.620   4.736  1.00  0.00     0.298 C
ENDBRANCH  22  23
ENDBRANCH  21  22
ENDBRANCH  20  21
ENDBRANCH   1  20
BRANCH   1  41
HETATM   41  N6  UNL     1      15.617  20.340   6.896  1.00  0.00    -0.348 N
HETATM   42  C26 UNL     1      15.827  21.540   7.626  1.00  0.00     0.222 C
HETATM   43  O4  UNL     1      15.947  22.625   7.008  1.00  0.00    -0.273 OA
ATOM     44  H6  UNL     1      15.520  19.456   7.396  1.00  0.00     0.163 HD
BRANCH  42  45
HETATM   45  C27 UNL     1      15.912  21.553   9.102  1.00  0.00     0.141 C
BRANCH  45  46
HETATM   46  C28 UNL     1      16.744  20.371   9.582  1.00  0.00    -0.043 A
HETATM   47  C29 UNL     1      16.191  19.301  10.177  1.00  0.00     0.015 A
HETATM   48  C30 UNL     1      17.031  18.296  10.567  1.00  0.00     0.050 A
HETATM   49  S1  UNL     1      18.563  18.869  10.097  1.00  0.00    -0.113 SA
HETATM   50  C31 UNL     1      18.104  20.362   9.418  1.00  0.00     0.057 A
ENDBRANCH  45  46
ENDBRANCH  42  45
ENDBRANCH   1  41
TORSDOF 14
ENDMDL