MODEL 3
REMARK VINA RESULT: -5.463490535      2.046      5.241
REMARK  20 active torsions:
REMARK  status: ('A' for Active; 'I' for Inactive)
REMARK    1  A    between atoms: C3_3  and  C4_4
REMARK    2  A    between atoms: C13_13  and  O1_14
REMARK    3  A    between atoms: C23_25  and  O2_26
REMARK    4  A    between atoms: C23_25  and  C24_28
REMARK    5  A    between atoms: C24_28  and  C25_29
REMARK    6  A    between atoms: C25_29  and  C26_30
REMARK       I    between atoms: C26_30  and  N1_32
REMARK    7  A    between atoms: N1_32  and  C27_34
REMARK    8  A    between atoms: C27_34  and  C28_35
REMARK    9  A    between atoms: C28_35  and  N2_36
REMARK   10  A    between atoms: N2_36  and  C30_38
REMARK   11  A    between atoms: C30_38  and  C31_39
REMARK   12  A    between atoms: C31_39  and  O4_40
REMARK   13  A    between atoms: O4_40  and  C32_41
REMARK   14  A    between atoms: C32_41  and  C33_42
REMARK   15  A    between atoms: C33_42  and  O5_43
REMARK   16  A    between atoms: O5_43  and  C34_44
REMARK   17  A    between atoms: C34_44  and  C35_45
REMARK   18  A    between atoms: C35_45  and  N3_46
REMARK   19  A    between atoms: C36_50  and  O6_51
REMARK   20  A    between atoms: C37_53  and  O7_54
ROOT
HETATM    1  C1  UNL     1      23.282  17.267  10.914  1.00  0.00     0.112 C
HETATM    2  C2  UNL     1      22.022  16.677  10.474  1.00  0.00    -0.110 C
HETATM    3  C3  UNL     1      20.990  16.172  10.097  1.00  0.00    -0.093 C
ENDROOT
BRANCH   3   4
HETATM    4  C4  UNL     1      19.719  15.514   9.611  1.00  0.00     0.063 C
HETATM    5  C5  UNL     1      20.117  14.430   8.728  1.00  0.00     0.012 C
HETATM    6  C6  UNL     1      20.123  13.038   9.246  1.00  0.00     0.007 C
HETATM    7  C22 UNL     1      19.344  14.364   7.394  1.00  0.00     0.047 C
HETATM    8  C7  UNL     1      19.401  12.819  10.545  1.00  0.00     0.007 C
HETATM    9  C8  UNL     1      19.689  13.970  11.446  1.00  0.00     0.004 C
HETATM   10  C9  UNL     1      19.505  13.686  12.915  1.00  0.00    -0.035 C
HETATM   11  C20 UNL     1      18.986  15.162  10.893  1.00  0.00    -0.018 C
HETATM   12  C10 UNL     1      18.216  13.055  13.271  1.00  0.00     0.016 C
HETATM   13  C11 UNL     1      20.600  12.674  13.273  1.00  0.00     0.012 C
HETATM   14  C17 UNL     1      19.844  14.953  13.626  1.00  0.00     0.004 C
HETATM   15  C12 UNL     1      20.749  12.496  14.753  1.00  0.00     0.033 C
HETATM   16  C13 UNL     1      20.901  13.747  15.535  1.00  0.00     0.126 C
HETATM   17  C14 UNL     1      20.051  14.894  15.086  1.00  0.00    -0.017 C
HETATM   18  C15 UNL     1      18.760  15.019  15.883  1.00  0.00     0.018 C
HETATM   19  C16 UNL     1      20.850  16.162  15.452  1.00  0.00     0.018 C
HETATM   20  C18 UNL     1      18.813  15.982  13.272  1.00  0.00     0.007 C
HETATM   21  C19 UNL     1      18.921  16.345  11.821  1.00  0.00     0.012 C
HETATM   22  C21 UNL     1      17.539  14.898  10.533  1.00  0.00     0.017 C
HETATM   23  C23 UNL     1      19.288  15.569   6.606  1.00  0.00     0.087 C
HETATM   24  C36 UNL     1      19.779  16.731   7.511  1.00  0.00     0.182 C
HETATM   25  C37 UNL     1      19.031  16.626   8.850  1.00  0.00     0.171 C
BRANCH  16  26
HETATM   26  O1  UNL     1      22.272  14.091  15.543  1.00  0.00    -0.395 OA
ATOM     27  H1  UNL     1      22.396  14.781  16.184  1.00  0.00     0.210 HD
ENDBRANCH  16  26
BRANCH  23  28
HETATM   28  O2  UNL     1      17.867  15.861   6.461  1.00  0.00    -0.387 OA
ATOM     29  H2  UNL     1      17.796  16.338   5.643  1.00  0.00     0.210 HD
ENDBRANCH  23  28
BRANCH  23  30
HETATM   30  C24 UNL     1      19.815  15.720   5.246  1.00  0.00     0.050 C
BRANCH  30  31
HETATM   31  C25 UNL     1      18.961  15.930   4.086  1.00  0.00     0.106 C
BRANCH  31  32
HETATM   32  C26 UNL     1      18.497  17.266   3.738  1.00  0.00     0.217 C
HETATM   33  O3  UNL     1      19.003  18.356   4.155  1.00  0.00    -0.274 OA
HETATM   34  N1  UNL     1      17.378  17.463   2.852  1.00  0.00    -0.359 N
ATOM     35  H1  UNL     1      16.921  16.630   2.481  1.00  0.00     0.162 HD
BRANCH  34  36
HETATM   36  C27 UNL     1      16.858  18.722   2.454  1.00  0.00     0.152 C
BRANCH  36  37
HETATM   37  C28 UNL     1      15.448  18.937   2.837  1.00  0.00     0.291 C
BRANCH  37  38
HETATM   38  N2  UNL     1      15.156  20.041   3.694  1.00  0.00     0.087 N
HETATM   39  C29 UNL     1      14.577  21.194   3.080  1.00  0.00     0.310 C
BRANCH  38  40
HETATM   40  C30 UNL     1      16.213  20.352   4.604  1.00  0.00     0.298 C
BRANCH  40  41
HETATM   41  C31 UNL     1      16.002  19.893   5.996  1.00  0.00     0.198 C
BRANCH  41  42
HETATM   42  O4  UNL     1      16.623  20.572   6.969  1.00  0.00    -0.387 OA
BRANCH  42  43
HETATM   43  C32 UNL     1      16.214  21.728   7.485  1.00  0.00     0.193 C
BRANCH  43  44
HETATM   44  C33 UNL     1      14.738  21.753   7.862  1.00  0.00     0.193 C
BRANCH  44  45
HETATM   45  O5  UNL     1      13.947  22.485   7.052  1.00  0.00    -0.387 OA
BRANCH  45  46
HETATM   46  C34 UNL     1      14.457  23.354   6.156  1.00  0.00     0.195 C
BRANCH  46  47
HETATM   47  C35 UNL     1      13.286  24.148   5.557  1.00  0.00     0.255 C
BRANCH  47  48
HETATM   48  N3  UNL     1      13.870  25.172   4.720  1.00  0.00    -0.077 N
ATOM     49  H33 UNL     1      14.393  25.872   5.245  1.00  0.00     0.274 HD
ATOM     50  H32 UNL     1      14.646  24.834   4.152  1.00  0.00     0.274 HD
ATOM     51  H31 UNL     1      13.108  25.566   4.170  1.00  0.00     0.274 HD
ENDBRANCH  47  48
ENDBRANCH  46  47
ENDBRANCH  45  46
ENDBRANCH  44  45
ENDBRANCH  43  44
ENDBRANCH  42  43
ENDBRANCH  41  42
ENDBRANCH  40  41
ENDBRANCH  38  40
ENDBRANCH  37  38
ENDBRANCH  36  37
ENDBRANCH  34  36
ENDBRANCH  31  32
ENDBRANCH  30  31
ENDBRANCH  23  30
BRANCH  24  52
HETATM   52  O6  UNL     1      19.380  17.933   6.944  1.00  0.00    -0.390 OA
ATOM     53  H6  UNL     1      19.689  18.645   7.493  1.00  0.00     0.210 HD
ENDBRANCH  24  52
BRANCH  25  54
HETATM   54  O7  UNL     1      19.174  17.862   9.467  1.00  0.00    -0.391 OA
ATOM     55  H7  UNL     1      18.523  18.490   9.180  1.00  0.00     0.210 HD
ENDBRANCH  25  54
ENDBRANCH   3   4
TORSDOF 20
ENDMDL