MODEL 3
REMARK VINA RESULT: -5.156356872      3.575      8.403
REMARK  15 active torsions:
REMARK  status: ('A' for Active; 'I' for Inactive)
REMARK    1  A    between atoms: C2_2  and  C3_3
REMARK    2  A    between atoms: C3_3  and  N1_4
REMARK    3  A    between atoms: N1_4  and  C4_7
REMARK    4  A    between atoms: C4_7  and  C5_8
REMARK    5  A    between atoms: C5_8  and  C6_9
REMARK    6  A    between atoms: C6_9  and  C7_10
REMARK    7  A    between atoms: C18_24  and  C19_25
REMARK    8  A    between atoms: C22_33  and  O2_34
REMARK    9  A    between atoms: C23_36  and  C24_37
REMARK   10  A    between atoms: C24_37  and  C26_39
REMARK   11  A    between atoms: C28_43  and  O3_44
REMARK   12  A    between atoms: C29_46  and  C30_47
REMARK   13  A    between atoms: C30_47  and  C31_48
REMARK   14  A    between atoms: C31_48  and  C32_49
REMARK   15  A    between atoms: C33_54  and  O6_55
ROOT
HETATM    1  C7  UNL     1      18.798  17.564   4.240  1.00  0.00     0.060 C
HETATM    2  C8  UNL     1      18.573  18.320   5.497  1.00  0.00     0.013 C
HETATM    3  C9  UNL     1      17.717  19.525   5.153  1.00  0.00     0.001 C
HETATM    4  C10 UNL     1      16.886  19.973   6.339  1.00  0.00     0.000 C
HETATM    5  C11 UNL     1      16.099  21.185   5.885  1.00  0.00     0.002 C
HETATM    6  C12 UNL     1      15.690  22.058   7.072  1.00  0.00     0.020 C
HETATM    7  C13 UNL     1      15.108  21.124   8.104  1.00  0.00     0.122 C
HETATM    8  N2  UNL     1      14.887  21.765   9.375  1.00  0.00    -0.361 N
ATOM      9  H2  UNL     1      14.128  22.441   9.461  1.00  0.00     0.162 HD
HETATM   10  C14 UNL     1      15.687  21.491  10.506  1.00  0.00     0.217 C
HETATM   11  O1  UNL     1      15.281  21.697  11.694  1.00  0.00    -0.274 OA
HETATM   12  C15 UNL     1      17.077  20.938  10.411  1.00  0.00     0.103 C
HETATM   13  C16 UNL     1      17.181  19.639  11.158  1.00  0.00     0.012 C
HETATM   14  C17 UNL     1      17.793  18.516  10.311  1.00  0.00     0.032 C
HETATM   15  C18 UNL     1      18.963  17.993  11.070  1.00  0.00     0.140 C
HETATM   16  N4  UNL     1      19.877  17.176  10.355  1.00  0.00    -0.362 N
ATOM     17  H4  UNL     1      20.461  17.696   9.700  1.00  0.00     0.162 HD
HETATM   18  C22 UNL     1      20.138  15.808  10.367  1.00  0.00     0.135 C
HETATM   19  C23 UNL     1      19.194  14.718   9.985  1.00  0.00     0.161 C
HETATM   20  N5  UNL     1      18.784  14.735   8.599  1.00  0.00    -0.360 N
ATOM     21  H5  UNL     1      17.771  14.738   8.483  1.00  0.00     0.162 HD
HETATM   22  C28 UNL     1      19.465  14.746   7.403  1.00  0.00     0.135 C
HETATM   23  C29 UNL     1      20.301  15.778   6.727  1.00  0.00     0.158 C
HETATM   24  N6  UNL     1      20.191  15.630   5.273  1.00  0.00    -0.362 N
ATOM     25  H6  UNL     1      20.466  14.707   4.935  1.00  0.00     0.162 HD
HETATM   26  C33 UNL     1      19.795  16.477   4.282  1.00  0.00     0.116 C
ENDROOT
BRANCH   1  27
HETATM   27  C6  UNL     1      17.489  16.954   3.726  1.00  0.00     0.014 C
BRANCH  27  28
HETATM   28  C5  UNL     1      17.285  17.205   2.254  1.00  0.00     0.028 C
BRANCH  28  29
HETATM   29  C4  UNL     1      17.185  18.688   1.959  1.00  0.00     0.232 C
BRANCH  29  30
HETATM   30  N1  UNL     1      16.265  18.994   0.898  1.00  0.00    -0.072 N
ATOM     31  H12 UNL     1      16.320  18.345   0.113  1.00  0.00     0.277 HD
ATOM     32  H11 UNL     1      16.509  19.837   0.379  1.00  0.00     0.277 HD
BRANCH  30  33
HETATM   33  C3  UNL     1      14.938  19.052   1.512  1.00  0.00     0.259 C
BRANCH  33  34
HETATM   34  C2  UNL     1      14.950  19.847   2.755  1.00  0.00    -0.010 C
HETATM   35  C1  UNL     1      14.572  21.125   2.704  1.00  0.00     0.008 C
ENDBRANCH  33  34
ENDBRANCH  30  33
ENDBRANCH  29  30
ENDBRANCH  28  29
ENDBRANCH  27  28
ENDBRANCH   1  27
BRANCH  26  36
HETATM   36  O6  UNL     1      20.388  16.331   3.132  1.00  0.00    -0.349 OA
ATOM     37  H6  UNL     1      21.298  16.600   3.174  1.00  0.00     0.219 HD
ENDBRANCH  26  36
BRANCH  23  38
HETATM   38  C30 UNL     1      21.801  15.517   6.966  1.00  0.00     0.044 C
BRANCH  38  39
HETATM   39  C31 UNL     1      22.340  14.717   5.800  1.00  0.00     0.116 C
BRANCH  39  40
HETATM   40  C32 UNL     1      23.368  15.452   5.052  1.00  0.00     0.172 C
HETATM   41  O4  UNL     1      23.202  15.735   3.836  1.00  0.00    -0.648 OA
HETATM   42  O5  UNL     1      24.535  15.846   5.671  1.00  0.00    -0.648 OA
ENDBRANCH  39  40
ENDBRANCH  38  39
ENDBRANCH  23  38
BRANCH  22  43
HETATM   43  O3  UNL     1      19.389  13.661   6.689  1.00  0.00    -0.348 OA
ATOM     44  H3  UNL     1      19.417  13.777   5.747  1.00  0.00     0.219 HD
ENDBRANCH  22  43
BRANCH  19  45
HETATM   45  C24 UNL     1      19.639  13.370  10.456  1.00  0.00     0.012 C
HETATM   46  C25 UNL     1      19.212  12.926  11.792  1.00  0.00     0.012 C
BRANCH  45  47
HETATM   47  C26 UNL     1      19.453  12.250   9.468  1.00  0.00     0.002 C
HETATM   48  C27 UNL     1      20.823  11.674   9.184  1.00  0.00     0.005 C
ENDBRANCH  45  47
ENDBRANCH  19  45
BRANCH  18  49
HETATM   49  O2  UNL     1      21.337  15.477  10.758  1.00  0.00    -0.348 OA
ATOM     50  H2  UNL     1      21.686  15.998  11.470  1.00  0.00     0.219 HD
ENDBRANCH  18  49
BRANCH  15  51
HETATM   51  C19 UNL     1      18.516  17.461  12.390  1.00  0.00     0.073 A
HETATM   52  N3  UNL     1      17.573  16.570  12.645  1.00  0.00    -0.361 N
HETATM   53  C20 UNL     1      17.311  16.233  13.862  1.00  0.00     0.096 A
ATOM     54  H3  UNL     1      17.052  16.147  11.878  1.00  0.00     0.165 HD
HETATM   55  C21 UNL     1      18.039  16.829  14.863  1.00  0.00     0.068 A
HETATM   56  S1  UNL     1      19.072  17.854  13.955  1.00  0.00    -0.085 SA
ENDBRANCH  15  51
TORSDOF 15
ENDMDL