MODEL 3
REMARK VINA RESULT: -8.754518670      2.699     10.781
REMARK  20 active torsions:
REMARK  status: ('A' for Active; 'I' for Inactive)
REMARK    1  A    between atoms: C2_2  and  O1_5
REMARK    2  A    between atoms: O1_5  and  C5_6
REMARK       I    between atoms: C5_6  and  N1_8
REMARK    3  A    between atoms: N1_8  and  C6_10
REMARK    4  A    between atoms: C6_10  and  C7_11
REMARK    5  A    between atoms: C6_10  and  C32_51
REMARK    6  A    between atoms: C7_11  and  N2_12
REMARK       I    between atoms: N2_12  and  C8_14
REMARK    7  A    between atoms: C8_14  and  C9_16
REMARK    8  A    between atoms: C9_16  and  C10_17
REMARK    9  A    between atoms: C10_17  and  C11_18
REMARK       I    between atoms: C11_18  and  N3_20
REMARK   10  A    between atoms: N3_20  and  C12_22
REMARK   11  A    between atoms: C12_22  and  C13_23
REMARK   12  A    between atoms: C12_22  and  C28_47
REMARK       I    between atoms: C13_23  and  N4_25
REMARK   13  A    between atoms: N4_25  and  C14_27
REMARK   14  A    between atoms: C14_27  and  C15_28
REMARK   15  A    between atoms: C14_27  and  C22_37
REMARK   16  A    between atoms: C15_28  and  O7_30
REMARK   17  A    between atoms: O7_30  and  C16_31
REMARK   18  A    between atoms: C25_40  and  N5_41
REMARK   19  A    between atoms: C32_51  and  N6_52
REMARK   20  A    between atoms: C32_51  and  O8_55
ROOT
HETATM    1  C12 UNL     1      13.765  23.383   5.796  1.00  0.00     0.184 C
ENDROOT
BRANCH   1   2
HETATM    2  N3  UNL     1      13.866  22.619   7.024  1.00  0.00    -0.347 N
HETATM    3  C11 UNL     1      15.051  22.553   7.842  1.00  0.00     0.218 C
HETATM    4  O4  UNL     1      16.030  23.203   7.458  1.00  0.00    -0.274 OA
ATOM      5  H3  UNL     1      13.045  22.096   7.329  1.00  0.00     0.163 HD
BRANCH   3   6
HETATM    6  C10 UNL     1      15.040  21.733   9.060  1.00  0.00     0.112 C
BRANCH   6   7
HETATM    7  C9  UNL     1      16.309  21.357   9.669  1.00  0.00     0.112 C
BRANCH   7   8
HETATM    8  C8  UNL     1      16.660  19.877   9.552  1.00  0.00     0.221 C
HETATM    9  N2  UNL     1      17.608  19.443   8.662  1.00  0.00    -0.338 N
ATOM     10  H2  UNL     1      17.960  20.265   8.171  1.00  0.00     0.167 HD
HETATM   11  O3  UNL     1      16.007  19.170  10.330  1.00  0.00    -0.273 OA
BRANCH   9  12
HETATM   12  C7  UNL     1      18.278  18.352   8.163  1.00  0.00     0.097 C
BRANCH  12  13
HETATM   13  C6  UNL     1      18.643  18.108   6.768  1.00  0.00     0.199 C
BRANCH  13  14
HETATM   14  N1  UNL     1      17.424  18.526   5.932  1.00  0.00    -0.320 N
HETATM   15  C5  UNL     1      17.614  19.031   4.647  1.00  0.00     0.362 C
HETATM   16  O2  UNL     1      18.807  19.106   4.213  1.00  0.00    -0.238 OA
ATOM     17  H1  UNL     1      16.482  18.435   6.314  1.00  0.00     0.166 HD
BRANCH  15  18
HETATM   18  O1  UNL     1      16.624  19.455   3.802  1.00  0.00    -0.294 OA
BRANCH  18  19
HETATM   19  C2  UNL     1      15.847  18.587   3.000  1.00  0.00     0.061 C
HETATM   20  C1  UNL     1      14.984  19.373   2.029  1.00  0.00     0.046 C
HETATM   21  C3  UNL     1      14.897  17.746   3.835  1.00  0.00     0.046 C
HETATM   22  C4  UNL     1      16.755  17.667   2.230  1.00  0.00     0.046 C
ENDBRANCH  18  19
ENDBRANCH  15  18
ENDBRANCH  13  14
BRANCH  13  23
HETATM   23  C32 UNL     1      18.906  16.785   6.224  1.00  0.00     0.137 C
BRANCH  23  24
HETATM   24  N6  UNL     1      19.812  16.423   5.260  1.00  0.00    -0.382 N
ATOM     25  H62 UNL     1      19.853  17.020   4.434  1.00  0.00     0.158 HD
ATOM     26  H61 UNL     1      20.453  15.629   5.256  1.00  0.00     0.158 HD
ENDBRANCH  23  24
BRANCH  23  27
HETATM   27  O8  UNL     1      18.183  15.819   6.727  1.00  0.00    -0.348 OA
ATOM     28  H8  UNL     1      18.477  14.940   6.518  1.00  0.00     0.219 HD
ENDBRANCH  23  27
ENDBRANCH  13  23
ENDBRANCH  12  13
ENDBRANCH   9  12
ENDBRANCH   7   8
ENDBRANCH   6   7
ENDBRANCH   3   6
ENDBRANCH   1   2
BRANCH   1  29
HETATM   29  C13 UNL     1      12.680  24.355   5.866  1.00  0.00     0.241 C
HETATM   30  O5  UNL     1      13.028  25.584   5.807  1.00  0.00    -0.271 OA
HETATM   31  N4  UNL     1      11.340  24.056   5.992  1.00  0.00    -0.345 N
ATOM     32  H4  UNL     1      11.073  23.073   6.051  1.00  0.00     0.163 HD
BRANCH  31  33
HETATM   33  C14 UNL     1      10.271  25.064   6.048  1.00  0.00     0.188 C
BRANCH  33  34
HETATM   34  C15 UNL     1       9.816  25.108   7.451  1.00  0.00     0.282 C
HETATM   35  O6  UNL     1       8.926  24.298   7.811  1.00  0.00    -0.263 OA
BRANCH  34  36
HETATM   36  O7  UNL     1      10.270  25.955   8.440  1.00  0.00    -0.314 OA
BRANCH  36  37
HETATM   37  C16 UNL     1       9.454  26.823   9.175  1.00  0.00     0.132 C
HETATM   38  C17 UNL     1      10.169  27.902   9.902  1.00  0.00     0.032 C
HETATM   39  C18 UNL     1       9.183  28.638  10.791  1.00  0.00     0.002 C
HETATM   40  C19 UNL     1       7.828  28.795  10.190  1.00  0.00     0.000 C
HETATM   41  C20 UNL     1       7.984  28.787   8.676  1.00  0.00     0.002 C
HETATM   42  C21 UNL     1       8.392  27.380   8.289  1.00  0.00     0.032 C
ENDBRANCH  36  37
ENDBRANCH  34  36
ENDBRANCH  33  34
BRANCH  33  43
HETATM   43  C22 UNL     1       9.224  24.817   5.032  1.00  0.00     0.018 C
HETATM   44  C23 UNL     1       8.323  25.999   4.790  1.00  0.00     0.009 C
HETATM   45  C24 UNL     1       7.516  25.914   3.547  1.00  0.00     0.033 C
HETATM   46  C25 UNL     1       8.174  25.307   2.359  1.00  0.00     0.183 C
HETATM   47  C26 UNL     1       8.709  23.937   2.753  1.00  0.00     0.033 C
HETATM   48  C27 UNL     1       9.799  24.228   3.795  1.00  0.00     0.009 C
BRANCH  46  49
HETATM   49  N5  UNL     1       9.222  26.118   1.774  1.00  0.00    -0.075 N
ATOM     50  H53 UNL     1       9.035  26.282   0.785  1.00  0.00     0.274 HD
ATOM     51  H52 UNL     1       9.168  27.074   2.123  1.00  0.00     0.274 HD
ATOM     52  H51 UNL     1      10.164  25.746   1.901  1.00  0.00     0.274 HD
ENDBRANCH  46  49
ENDBRANCH  33  43
ENDBRANCH  31  33
ENDBRANCH   1  29
BRANCH   1  53
HETATM   53  C28 UNL     1      13.843  22.517   4.587  1.00  0.00    -0.022 C
HETATM   54  C29 UNL     1      13.439  21.098   5.073  1.00  0.00     0.017 C
HETATM   55  C30 UNL     1      15.290  22.310   4.120  1.00  0.00     0.017 C
HETATM   56  C31 UNL     1      12.935  22.871   3.468  1.00  0.00     0.017 C
ENDBRANCH   1  53
TORSDOF 20
ENDMDL