MODEL 3
REMARK VINA RESULT: -6.476953387      1.184      1.780
REMARK  14 active torsions:
REMARK  status: ('A' for Active; 'I' for Inactive)
REMARK    1  A    between atoms: C2_2  and  C3_3
REMARK    2  A    between atoms: C3_3  and  C4_4
REMARK    3  A    between atoms: C4_4  and  C5_5
REMARK    4  A    between atoms: C5_5  and  C6_6
REMARK    5  A    between atoms: C6_6  and  C7_7
REMARK    6  A    between atoms: C7_7  and  C8_8
REMARK    7  A    between atoms: C8_8  and  C9_9
REMARK       I    between atoms: C9_9  and  N1_11
REMARK    8  A    between atoms: N1_11  and  C10_12
REMARK    9  A    between atoms: C10_12  and  C11_13
REMARK   10  A    between atoms: C11_13  and  O2_14
REMARK   11  A    between atoms: O2_14  and  C12_15
REMARK   12  A    between atoms: C15_18  and  C16_19
REMARK   13  A    between atoms: C27_32  and  O3_33
REMARK   14  A    between atoms: C33_47  and  O7_48
ROOT
HETATM    1  C12 UNL     1      20.072  16.125   6.643  1.00  0.00     0.159 C
HETATM    2  C13 UNL     1      19.714  16.640   7.995  1.00  0.00     0.006 C
HETATM    3  C14 UNL     1      19.448  16.267   9.218  1.00  0.00     0.003 C
HETATM    4  C15 UNL     1      19.341  15.022  10.028  1.00  0.00    -0.060 C
HETATM    5  C22 UNL     1      20.076  13.834   9.492  1.00  0.00     0.058 C
HETATM    6  C23 UNL     1      20.532  13.009  10.741  1.00  0.00     0.048 C
HETATM    7  C24 UNL     1      21.485  11.932  10.418  1.00  0.00    -0.023 C
HETATM    8  C25 UNL     1      21.511  11.233   9.159  1.00  0.00     0.022 C
HETATM    9  C26 UNL     1      21.173  11.826   7.850  1.00  0.00     0.026 C
HETATM   10  N2  UNL     1      19.825  12.166   7.669  1.00  0.00    -0.365 N
ATOM     11  H2  UNL     1      19.295  11.901   6.838  1.00  0.00     0.162 HD
HETATM   12  C27 UNL     1      19.248  12.921   8.754  1.00  0.00     0.233 C
HETATM   13  C28 UNL     1      22.085  12.858   7.251  1.00  0.00     0.171 C
HETATM   14  C29 UNL     1      23.396  12.563   7.841  1.00  0.00     0.072 C
HETATM   15  N3  UNL     1      24.434  12.296   8.333  1.00  0.00    -0.196 NA
HETATM   16  C30 UNL     1      21.646  14.299   7.538  1.00  0.00     0.146 C
HETATM   17  C31 UNL     1      20.700  14.801   6.539  1.00  0.00     0.141 C
HETATM   18  C32 UNL     1      21.548  14.859   5.271  1.00  0.00     0.239 C
HETATM   19  O4  UNL     1      21.415  14.198   4.190  1.00  0.00    -0.272 OA
HETATM   20  N4  UNL     1      22.534  15.826   5.563  1.00  0.00    -0.253 N
ATOM     21  H4  UNL     1      22.888  16.576   4.968  1.00  0.00     0.181 HD
HETATM   22  S1  UNL     1      22.997  15.413   7.200  1.00  0.00     0.246 S
HETATM   23  O5  UNL     1      24.318  14.827   7.016  1.00  0.00    -0.205 OA
HETATM   24  O6  UNL     1      23.000  16.617   8.065  1.00  0.00    -0.205 OA
HETATM   25  C33 UNL     1      21.397  14.306   8.977  1.00  0.00     0.163 C
ENDROOT
BRANCH  25  26
HETATM   26  O7  UNL     1      21.753  15.470   9.682  1.00  0.00    -0.392 OA
ATOM     27  H7  UNL     1      21.038  16.092   9.609  1.00  0.00     0.210 HD
ENDBRANCH  25  26
BRANCH  12  28
HETATM   28  O3  UNL     1      18.028  13.351   8.241  1.00  0.00    -0.376 OA
ATOM     29  H3  UNL     1      17.325  12.727   8.102  1.00  0.00     0.212 HD
ENDBRANCH  12  28
BRANCH   1  30
HETATM   30  O2  UNL     1      19.053  16.269   5.853  1.00  0.00    -0.379 OA
BRANCH  30  31
HETATM   31  C11 UNL     1      18.160  16.351   5.034  1.00  0.00     0.202 C
BRANCH  31  32
HETATM   32  C10 UNL     1      17.760  17.784   4.552  1.00  0.00     0.247 C
BRANCH  32  33
HETATM   33  N1  UNL     1      17.364  17.766   3.251  1.00  0.00    -0.413 NA
HETATM   34  C9  UNL     1      16.973  17.743   1.948  1.00  0.00     0.286 C
HETATM   35  O1  UNL     1      17.370  17.012   1.003  1.00  0.00    -0.258 OA
BRANCH  34  36
HETATM   36  C8  UNL     1      15.911  18.748   1.494  1.00  0.00     0.119 C
BRANCH  36  37
HETATM   37  C7  UNL     1      15.068  19.260   2.594  1.00  0.00     0.010 C
BRANCH  37  38
HETATM   38  C6  UNL     1      14.764  20.704   2.721  1.00  0.00     0.001 C
BRANCH  38  39
HETATM   39  C5  UNL     1      15.248  21.075   4.155  1.00  0.00     0.000 C
BRANCH  39  40
HETATM   40  C4  UNL     1      14.354  20.334   5.121  1.00  0.00     0.000 C
BRANCH  40  41
HETATM   41  C3  UNL     1      13.849  21.369   6.117  1.00  0.00    -0.000 C
BRANCH  41  42
HETATM   42  C2  UNL     1      12.365  21.494   6.089  1.00  0.00    -0.005 C
HETATM   43  C1  UNL     1      11.904  22.923   5.961  1.00  0.00     0.005 C
ENDBRANCH  41  42
ENDBRANCH  40  41
ENDBRANCH  39  40
ENDBRANCH  38  39
ENDBRANCH  37  38
ENDBRANCH  36  37
ENDBRANCH  34  36
ENDBRANCH  32  33
ENDBRANCH  31  32
ENDBRANCH  30  31
ENDBRANCH   1  30
BRANCH   4  44
HETATM   44  C16 UNL     1      18.119  14.912  10.831  1.00  0.00     0.015 C
HETATM   45  C17 UNL     1      18.444  15.070  12.356  1.00  0.00     0.009 C
HETATM   46  C18 UNL     1      17.261  14.745  13.183  1.00  0.00     0.001 C
HETATM   47  C19 UNL     1      16.179  15.780  12.921  1.00  0.00     0.000 C
HETATM   48  C20 UNL     1      15.893  15.669  11.422  1.00  0.00     0.001 C
HETATM   49  C21 UNL     1      17.182  16.138  10.733  1.00  0.00     0.009 C
ENDBRANCH   4  44
TORSDOF 14
ENDMDL