MODEL 5
REMARK VINA RESULT: -8.106209210      2.139      5.078
REMARK  18 active torsions:
REMARK  status: ('A' for Active; 'I' for Inactive)
REMARK    1  A    between atoms: C2_2  and  C3_3
REMARK    2  A    between atoms: C3_3  and  C4_4
REMARK       I    between atoms: C4_4  and  N1_6
REMARK    3  A    between atoms: N1_6  and  C5_8
REMARK    4  A    between atoms: C5_8  and  C7_10
REMARK    5  A    between atoms: C7_10  and  O3_16
REMARK    6  A    between atoms: C8_11  and  C9_12
REMARK    7  A    between atoms: C9_12  and  O2_14
REMARK    8  A    between atoms: O3_16  and  C12_17
REMARK    9  A    between atoms: C12_17  and  O4_18
REMARK   10  A    between atoms: C14_21  and  O5_22
REMARK   11  A    between atoms: C19_28  and  C31_47
REMARK   12  A    between atoms: C21_30  and  C22_31
REMARK   13  A    between atoms: C22_31  and  C23_32
REMARK       I    between atoms: C23_32  and  N2_34
REMARK   14  A    between atoms: N2_34  and  C24_36
REMARK   15  A    between atoms: C24_36  and  C25_37
REMARK   16  A    between atoms: C24_36  and  C28_42
REMARK   17  A    between atoms: C25_37  and  C26_38
REMARK   18  A    between atoms: C26_38  and  C27_39
ROOT
HETATM    1  C12 UNL     1      14.143  22.973   6.056  1.00  0.00     0.173 C
HETATM    2  C13 UNL     1      13.654  23.378   4.684  1.00  0.00     0.107 C
HETATM    3  C14 UNL     1      12.382  24.230   4.748  1.00  0.00     0.067 C
HETATM    4  C15 UNL     1      11.814  24.407   3.375  1.00  0.00     0.039 C
HETATM    5  C16 UNL     1      10.356  24.500   3.223  1.00  0.00     0.008 C
HETATM    6  C17 UNL     1       9.449  24.373   4.375  1.00  0.00    -0.004 C
HETATM    7  C18 UNL     1      10.080  24.218   5.714  1.00  0.00     0.001 C
HETATM    8  C19 UNL     1      10.089  25.605   6.250  1.00  0.00    -0.004 C
HETATM    9  C20 UNL     1       9.731  26.537   5.084  1.00  0.00     0.011 C
HETATM   10  C21 UNL     1       8.582  25.626   4.586  1.00  0.00     0.008 C
HETATM   11  C32 UNL     1      11.401  23.520   5.598  1.00  0.00     0.025 C
HETATM   12  C33 UNL     1      11.918  23.054   6.938  1.00  0.00     0.017 C
HETATM   13  C34 UNL     1      13.128  22.125   6.726  1.00  0.00     0.045 C
HETATM   14  C35 UNL     1      12.679  20.913   6.005  1.00  0.00     0.015 C
ENDROOT
BRANCH   1  15
HETATM   15  O3  UNL     1      15.449  22.603   6.040  1.00  0.00    -0.316 OA
BRANCH  15  16
HETATM   16  C7  UNL     1      16.206  21.611   6.508  1.00  0.00     0.071 C
HETATM   17  C8  UNL     1      16.370  20.476   5.886  1.00  0.00     0.039 C
BRANCH  16  18
HETATM   18  C5  UNL     1      16.913  21.795   7.825  1.00  0.00     0.137 C
HETATM   19  C6  UNL     1      16.608  23.176   8.394  1.00  0.00     0.039 C
BRANCH  18  20
HETATM   20  N1  UNL     1      16.447  20.848   8.804  1.00  0.00    -0.351 N
HETATM   21  C4  UNL     1      17.214  19.869   9.459  1.00  0.00     0.218 C
HETATM   22  O1  UNL     1      18.430  19.759   9.206  1.00  0.00    -0.274 OA
ATOM     23  H1  UNL     1      15.457  20.892   9.047  1.00  0.00     0.163 HD
BRANCH  21  24
HETATM   24  C3  UNL     1      16.588  18.969  10.449  1.00  0.00     0.102 C
BRANCH  24  25
HETATM   25  C2  UNL     1      17.379  17.690  10.644  1.00  0.00     0.005 C
HETATM   26  C1  UNL     1      16.483  16.591  11.190  1.00  0.00     0.005 C
ENDBRANCH  24  25
ENDBRANCH  21  24
ENDBRANCH  18  20
ENDBRANCH  16  18
BRANCH  17  27
HETATM   27  C9  UNL     1      15.803  20.037   4.607  1.00  0.00     0.142 C
HETATM   28  C10 UNL     1      16.944  19.462   3.769  1.00  0.00     0.044 C
BRANCH  27  29
HETATM   29  O2  UNL     1      14.790  19.090   4.764  1.00  0.00    -0.387 OA
HETATM   30  C11 UNL     1      15.133  17.862   4.198  1.00  0.00     0.202 C
ENDBRANCH  27  29
ENDBRANCH  17  27
ENDBRANCH  15  16
ENDBRANCH   1  15
BRANCH   1  31
HETATM   31  O4  UNL     1      14.119  24.189   6.816  1.00  0.00    -0.364 OA
ATOM     32  H4  UNL     1      13.210  24.463   6.802  1.00  0.00     0.213 HD
ENDBRANCH   1  31
BRANCH   3  33
HETATM   33  O5  UNL     1      12.822  25.435   5.319  1.00  0.00    -0.389 OA
ATOM     34  H5  UNL     1      12.063  26.002   5.254  1.00  0.00     0.210 HD
ENDBRANCH   3  33
BRANCH   8  35
HETATM   35  C31 UNL     1       8.746  25.717   7.003  1.00  0.00     0.008 A
HETATM   36  C22 UNL     1       8.897  27.130   7.588  1.00  0.00     0.049 A
HETATM   37  C29 UNL     1       8.805  26.465   8.953  1.00  0.00     0.020 A
HETATM   38  C30 UNL     1       8.686  25.092   8.343  1.00  0.00     0.007 A
BRANCH  36  39
HETATM   39  C23 UNL     1       7.761  28.034   7.379  1.00  0.00     0.228 C
HETATM   40  O6  UNL     1       7.799  29.278   7.608  1.00  0.00    -0.273 OA
HETATM   41  N2  UNL     1       6.523  27.545   6.896  1.00  0.00    -0.347 N
ATOM     42  H2  UNL     1       6.431  26.550   6.693  1.00  0.00     0.163 HD
BRANCH  41  43
HETATM   43  C24 UNL     1       5.381  28.415   6.681  1.00  0.00     0.174 C
BRANCH  43  44
HETATM   44  C25 UNL     1       4.664  28.026   5.441  1.00  0.00     0.043 C
BRANCH  44  45
HETATM   45  C26 UNL     1       5.178  26.769   4.839  1.00  0.00     0.102 C
BRANCH  45  46
HETATM   46  C27 UNL     1       4.167  26.049   4.075  1.00  0.00     0.231 C
HETATM   47  N3  UNL     1       3.832  26.406   2.720  1.00  0.00    -0.062 NA
HETATM   48  O7  UNL     1       3.538  25.076   4.561  1.00  0.00    -0.277 OA
ENDBRANCH  45  46
ENDBRANCH  44  45
ENDBRANCH  43  44
BRANCH  43  49
HETATM   49  C28 UNL     1       4.402  28.249   7.812  1.00  0.00     0.254 C
HETATM   50  N4  UNL     1       4.059  29.312   8.671  1.00  0.00    -0.060 NA
HETATM   51  O8  UNL     1       3.873  27.127   7.998  1.00  0.00    -0.275 OA
ENDBRANCH  43  49
ENDBRANCH  41  43
ENDBRANCH  36  39
ENDBRANCH   8  35
TORSDOF 18
ENDMDL