MODEL 1
REMARK VINA RESULT: -9.170798205      0.000      0.000
REMARK  16 active torsions:
REMARK  status: ('A' for Active; 'I' for Inactive)
REMARK    1  A    between atoms: C2_2  and  C3_3
REMARK    2  A    between atoms: C3_3  and  C5_5
REMARK    3  A    between atoms: C6_8  and  O1_9
REMARK    4  A    between atoms: C7_12  and  C8_13
REMARK       I    between atoms: N2_17  and  C12_18
REMARK       I    between atoms: C12_18  and  N3_20
REMARK    5  A    between atoms: N3_20  and  C13_22
REMARK    6  A    between atoms: C13_22  and  C14_23
REMARK    7  A    between atoms: C13_22  and  C26_43
REMARK       I    between atoms: C14_23  and  N4_25
REMARK    8  A    between atoms: N4_25  and  C15_27
REMARK    9  A    between atoms: C15_27  and  C16_28
REMARK   10  A    between atoms: C15_27  and  C20_32
REMARK   11  A    between atoms: C16_28  and  C17_29
REMARK   12  A    between atoms: C20_32  and  O5_33
REMARK   13  A    between atoms: C20_32  and  C21_35
REMARK       I    between atoms: C21_35  and  N5_37
REMARK   14  A    between atoms: N5_37  and  C22_39
REMARK   15  A    between atoms: C22_39  and  C23_40
REMARK   16  A    between atoms: C26_43  and  C28_45
ROOT
HETATM    1  C5  UNL     1      17.017  18.384   3.289  1.00  0.00     0.181 C
HETATM    2  N1  UNL     1      17.704  19.436   3.940  1.00  0.00    -0.337 N
ATOM      3  H1  UNL     1      18.376  19.923   3.346  1.00  0.00     0.164 HD
HETATM    4  C6  UNL     1      17.634  19.950   5.281  1.00  0.00     0.264 C
HETATM    5  O2  UNL     1      16.598  20.587   5.782  1.00  0.00    -0.277 OA
HETATM    6  C7  UNL     1      16.007  21.425   6.641  1.00  0.00     0.076 C
HETATM    7  C11 UNL     1      14.905  22.318   6.345  1.00  0.00     0.134 C
HETATM    8  N2  UNL     1      14.047  22.191   5.216  1.00  0.00    -0.287 N
HETATM    9  C12 UNL     1      13.180  23.290   4.943  1.00  0.00     0.326 C
HETATM   10  O3  UNL     1      13.256  24.337   5.692  1.00  0.00    -0.246 OA
HETATM   11  N3  UNL     1      12.237  23.366   3.941  1.00  0.00    -0.329 N
ATOM     12  H3  UNL     1      12.138  22.558   3.326  1.00  0.00     0.165 HD
HETATM   13  C30 UNL     1      14.017  21.074   4.369  1.00  0.00     0.075 C
HETATM   14  C31 UNL     1      14.734  21.209   3.059  1.00  0.00     0.065 C
HETATM   15  C32 UNL     1      14.649  19.955   2.224  1.00  0.00     0.128 C
HETATM   16  N6  UNL     1      14.512  18.804   3.062  1.00  0.00    -0.359 N
ATOM     17  H6  UNL     1      13.577  18.423   3.207  1.00  0.00     0.162 HD
HETATM   18  C33 UNL     1      15.610  18.157   3.707  1.00  0.00     0.240 C
HETATM   19  O7  UNL     1      15.434  17.358   4.668  1.00  0.00    -0.271 OA
ENDROOT
BRANCH  11  20
HETATM   20  C13 UNL     1      11.355  24.534   3.684  1.00  0.00     0.182 C
BRANCH  20  21
HETATM   21  C14 UNL     1      10.490  24.763   4.832  1.00  0.00     0.241 C
HETATM   22  O4  UNL     1      10.074  23.727   5.467  1.00  0.00    -0.271 OA
HETATM   23  N4  UNL     1      10.050  25.991   5.367  1.00  0.00    -0.352 N
ATOM     24  H4  UNL     1      10.327  26.849   4.890  1.00  0.00     0.163 HD
BRANCH  23  25
HETATM   25  C15 UNL     1       9.214  26.106   6.571  1.00  0.00     0.122 C
BRANCH  25  26
HETATM   26  C16 UNL     1      10.172  26.595   7.620  1.00  0.00     0.032 C
BRANCH  26  27
HETATM   27  C17 UNL     1      10.047  26.203   9.022  1.00  0.00    -0.021 C
HETATM   28  C18 UNL     1       9.837  27.571   9.779  1.00  0.00     0.009 C
HETATM   29  C19 UNL     1       8.872  25.397   9.465  1.00  0.00     0.009 C
ENDBRANCH  26  27
ENDBRANCH  25  26
BRANCH  25  30
HETATM   30  C20 UNL     1       8.092  27.037   6.316  1.00  0.00     0.232 C
BRANCH  30  31
HETATM   31  O5  UNL     1       8.480  28.389   6.404  1.00  0.00    -0.384 OA
ATOM     32  H5  UNL     1       7.859  28.974   5.989  1.00  0.00     0.210 HD
ENDBRANCH  30  31
BRANCH  30  33
HETATM   33  C21 UNL     1       7.366  26.873   5.036  1.00  0.00     0.248 C
HETATM   34  O6  UNL     1       7.865  27.351   3.993  1.00  0.00    -0.271 OA
HETATM   35  N5  UNL     1       6.125  26.183   4.975  1.00  0.00    -0.358 N
ATOM     36  H5  UNL     1       5.738  25.810   5.841  1.00  0.00     0.162 HD
BRANCH  35  37
HETATM   37  C22 UNL     1       5.384  25.980   3.757  1.00  0.00     0.126 C
BRANCH  37  38
HETATM   38  C23 UNL     1       5.891  24.760   3.010  1.00  0.00    -0.005 C
HETATM   39  C24 UNL     1       6.132  25.072   1.550  1.00  0.00     0.011 C
HETATM   40  C25 UNL     1       4.840  23.672   3.078  1.00  0.00     0.011 C
ENDBRANCH  37  38
ENDBRANCH  35  37
ENDBRANCH  30  33
ENDBRANCH  25  30
ENDBRANCH  23  25
ENDBRANCH  20  21
BRANCH  20  41
HETATM   41  C26 UNL     1      10.848  24.505   2.321  1.00  0.00     0.013 C
HETATM   42  C27 UNL     1       9.791  25.626   2.115  1.00  0.00     0.012 C
BRANCH  41  43
HETATM   43  C28 UNL     1      10.233  23.302   1.718  1.00  0.00     0.002 C
HETATM   44  C29 UNL     1       8.922  22.856   2.261  1.00  0.00     0.005 C
ENDBRANCH  41  43
ENDBRANCH  20  41
ENDBRANCH  11  20
BRANCH   6  45
HETATM   45  C8  UNL     1      15.698  20.749   8.018  1.00  0.00     0.036 C
HETATM   46  C9  UNL     1      14.871  21.685   8.887  1.00  0.00     0.016 C
HETATM   47  C10 UNL     1      16.928  20.425   8.781  1.00  0.00     0.016 C
ENDBRANCH   6  45
BRANCH   4  48
HETATM   48  O1  UNL     1      18.785  19.658   5.877  1.00  0.00    -0.327 OA
ATOM     49  H1  UNL     1      19.477  20.066   5.371  1.00  0.00     0.221 HD
ENDBRANCH   4  48
BRANCH   1  50
HETATM   50  C3  UNL     1      17.816  17.088   3.218  1.00  0.00     0.013 C
HETATM   51  C4  UNL     1      17.880  16.491   1.857  1.00  0.00     0.012 C
BRANCH  50  52
HETATM   52  C2  UNL     1      19.204  17.220   3.774  1.00  0.00     0.002 C
HETATM   53  C1  UNL     1      19.498  16.086   4.740  1.00  0.00     0.005 C
ENDBRANCH  50  52
ENDBRANCH   1  50
TORSDOF 16
ENDMDL