MODEL 4
REMARK VINA RESULT: -7.243124934      1.747      2.580
REMARK  15 active torsions:
REMARK  status: ('A' for Active; 'I' for Inactive)
REMARK    1  A    between atoms: C2_2  and  C3_3
REMARK    2  A    between atoms: C3_3  and  C5_5
REMARK    3  A    between atoms: C12_15  and  C13_16
REMARK    4  A    between atoms: C13_16  and  C14_17
REMARK    5  A    between atoms: C14_17  and  C15_18
REMARK    6  A    between atoms: C15_18  and  C16_19
REMARK    7  A    between atoms: C16_19  and  N2_20
REMARK    8  A    between atoms: C19_29  and  C20_30
REMARK    9  A    between atoms: C21_33  and  C22_34
REMARK   10  A    between atoms: C22_34  and  C23_35
REMARK       I    between atoms: C23_35  and  N6_37
REMARK   11  A    between atoms: N6_37  and  C24_39
REMARK   12  A    between atoms: C24_39  and  C25_40
REMARK   13  A    between atoms: C25_40  and  C26_41
REMARK   14  A    between atoms: C26_41  and  C27_42
REMARK   15  A    between atoms: C27_42  and  C28_43
ROOT
HETATM    1  C5  UNL     1       9.213  24.061   4.343  1.00  0.00     0.089 C
HETATM    2  C6  UNL     1       7.746  24.130   4.119  1.00  0.00     0.047 C
HETATM    3  C7  UNL     1       7.237  25.324   3.375  1.00  0.00     0.154 A
HETATM    4  C8  UNL     1       7.645  25.318   1.965  1.00  0.00     0.275 A
HETATM    5  O1  UNL     1       7.377  24.403   1.106  1.00  0.00    -0.264 OA
HETATM    6  O2  UNL     1       8.350  26.465   1.776  1.00  0.00    -0.280 OA
HETATM    7  C9  UNL     1       8.393  27.207   2.949  1.00  0.00     0.090 A
HETATM    8  C10 UNL     1       9.137  28.528   2.900  1.00  0.00     0.080 C
HETATM    9  C11 UNL     1       7.759  26.618   3.934  1.00  0.00     0.128 A
HETATM   10  N1  UNL     1       7.471  26.919   5.209  1.00  0.00    -0.405 NA
HETATM   11  C12 UNL     1       7.356  27.259   6.365  1.00  0.00     0.152 C
HETATM   12  C18 UNL     1       8.389  28.031   7.122  1.00  0.00     0.282 C
HETATM   13  O3  UNL     1       8.018  29.098   7.757  1.00  0.00    -0.265 OA
HETATM   14  N5  UNL     1       9.757  27.660   7.179  1.00  0.00    -0.318 N
ATOM     15  H5  UNL     1      10.426  28.355   6.845  1.00  0.00     0.169 HD
HETATM   16  C19 UNL     1      10.320  26.412   7.656  1.00  0.00     0.103 C
HETATM   17  C21 UNL     1      10.957  25.570   6.618  1.00  0.00     0.143 C
HETATM   18  C31 UNL     1      10.552  24.174   6.508  1.00  0.00     0.228 C
HETATM   19  O7  UNL     1      11.212  23.303   7.132  1.00  0.00    -0.273 OA
HETATM   20  N7  UNL     1       9.444  23.713   5.729  1.00  0.00    -0.355 N
ATOM     21  H7  UNL     1       8.771  23.096   6.181  1.00  0.00     0.162 HD
ENDROOT
BRANCH  17  22
HETATM   22  C22 UNL     1      12.442  25.694   6.537  1.00  0.00     0.123 C
BRANCH  22  23
HETATM   23  C23 UNL     1      13.131  24.945   5.496  1.00  0.00     0.218 C
HETATM   24  O6  UNL     1      13.152  25.261   4.257  1.00  0.00    -0.274 OA
HETATM   25  N6  UNL     1      13.858  23.758   5.797  1.00  0.00    -0.361 N
ATOM     26  H6  UNL     1      13.879  23.449   6.769  1.00  0.00     0.162 HD
BRANCH  25  27
HETATM   27  C24 UNL     1      14.556  22.973   4.838  1.00  0.00     0.122 C
BRANCH  27  28
HETATM   28  C25 UNL     1      13.854  21.776   4.310  1.00  0.00     0.020 C
BRANCH  28  29
HETATM   29  C26 UNL     1      14.602  21.038   3.230  1.00  0.00     0.002 C
BRANCH  29  30
HETATM   30  C27 UNL     1      15.632  20.130   3.822  1.00  0.00     0.004 C
BRANCH  30  31
HETATM   31  C28 UNL     1      15.613  18.754   3.171  1.00  0.00    -0.023 C
HETATM   32  C29 UNL     1      14.799  18.880   1.905  1.00  0.00     0.009 C
HETATM   33  C30 UNL     1      14.988  17.708   4.039  1.00  0.00     0.009 C
ENDBRANCH  30  31
ENDBRANCH  29  30
ENDBRANCH  28  29
ENDBRANCH  27  28
ENDBRANCH  25  27
ENDBRANCH  22  23
ENDBRANCH  17  22
BRANCH  16  34
HETATM   34  C20 UNL     1       9.528  25.747   8.695  1.00  0.00     0.223 C
HETATM   35  O4  UNL     1       9.796  26.104   9.901  1.00  0.00    -0.643 OA
HETATM   36  O5  UNL     1       8.552  24.812   8.584  1.00  0.00    -0.643 OA
ENDBRANCH  16  34
BRANCH   1  37
HETATM   37  C3  UNL     1       9.956  23.125   3.442  1.00  0.00     0.004 C
HETATM   38  C4  UNL     1       9.063  22.343   2.507  1.00  0.00     0.012 C
BRANCH  37  39
HETATM   39  C2  UNL     1      11.118  23.662   2.697  1.00  0.00     0.002 C
HETATM   40  C1  UNL     1      10.866  24.240   1.352  1.00  0.00     0.005 C
ENDBRANCH  37  39
ENDBRANCH   1  37
BRANCH  11  41
HETATM   41  C13 UNL     1       6.114  26.950   7.135  1.00  0.00     0.079 C
BRANCH  41  42
HETATM   42  C14 UNL     1       4.904  26.717   6.244  1.00  0.00     0.009 C
BRANCH  42  43
HETATM   43  C15 UNL     1       4.263  28.029   5.870  1.00  0.00     0.020 C
BRANCH  43  44
HETATM   44  C16 UNL     1       4.297  28.978   7.031  1.00  0.00     0.122 C
BRANCH  44  45
HETATM   45  N2  UNL     1       4.666  30.304   6.600  1.00  0.00    -0.367 N
HETATM   46  C17 UNL     1       3.966  31.321   6.977  1.00  0.00     0.196 C
HETATM   47  N3  UNL     1       2.824  31.182   7.815  1.00  0.00    -0.067 NA
HETATM   48  N4  UNL     1       4.302  32.651   6.572  1.00  0.00    -0.067 NA
ATOM     49  H2  UNL     1       5.479  30.438   5.999  1.00  0.00     0.161 HD
ENDBRANCH  44  45
ENDBRANCH  43  44
ENDBRANCH  42  43
ENDBRANCH  41  42
ENDBRANCH  11  41
TORSDOF 15
ENDMDL