MODEL 5
REMARK VINA RESULT: -8.859800716      2.018      4.491
REMARK  16 active torsions:
REMARK  status: ('A' for Active; 'I' for Inactive)
REMARK    1  A    between atoms: C2_2  and  C3_3
REMARK    2  A    between atoms: C3_3  and  O1_4
REMARK    3  A    between atoms: O1_4  and  C4_5
REMARK    4  A    between atoms: C6_7  and  N1_8
REMARK    5  A    between atoms: C6_7  and  C7_12
REMARK       I    between atoms: C7_12  and  N2_14
REMARK    6  A    between atoms: N2_14  and  C8_16
REMARK    7  A    between atoms: C8_16  and  C10_18
REMARK    8  A    between atoms: C8_16  and  C31_49
REMARK    9  A    between atoms: C10_18  and  C11_19
REMARK       I    between atoms: C11_19  and  N3_21
REMARK   10  A    between atoms: N3_21  and  C12_23
REMARK   11  A    between atoms: C12_23  and  C13_24
REMARK   12  A    between atoms: C12_23  and  C22_33
REMARK   13  A    between atoms: C13_24  and  C14_25
REMARK   14  A    between atoms: C19_30  and  C20_31
REMARK   15  A    between atoms: C22_33  and  C23_35
REMARK   16  A    between atoms: C23_35  and  N4_36
REMARK       I    between atoms: N5_39  and  C26_40
ROOT
HETATM    1  C11 UNL     1      13.752  23.075   4.439  1.00  0.00     0.221 C
HETATM    2  O3  UNL     1      13.265  22.343   3.551  1.00  0.00    -0.273 OA
HETATM    3  N3  UNL     1      13.045  24.174   4.927  1.00  0.00    -0.349 N
ATOM      4  H3  UNL     1      13.546  24.680   5.657  1.00  0.00     0.163 HD
ENDROOT
BRANCH   3   5
HETATM    5  C12 UNL     1      11.781  24.741   4.627  1.00  0.00     0.156 C
BRANCH   5   6
HETATM    6  C13 UNL     1      10.997  24.133   3.528  1.00  0.00     0.038 C
BRANCH   6   7
HETATM    7  C14 UNL     1       9.645  24.687   3.306  1.00  0.00    -0.008 C
HETATM    8  C15 UNL     1       9.604  25.426   1.935  1.00  0.00     0.005 C
HETATM    9  C16 UNL     1       8.418  26.328   2.046  1.00  0.00     0.000 C
HETATM   10  C17 UNL     1       7.153  25.600   2.365  1.00  0.00     0.000 C
HETATM   11  C18 UNL     1       7.222  24.558   3.413  1.00  0.00     0.005 C
HETATM   12  C19 UNL     1       8.502  23.725   3.306  1.00  0.00    -0.011 C
BRANCH  12  13
HETATM   13  C20 UNL     1       8.321  22.882   2.097  1.00  0.00     0.000 C
HETATM   14  C21 UNL     1       9.296  21.786   1.870  1.00  0.00     0.005 C
ENDBRANCH  12  13
ENDBRANCH   6   7
ENDBRANCH   5   6
BRANCH   5  15
HETATM   15  C22 UNL     1      10.982  24.825   5.903  1.00  0.00     0.166 C
HETATM   16  O4  UNL     1      10.554  23.780   6.322  1.00  0.00    -0.294 OA
BRANCH  15  17
HETATM   17  C23 UNL     1      10.729  26.079   6.589  1.00  0.00     0.198 C
BRANCH  17  18
HETATM   18  N4  UNL     1       9.404  26.499   6.830  1.00  0.00    -0.395 N
HETATM   19  C24 UNL     1       8.925  27.352   5.730  1.00  0.00     0.138 C
HETATM   20  C25 UNL     1       7.426  27.382   5.669  1.00  0.00     0.145 C
HETATM   21  N5  UNL     1       6.992  27.756   7.009  1.00  0.00    -0.352 N
HETATM   22  C26 UNL     1       5.618  27.745   7.369  1.00  0.00     0.184 C
HETATM   23  C27 UNL     1       8.050  28.143   7.916  1.00  0.00     0.155 C
HETATM   24  N6  UNL     1       5.084  28.815   7.833  1.00  0.00    -0.374 N
HETATM   25  N7  UNL     1       4.788  26.615   7.240  1.00  0.00    -0.064 NA
ATOM     26  H62 UNL     1       5.686  29.633   7.927  1.00  0.00     0.158 HD
ATOM     27  H61 UNL     1       4.098  28.807   8.092  1.00  0.00     0.158 HD
HETATM   28  C28 UNL     1       8.961  26.904   8.088  1.00  0.00     0.037 C
HETATM   29  C29 UNL     1       8.091  25.935   8.856  1.00  0.00     0.039 C
HETATM   30  C30 UNL     1      10.056  27.387   9.045  1.00  0.00     0.039 C
ENDBRANCH  17  18
ENDBRANCH  15  17
ENDBRANCH   5  15
ENDBRANCH   3   5
BRANCH   1  31
HETATM   31  C10 UNL     1      15.092  22.766   4.973  1.00  0.00     0.144 C
BRANCH  31  32
HETATM   32  C8  UNL     1      15.184  22.016   6.251  1.00  0.00     0.126 C
HETATM   33  C9  UNL     1      14.079  21.112   6.622  1.00  0.00     0.051 C
BRANCH  32  34
HETATM   34  N2  UNL     1      16.472  21.287   6.183  1.00  0.00    -0.340 N
HETATM   35  C7  UNL     1      16.685  20.161   5.366  1.00  0.00     0.255 C
HETATM   36  O2  UNL     1      15.684  19.771   4.687  1.00  0.00    -0.271 OA
ATOM     37  H2  UNL     1      17.246  21.619   6.760  1.00  0.00     0.163 HD
BRANCH  35  38
HETATM   38  C6  UNL     1      17.930  19.406   5.227  1.00  0.00     0.207 C
HETATM   39  C5  UNL     1      18.076  18.526   4.027  1.00  0.00     0.081 C
HETATM   40  C4  UNL     1      18.855  17.551   4.956  1.00  0.00     0.127 C
HETATM   41  C32 UNL     1      17.903  18.088   6.054  1.00  0.00     0.081 C
BRANCH  40  42
HETATM   42  O1  UNL     1      18.634  16.250   4.708  1.00  0.00    -0.386 OA
BRANCH  42  43
HETATM   43  C3  UNL     1      19.598  15.339   4.642  1.00  0.00     0.167 C
BRANCH  43  44
HETATM   44  C2  UNL     1      19.485  14.025   5.308  1.00  0.00     0.022 C
HETATM   45  C1  UNL     1      19.071  14.095   6.741  1.00  0.00     0.007 C
ENDBRANCH  43  44
ENDBRANCH  42  43
ENDBRANCH  40  42
BRANCH  38  46
HETATM   46  N1  UNL     1      19.130  20.107   5.676  1.00  0.00    -0.061 N
ATOM     47  H13 UNL     1      19.882  19.966   5.001  1.00  0.00     0.275 HD
ATOM     48  H12 UNL     1      18.990  21.114   5.592  1.00  0.00     0.275 HD
ATOM     49  H11 UNL     1      19.467  19.887   6.614  1.00  0.00     0.275 HD
ENDBRANCH  38  46
ENDBRANCH  35  38
ENDBRANCH  32  34
BRANCH  32  50
HETATM   50  C31 UNL     1      15.339  22.983   7.422  1.00  0.00     0.202 C
HETATM   51  O5  UNL     1      14.362  23.682   7.825  1.00  0.00    -0.646 OA
HETATM   52  O6  UNL     1      16.533  23.119   8.065  1.00  0.00    -0.646 OA
ENDBRANCH  32  50
ENDBRANCH  31  32
ENDBRANCH   1  31
TORSDOF 16
ENDMDL