MODEL 1
REMARK VINA RESULT: -9.306041665      0.000      0.000
REMARK  16 active torsions:
REMARK  status: ('A' for Active; 'I' for Inactive)
REMARK    1  A    between atoms: C2_2  and  C3_3
REMARK    2  A    between atoms: C3_3  and  C5_5
REMARK    3  A    between atoms: C8_11  and  C9_12
REMARK    4  A    between atoms: C9_12  and  C10_13
REMARK    5  A    between atoms: C10_13  and  C11_14
REMARK    6  A    between atoms: C11_14  and  C12_15
REMARK    7  A    between atoms: C12_15  and  O1_19
REMARK    8  A    between atoms: C16_23  and  C17_24
REMARK    9  A    between atoms: C17_24  and  C18_26
REMARK   10  A    between atoms: C18_26  and  C19_27
REMARK   11  A    between atoms: C19_27  and  C20_28
REMARK   12  A    between atoms: C19_27  and  C26_41
REMARK       I    between atoms: C20_28  and  N3_30
REMARK   13  A    between atoms: C21_32  and  C22_33
REMARK   14  A    between atoms: C21_32  and  C25_38
REMARK   15  A    between atoms: C22_33  and  C23_34
REMARK   16  A    between atoms: C23_34  and  C24_35
ROOT
HETATM    1  C5  UNL     1       8.004  25.526   3.347  1.00  0.00     0.280 C
HETATM    2  N1  UNL     1       8.602  26.586   4.129  1.00  0.00    -0.062 N
ATOM      3  H11 UNL     1       8.200  27.491   3.881  1.00  0.00     0.278 HD
ATOM      4  H12 UNL     1       9.568  26.747   3.843  1.00  0.00     0.278 HD
HETATM    5  C6  UNL     1       8.519  26.362   5.540  1.00  0.00     0.233 C
HETATM    6  C7  UNL     1       9.848  26.601   6.213  1.00  0.00     0.032 C
HETATM    7  C8  UNL     1      10.621  25.294   6.418  1.00  0.00    -0.007 C
HETATM    8  C14 UNL     1      12.087  25.415   6.201  1.00  0.00     0.016 C
HETATM    9  C15 UNL     1      12.903  25.250   7.444  1.00  0.00     0.012 C
HETATM   10  C16 UNL     1      12.659  24.621   5.037  1.00  0.00     0.162 C
HETATM   11  N5  UNL     1      11.662  23.608   4.629  1.00  0.00    -0.348 N
ATOM     12  H5  UNL     1      11.315  22.961   5.337  1.00  0.00     0.163 HD
HETATM   13  C29 UNL     1      11.165  23.489   3.318  1.00  0.00     0.236 C
HETATM   14  O7  UNL     1      10.850  22.371   2.842  1.00  0.00    -0.272 OA
HETATM   15  C30 UNL     1      11.008  24.692   2.472  1.00  0.00     0.225 C
HETATM   16  N6  UNL     1       9.795  24.707   1.694  1.00  0.00    -0.351 N
ATOM     17  H6  UNL     1       9.772  24.118   0.862  1.00  0.00     0.163 HD
HETATM   18  C31 UNL     1       8.632  25.463   1.978  1.00  0.00     0.249 C
HETATM   19  O8  UNL     1       8.124  26.108   0.994  1.00  0.00    -0.271 OA
ENDROOT
BRANCH  10  20
HETATM   20  C17 UNL     1      13.846  23.860   5.352  1.00  0.00     0.169 C
HETATM   21  O2  UNL     1      14.862  24.306   4.718  1.00  0.00    -0.291 OA
BRANCH  20  22
HETATM   22  C18 UNL     1      14.140  22.759   6.191  1.00  0.00     0.040 C
BRANCH  22  23
HETATM   23  C19 UNL     1      15.349  22.240   6.752  1.00  0.00     0.107 C
BRANCH  23  24
HETATM   24  C20 UNL     1      15.304  20.698   6.518  1.00  0.00     0.230 C
HETATM   25  O3  UNL     1      14.225  20.256   6.056  1.00  0.00    -0.272 OA
HETATM   26  N3  UNL     1      16.364  19.869   6.795  1.00  0.00    -0.326 N
HETATM   27  C21 UNL     1      17.329  19.480   6.039  1.00  0.00     0.077 C
ATOM     28  H3  UNL     1      16.390  19.506   7.747  1.00  0.00     0.168 HD
BRANCH  27  29
HETATM   29  C22 UNL     1      17.394  19.934   4.652  1.00  0.00     0.073 C
BRANCH  29  30
HETATM   30  C23 UNL     1      16.650  19.161   3.630  1.00  0.00     0.119 C
BRANCH  30  31
HETATM   31  C24 UNL     1      17.338  18.541   2.525  1.00  0.00     0.172 C
HETATM   32  O4  UNL     1      16.729  18.419   1.404  1.00  0.00    -0.648 OA
HETATM   33  O5  UNL     1      18.644  18.044   2.554  1.00  0.00    -0.648 OA
ENDBRANCH  30  31
ENDBRANCH  29  30
ENDBRANCH  27  29
BRANCH  27  34
HETATM   34  C25 UNL     1      18.278  18.561   6.581  1.00  0.00     0.277 C
HETATM   35  N4  UNL     1      18.645  18.575   7.937  1.00  0.00    -0.056 NA
HETATM   36  O6  UNL     1      18.820  17.699   5.848  1.00  0.00    -0.270 OA
ENDBRANCH  27  34
ENDBRANCH  23  24
BRANCH  23  37
HETATM   37  C26 UNL     1      15.808  22.344   8.135  1.00  0.00    -0.006 C
HETATM   38  C27 UNL     1      16.584  23.542   8.571  1.00  0.00     0.011 C
HETATM   39  C28 UNL     1      14.735  21.977   9.163  1.00  0.00     0.011 C
ENDBRANCH  23  37
ENDBRANCH  22  23
ENDBRANCH  20  22
ENDBRANCH  10  20
BRANCH   7  40
HETATM   40  C9  UNL     1      10.133  24.525   7.580  1.00  0.00     0.005 C
BRANCH  40  41
HETATM   41  C10 UNL     1       9.064  25.132   8.435  1.00  0.00     0.008 C
BRANCH  41  42
HETATM   42  C11 UNL     1       9.796  25.780   9.633  1.00  0.00     0.083 C
BRANCH  42  43
HETATM   43  C12 UNL     1       9.626  27.247   9.618  1.00  0.00     0.110 C
HETATM   44  N2  UNL     1      10.597  28.092   9.552  1.00  0.00    -0.384 N
ATOM     45  H22 UNL     1      11.544  27.715   9.506  1.00  0.00     0.157 HD
ATOM     46  H21 UNL     1      10.480  29.106   9.542  1.00  0.00     0.157 HD
BRANCH  43  47
HETATM   47  O1  UNL     1       8.340  27.760   9.680  1.00  0.00    -0.344 OA
HETATM   48  C13 UNL     1       7.750  28.392   8.539  1.00  0.00     0.211 C
ENDBRANCH  43  47
ENDBRANCH  42  43
ENDBRANCH  41  42
ENDBRANCH  40  41
ENDBRANCH   7  40
BRANCH   1  49
HETATM   49  C3  UNL     1       6.539  25.719   3.119  1.00  0.00     0.021 C
HETATM   50  C4  UNL     1       5.795  26.419   4.201  1.00  0.00     0.012 C
BRANCH  49  51
HETATM   51  C2  UNL     1       5.836  24.462   2.714  1.00  0.00     0.002 C
HETATM   52  C1  UNL     1       4.962  24.652   1.493  1.00  0.00     0.005 C
ENDBRANCH  49  51
ENDBRANCH   1  49
TORSDOF 16
ENDMDL