MODEL 4
REMARK VINA RESULT: -8.318377829      3.309      6.415
REMARK  20 active torsions:
REMARK  status: ('A' for Active; 'I' for Inactive)
REMARK    1  A    between atoms: C2_2  and  C3_3
REMARK    2  A    between atoms: C3_3  and  C4_4
REMARK    3  A    between atoms: C4_4  and  N1_5
REMARK       I    between atoms: N1_5  and  C5_7
REMARK    4  A    between atoms: C5_7  and  C6_9
REMARK    5  A    between atoms: N2_11  and  C8_12
REMARK    6  A    between atoms: C8_12  and  O2_13
REMARK    7  A    between atoms: C8_12  and  C9_15
REMARK    8  A    between atoms: C9_15  and  C10_16
REMARK    9  A    between atoms: C9_15  and  N4_24
REMARK   10  A    between atoms: C10_16  and  C11_17
REMARK   11  A    between atoms: C11_17  and  C12_18
REMARK   12  A    between atoms: C12_18  and  C13_19
REMARK   13  A    between atoms: C13_19  and  N3_20
REMARK       I    between atoms: N4_24  and  C14_26
REMARK   14  A    between atoms: C14_26  and  O4_28
REMARK   15  A    between atoms: O4_28  and  C15_29
REMARK   16  A    between atoms: C15_29  and  C16_30
REMARK   17  A    between atoms: C15_29  and  C27_46
REMARK   18  A    between atoms: C16_30  and  C17_31
REMARK       I    between atoms: N5_35  and  C21_36
REMARK   19  A    between atoms: C22_41  and  C23_42
REMARK   20  A    between atoms: C28_49  and  C29_50
ROOT
HETATM    1  C9  UNL     1      11.849  24.511   5.325  1.00  0.00     0.161 C
ENDROOT
BRANCH   1   2
HETATM    2  C8  UNL     1      13.192  24.215   4.849  1.00  0.00     0.138 C
BRANCH   2   3
HETATM    3  N2  UNL     1      13.860  22.969   4.797  1.00  0.00    -0.347 N
HETATM    4  C7  UNL     1      15.095  22.432   4.299  1.00  0.00     0.142 C
HETATM    5  C6  UNL     1      14.842  21.145   5.029  1.00  0.00     0.129 C
HETATM    6  C28 UNL     1      13.451  21.651   5.205  1.00  0.00     0.201 C
BRANCH   5   7
HETATM    7  C5  UNL     1      14.966  19.927   4.165  1.00  0.00     0.226 C
HETATM    8  N1  UNL     1      15.024  20.031   2.757  1.00  0.00    -0.361 N
ATOM      9  H1  UNL     1      14.993  20.957   2.330  1.00  0.00     0.162 HD
HETATM   10  O1  UNL     1      15.015  18.824   4.715  1.00  0.00    -0.273 OA
BRANCH   8  11
HETATM   11  C4  UNL     1      15.127  18.878   1.908  1.00  0.00     0.122 C
BRANCH  11  12
HETATM   12  C3  UNL     1      16.546  18.684   1.471  1.00  0.00     0.019 C
BRANCH  12  13
HETATM   13  C2  UNL     1      17.032  17.384   2.095  1.00  0.00    -0.003 C
HETATM   14  C1  UNL     1      18.139  17.613   3.094  1.00  0.00     0.005 C
ENDBRANCH  12  13
ENDBRANCH  11  12
ENDBRANCH   8  11
ENDBRANCH   5   7
BRANCH   6  15
HETATM   15  C29 UNL     1      12.941  21.517   6.605  1.00  0.00     0.197 C
HETATM   16  O7  UNL     1      13.676  21.654   7.600  1.00  0.00    -0.646 OA
HETATM   17  O8  UNL     1      11.580  21.230   6.750  1.00  0.00    -0.646 OA
ENDBRANCH   6  15
ENDBRANCH   2   3
BRANCH   2  18
HETATM   18  O2  UNL     1      13.842  25.262   4.421  1.00  0.00    -0.348 OA
ATOM     19  H2  UNL     1      13.901  26.008   5.007  1.00  0.00     0.219 HD
ENDBRANCH   2  18
ENDBRANCH   1   2
BRANCH   1  20
HETATM   20  C10 UNL     1      12.026  25.647   6.408  1.00  0.00     0.034 C
BRANCH  20  21
HETATM   21  C11 UNL     1      10.959  25.513   7.442  1.00  0.00     0.004 C
BRANCH  21  22
HETATM   22  C12 UNL     1      11.405  26.155   8.729  1.00  0.00     0.027 C
BRANCH  22  23
HETATM   23  C13 UNL     1      10.194  26.726   9.432  1.00  0.00     0.229 C
BRANCH  23  24
HETATM   24  N3  UNL     1      10.126  28.158   9.152  1.00  0.00    -0.079 N
ATOM     25  H33 UNL     1      10.082  28.722  10.001  1.00  0.00     0.274 HD
ATOM     26  H32 UNL     1      11.004  28.527   8.785  1.00  0.00     0.274 HD
ATOM     27  H31 UNL     1       9.338  28.330   8.527  1.00  0.00     0.274 HD
ENDBRANCH  23  24
ENDBRANCH  22  23
ENDBRANCH  21  22
ENDBRANCH  20  21
ENDBRANCH   1  20
BRANCH   1  28
HETATM   28  N4  UNL     1      10.987  25.080   4.309  1.00  0.00    -0.325 N
HETATM   29  C14 UNL     1      10.088  24.350   3.496  1.00  0.00     0.362 C
HETATM   30  O3  UNL     1       9.990  23.111   3.659  1.00  0.00    -0.238 OA
ATOM     31  H4  UNL     1      11.032  26.089   4.167  1.00  0.00     0.165 HD
BRANCH  29  32
HETATM   32  O4  UNL     1       9.324  24.972   2.545  1.00  0.00    -0.288 OA
BRANCH  32  33
HETATM   33  C15 UNL     1       7.853  24.663   2.576  1.00  0.00     0.234 C
BRANCH  33  34
HETATM   34  C16 UNL     1       7.404  25.223   3.863  1.00  0.00     0.050 C
BRANCH  34  35
HETATM   35  C17 UNL     1       6.821  26.538   4.069  1.00  0.00     0.012 C
HETATM   36  C18 UNL     1       7.717  27.709   4.258  1.00  0.00     0.008 C
HETATM   37  C19 UNL     1       8.589  27.676   5.468  1.00  0.00     0.020 C
HETATM   38  C20 UNL     1       7.732  27.177   6.610  1.00  0.00     0.126 C
HETATM   39  N5  UNL     1       6.294  27.298   6.296  1.00  0.00    -0.350 N
HETATM   40  C21 UNL     1       5.605  28.207   7.120  1.00  0.00     0.184 C
HETATM   41  C22 UNL     1       5.801  26.489   5.247  1.00  0.00     0.098 C
HETATM   42  N6  UNL     1       5.344  27.869   8.327  1.00  0.00    -0.374 N
HETATM   43  N7  UNL     1       5.208  29.465   6.657  1.00  0.00    -0.064 NA
ATOM     44  H62 UNL     1       5.634  26.952   8.665  1.00  0.00     0.158 HD
ATOM     45  H61 UNL     1       4.844  28.528   8.924  1.00  0.00     0.158 HD
BRANCH  41  46
HETATM   46  C23 UNL     1       4.398  26.613   4.834  1.00  0.00    -0.030 C
HETATM   47  C24 UNL     1       4.171  25.702   3.607  1.00  0.00     0.016 C
HETATM   48  C25 UNL     1       3.442  26.013   5.883  1.00  0.00     0.016 C
HETATM   49  C26 UNL     1       3.874  27.943   4.441  1.00  0.00     0.016 C
ENDBRANCH  41  46
ENDBRANCH  34  35
ENDBRANCH  33  34
BRANCH  33  50
HETATM   50  C27 UNL     1       7.417  25.488   1.395  1.00  0.00     0.203 C
HETATM   51  O5  UNL     1       6.292  25.416   0.851  1.00  0.00    -0.646 OA
HETATM   52  O6  UNL     1       8.352  26.398   0.883  1.00  0.00    -0.646 OA
ENDBRANCH  33  50
ENDBRANCH  32  33
ENDBRANCH  29  32
ENDBRANCH   1  28
TORSDOF 20
ENDMDL