MODEL 4
REMARK VINA RESULT: -8.878833460      4.951     13.033
REMARK  16 active torsions:
REMARK  status: ('A' for Active; 'I' for Inactive)
REMARK    1  A    between atoms: C3_3  and  N1_4
REMARK    2  A    between atoms: C12_15  and  N3_16
REMARK       I    between atoms: N3_16  and  C13_18
REMARK    3  A    between atoms: C13_18  and  C14_20
REMARK       I    between atoms: N5_26  and  C17_27
REMARK    4  A    between atoms: C17_27  and  C18_29
REMARK    5  A    between atoms: C18_29  and  C20_31
REMARK    6  A    between atoms: C18_29  and  C29_45
REMARK    7  A    between atoms: C20_31  and  C21_32
REMARK    8  A    between atoms: C21_32  and  C22_33
REMARK    9  A    between atoms: C22_33  and  C23_34
REMARK   10  A    between atoms: C23_34  and  C24_35
REMARK   11  A    between atoms: C24_35  and  C25_36
REMARK       I    between atoms: C25_36  and  N6_38
REMARK   12  A    between atoms: N6_38  and  C26_40
REMARK   13  A    between atoms: C26_40  and  C27_41
REMARK   14  A    between atoms: C27_41  and  C28_42
REMARK   15  A    between atoms: C28_42  and  O5_43
REMARK   16  A    between atoms: C29_45  and  C30_46
ROOT
HETATM    1  C14 UNL     1       9.177  24.117   2.584  1.00  0.00     0.347 C
HETATM    2  N4  UNL     1       9.400  25.528   2.432  1.00  0.00    -0.324 N
ATOM      3  H4  UNL     1      10.315  25.941   2.615  1.00  0.00     0.165 HD
HETATM    4  C15 UNL     1       8.323  26.313   2.025  1.00  0.00     0.240 C
HETATM    5  O2  UNL     1       8.484  27.423   1.478  1.00  0.00    -0.272 OA
HETATM    6  C16 UNL     1       6.940  25.822   2.244  1.00  0.00     0.262 C
HETATM    7  N5  UNL     1       6.863  24.487   2.759  1.00  0.00    -0.214 N
HETATM    8  C17 UNL     1       5.632  23.908   3.221  1.00  0.00     0.252 C
HETATM    9  O3  UNL     1       5.736  22.699   3.650  1.00  0.00    -0.270 OA
HETATM   10  O8  UNL     1       7.940  23.714   2.831  1.00  0.00    -0.239 OA
ENDROOT
BRANCH   8  11
HETATM   11  C18 UNL     1       4.312  24.508   3.261  1.00  0.00     0.049 C
HETATM   12  C19 UNL     1       3.274  23.814   4.079  1.00  0.00     0.026 C
BRANCH  11  13
HETATM   13  C20 UNL     1       4.363  25.992   3.634  1.00  0.00     0.019 C
BRANCH  13  14
HETATM   14  C21 UNL     1       4.350  26.213   5.108  1.00  0.00     0.001 C
BRANCH  14  15
HETATM   15  C22 UNL     1       4.610  27.671   5.467  1.00  0.00     0.001 C
BRANCH  15  16
HETATM   16  C23 UNL     1       5.870  27.831   6.262  1.00  0.00     0.009 C
BRANCH  16  17
HETATM   17  C24 UNL     1       7.118  27.671   5.471  1.00  0.00     0.103 C
BRANCH  17  18
HETATM   18  C25 UNL     1       8.188  26.895   6.093  1.00  0.00     0.217 C
HETATM   19  O4  UNL     1       9.224  26.594   5.454  1.00  0.00    -0.274 OA
HETATM   20  N6  UNL     1       8.060  26.472   7.439  1.00  0.00    -0.361 N
ATOM     21  H6  UNL     1       7.224  26.712   7.972  1.00  0.00     0.162 HD
BRANCH  20  22
HETATM   22  C26 UNL     1       9.112  25.706   8.052  1.00  0.00     0.124 C
BRANCH  22  23
HETATM   23  C27 UNL     1       9.496  26.220   9.408  1.00  0.00     0.046 C
BRANCH  23  24
HETATM   24  C28 UNL     1      10.463  27.385   9.190  1.00  0.00     0.165 C
BRANCH  24  25
HETATM   25  O5  UNL     1       9.797  28.535   8.777  1.00  0.00    -0.401 OA
ATOM     26  H5  UNL     1      10.283  28.999   8.106  1.00  0.00     0.209 HD
ENDBRANCH  24  25
ENDBRANCH  23  24
ENDBRANCH  22  23
ENDBRANCH  20  22
ENDBRANCH  17  18
ENDBRANCH  16  17
ENDBRANCH  15  16
ENDBRANCH  14  15
ENDBRANCH  13  14
ENDBRANCH  11  13
BRANCH  11  27
HETATM   27  C29 UNL     1       3.767  24.500   1.820  1.00  0.00     0.132 C
BRANCH  27  28
HETATM   28  C30 UNL     1       3.029  25.743   1.495  1.00  0.00     0.173 C
HETATM   29  O6  UNL     1       3.595  26.626   0.759  1.00  0.00    -0.648 OA
HETATM   30  O7  UNL     1       1.759  26.066   1.911  1.00  0.00    -0.648 OA
ENDBRANCH  27  28
ENDBRANCH  11  27
ENDBRANCH   8  11
BRANCH   1  31
HETATM   31  C13 UNL     1      10.188  23.620   3.594  1.00  0.00     0.273 C
HETATM   32  N3  UNL     1      10.988  24.517   4.316  1.00  0.00    -0.323 N
ATOM     33  H3  UNL     1      10.855  25.510   4.122  1.00  0.00     0.169 HD
HETATM   34  O1  UNL     1      10.284  22.392   3.761  1.00  0.00    -0.268 OA
BRANCH  32  35
HETATM   35  C12 UNL     1      11.955  24.184   5.284  1.00  0.00     0.035 A
HETATM   36  C11 UNL     1      12.082  25.016   6.409  1.00  0.00     0.032 A
HETATM   37  C10 UNL     1      12.949  24.819   7.422  1.00  0.00     0.033 A
HETATM   38  C9  UNL     1      13.781  23.730   7.369  1.00  0.00     0.044 A
HETATM   39  N2  UNL     1      14.723  23.313   8.232  1.00  0.00    -0.341 N
HETATM   40  C32 UNL     1      13.706  22.873   6.293  1.00  0.00     0.002 A
HETATM   41  C3  UNL     1      15.291  22.172   7.744  1.00  0.00     0.110 A
ATOM     42  H2  UNL     1      14.972  23.774   9.107  1.00  0.00     0.167 HD
HETATM   43  C2  UNL     1      14.656  21.905   6.541  1.00  0.00    -0.005 A
HETATM   44  C1  UNL     1      14.953  20.751   5.652  1.00  0.00     0.053 C
HETATM   45  C31 UNL     1      12.793  23.105   5.254  1.00  0.00     0.044 A
BRANCH  41  46
HETATM   46  N1  UNL     1      16.318  21.438   8.379  1.00  0.00    -0.367 N
HETATM   47  C4  UNL     1      17.624  22.053   8.501  1.00  0.00     0.124 C
HETATM   48  C5  UNL     1      18.713  20.987   8.512  1.00  0.00     0.020 C
HETATM   49  C6  UNL     1      18.503  20.020   9.648  1.00  0.00     0.003 C
HETATM   50  C7  UNL     1      17.068  20.010  10.145  1.00  0.00     0.020 C
HETATM   51  C8  UNL     1      16.157  20.110   8.928  1.00  0.00     0.124 C
ENDBRANCH  41  46
ENDBRANCH  32  35
ENDBRANCH   1  31
TORSDOF 16
ENDMDL