MODEL 2
REMARK VINA RESULT: -8.879205180      4.958     12.989
REMARK  18 active torsions:
REMARK  status: ('A' for Active; 'I' for Inactive)
REMARK    1  A    between atoms: C2_2  and  N1_3
REMARK    2  A    between atoms: C2_2  and  C15_24
REMARK    3  A    between atoms: N1_3  and  C3_5
REMARK    4  A    between atoms: C3_5  and  C4_6
REMARK    5  A    between atoms: C3_5  and  C11_13
REMARK    6  A    between atoms: C4_6  and  C5_7
REMARK    7  A    between atoms: C11_13  and  C12_15
REMARK    8  A    between atoms: C12_15  and  N2_16
REMARK    9  A    between atoms: C12_15  and  C13_20
REMARK   10  A    between atoms: C13_20  and  C14_21
REMARK       I    between atoms: C15_24  and  N4_26
REMARK   11  A    between atoms: N4_26  and  C16_28
REMARK   12  A    between atoms: C16_28  and  O4_29
REMARK   13  A    between atoms: C16_28  and  C17_31
REMARK       I    between atoms: C17_31  and  N5_33
REMARK       I    between atoms: N6_36  and  C20_37
REMARK       I    between atoms: C20_37  and  N7_39
REMARK   14  A    between atoms: N7_39  and  C21_41
REMARK   15  A    between atoms: C21_41  and  C22_42
REMARK   16  A    between atoms: C22_42  and  C23_43
REMARK   17  A    between atoms: C23_43  and  C24_44
REMARK   18  A    between atoms: C24_44  and  C25_45
ROOT
HETATM    1  C15 UNL     1       7.922  25.529   3.663  1.00  0.00     0.242 C
HETATM    2  O3  UNL     1       7.877  25.051   2.494  1.00  0.00    -0.271 OA
HETATM    3  N4  UNL     1       9.084  25.381   4.443  1.00  0.00    -0.325 N
ATOM      4  H4  UNL     1       9.109  25.787   5.378  1.00  0.00     0.165 HD
ENDROOT
BRANCH   3   5
HETATM    5  C16 UNL     1      10.240  24.670   3.954  1.00  0.00     0.314 C
BRANCH   5   6
HETATM    6  O4  UNL     1      10.570  25.067   2.635  1.00  0.00    -0.368 OA
ATOM      7  H4  UNL     1      11.485  25.312   2.566  1.00  0.00     0.212 HD
ENDBRANCH   5   6
BRANCH   5   8
HETATM    8  C17 UNL     1      11.365  24.828   4.875  1.00  0.00     0.268 C
HETATM    9  O5  UNL     1      11.353  25.698   5.812  1.00  0.00    -0.268 OA
HETATM   10  N5  UNL     1      12.530  24.018   4.770  1.00  0.00    -0.345 N
HETATM   11  C18 UNL     1      13.678  24.329   5.613  1.00  0.00     0.146 C
HETATM   12  C32 UNL     1      12.498  22.888   3.876  1.00  0.00     0.146 C
HETATM   13  C19 UNL     1      14.878  23.543   5.097  1.00  0.00     0.147 C
HETATM   14  N6  UNL     1      14.496  22.142   5.127  1.00  0.00    -0.331 N
HETATM   15  C20 UNL     1      15.183  21.208   5.896  1.00  0.00     0.318 C
HETATM   16  C31 UNL     1      13.346  21.713   4.330  1.00  0.00     0.147 C
HETATM   17  O6  UNL     1      14.782  20.003   5.904  1.00  0.00    -0.247 OA
HETATM   18  N7  UNL     1      16.312  21.544   6.672  1.00  0.00    -0.343 N
ATOM     19  H7  UNL     1      16.664  22.501   6.678  1.00  0.00     0.164 HD
BRANCH  18  20
HETATM   20  C21 UNL     1      16.977  20.510   7.470  1.00  0.00     0.124 C
BRANCH  20  21
HETATM   21  C22 UNL     1      18.255  20.126   6.756  1.00  0.00     0.020 C
BRANCH  21  22
HETATM   22  C23 UNL     1      18.229  18.724   6.279  1.00  0.00     0.002 C
BRANCH  22  23
HETATM   23  C24 UNL     1      18.456  18.480   4.836  1.00  0.00     0.005 C
BRANCH  23  24
HETATM   24  C25 UNL     1      17.312  18.387   3.911  1.00  0.00    -0.014 C
HETATM   25  C26 UNL     1      16.272  17.389   4.192  1.00  0.00     0.004 C
HETATM   26  C27 UNL     1      14.938  17.878   3.553  1.00  0.00     0.000 C
HETATM   27  C28 UNL     1      15.293  18.574   2.268  1.00  0.00     0.000 C
HETATM   28  C29 UNL     1      16.531  17.973   1.626  1.00  0.00     0.000 C
HETATM   29  C30 UNL     1      17.756  18.316   2.445  1.00  0.00     0.004 C
ENDBRANCH  23  24
ENDBRANCH  22  23
ENDBRANCH  21  22
ENDBRANCH  20  21
ENDBRANCH  18  20
ENDBRANCH   5   8
ENDBRANCH   3   5
BRANCH   1  30
HETATM   30  C2  UNL     1       6.673  26.258   4.161  1.00  0.00     0.169 C
HETATM   31  C1  UNL     1       5.522  25.452   3.668  1.00  0.00     0.042 C
BRANCH  30  32
HETATM   32  N1  UNL     1       6.908  26.627   5.448  1.00  0.00    -0.377 N
ATOM     33  H1  UNL     1       7.453  25.960   5.993  1.00  0.00     0.160 HD
BRANCH  32  34
HETATM   34  C3  UNL     1       6.520  27.776   6.143  1.00  0.00     0.054 C
BRANCH  34  35
HETATM   35  C4  UNL     1       7.501  28.368   7.048  1.00  0.00     0.065 C
BRANCH  35  36
HETATM   36  C5  UNL     1       8.448  27.506   7.786  1.00  0.00    -0.009 C
HETATM   37  C6  UNL     1       7.719  26.638   8.841  1.00  0.00     0.005 C
HETATM   38  C7  UNL     1       8.541  25.356   8.967  1.00  0.00     0.000 C
HETATM   39  C8  UNL     1       9.999  25.592   8.730  1.00  0.00     0.000 C
HETATM   40  C9  UNL     1      10.367  26.971   9.211  1.00  0.00     0.000 C
HETATM   41  C10 UNL     1       9.629  28.050   8.453  1.00  0.00     0.005 C
ENDBRANCH  35  36
ENDBRANCH  34  35
BRANCH  34  42
HETATM   42  C11 UNL     1       5.119  27.650   6.607  1.00  0.00     0.202 C
HETATM   43  O1  UNL     1       4.879  26.576   7.193  1.00  0.00    -0.289 OA
BRANCH  42  44
HETATM   44  C12 UNL     1       3.993  28.556   6.493  1.00  0.00     0.267 C
BRANCH  44  45
HETATM   45  N2  UNL     1       4.039  29.558   5.472  1.00  0.00    -0.067 N
ATOM     46  H23 UNL     1       4.974  29.964   5.443  1.00  0.00     0.275 HD
ATOM     47  H22 UNL     1       3.995  29.107   4.558  1.00  0.00     0.275 HD
ATOM     48  H21 UNL     1       3.349  30.308   5.508  1.00  0.00     0.275 HD
ENDBRANCH  44  45
BRANCH  44  49
HETATM   49  C13 UNL     1       3.603  29.171   7.854  1.00  0.00     0.140 C
BRANCH  49  50
HETATM   50  C14 UNL     1       2.691  30.313   7.682  1.00  0.00     0.233 C
HETATM   51  N3  UNL     1       1.371  30.146   7.181  1.00  0.00    -0.062 NA
HETATM   52  O2  UNL     1       3.034  31.512   7.970  1.00  0.00    -0.277 OA
ENDBRANCH  49  50
ENDBRANCH  44  49
ENDBRANCH  42  44
ENDBRANCH  34  42
ENDBRANCH  32  34
ENDBRANCH  30  32
ENDBRANCH   1  30
TORSDOF 18
ENDMDL