MODEL 1
REMARK VINA RESULT: -9.436762949      0.000      0.000
REMARK  18 active torsions:
REMARK  status: ('A' for Active; 'I' for Inactive)
REMARK    1  A    between atoms: C6_6  and  O1_7
REMARK    2  A    between atoms: O1_7  and  C7_8
REMARK    3  A    between atoms: C7_8  and  O2_9
REMARK    4  A    between atoms: N1_11  and  C8_13
REMARK    5  A    between atoms: C8_13  and  C9_14
REMARK    6  A    between atoms: C9_14  and  C10_15
REMARK       I    between atoms: C10_15  and  N2_17
REMARK    7  A    between atoms: N2_17  and  C11_19
REMARK    8  A    between atoms: C11_19  and  C12_20
REMARK    9  A    between atoms: C11_19  and  C16_27
REMARK   10  A    between atoms: C12_20  and  C13_21
REMARK   11  A    between atoms: C13_21  and  C14_22
REMARK   12  A    between atoms: C14_22  and  N3_23
REMARK       I    between atoms: N3_23  and  C15_24
REMARK   13  A    between atoms: C16_27  and  O4_28
REMARK   14  A    between atoms: C16_27  and  C17_30
REMARK   15  A    between atoms: C22_38  and  C23_39
REMARK   16  A    between atoms: C23_39  and  C24_40
REMARK       I    between atoms: C24_40  and  N7_42
REMARK   17  A    between atoms: N7_42  and  C25_44
REMARK   18  A    between atoms: C25_44  and  C26_45
ROOT
HETATM    1  C7  UNL     1      13.673  23.149   5.471  1.00  0.00     0.258 C
HETATM    2  N1  UNL     1      12.672  22.983   4.559  1.00  0.00    -0.350 N
ATOM      3  H1  UNL     1      11.816  22.647   4.999  1.00  0.00     0.163 HD
ENDROOT
BRANCH   1   4
HETATM    4  O1  UNL     1      14.633  23.314   6.324  1.00  0.00    -0.311 OA
BRANCH   4   5
HETATM    5  C6  UNL     1      15.180  22.700   7.437  1.00  0.00     0.133 C
HETATM    6  C5  UNL     1      16.501  23.103   7.928  1.00  0.00     0.038 C
HETATM    7  C4  UNL     1      17.081  22.202   8.995  1.00  0.00    -0.004 C
HETATM    8  C2  UNL     1      16.212  21.044   9.331  1.00  0.00    -0.040 C
HETATM    9  C30 UNL     1      18.252  21.452   8.328  1.00  0.00     0.011 C
HETATM   10  C1  UNL     1      16.959  19.979  10.171  1.00  0.00     0.015 C
HETATM   11  C3  UNL     1      14.913  21.269  10.002  1.00  0.00     0.015 C
HETATM   12  C21 UNL     1      16.138  20.440   7.915  1.00  0.00     0.001 C
HETATM   13  C20 UNL     1      15.251  21.205   7.045  1.00  0.00     0.038 C
HETATM   14  C22 UNL     1      17.571  20.267   7.559  1.00  0.00    -0.001 C
BRANCH  14  15
HETATM   15  C23 UNL     1      18.061  20.353   6.183  1.00  0.00     0.108 C
BRANCH  15  16
HETATM   16  C24 UNL     1      17.970  19.239   5.281  1.00  0.00     0.221 C
HETATM   17  O5  UNL     1      18.895  18.647   4.664  1.00  0.00    -0.273 OA
HETATM   18  N7  UNL     1      16.665  18.634   4.993  1.00  0.00    -0.340 N
ATOM     19  H7  UNL     1      15.848  19.097   5.393  1.00  0.00     0.167 HD
BRANCH  18  20
HETATM   20  C25 UNL     1      16.424  17.487   4.225  1.00  0.00     0.070 C
BRANCH  20  21
HETATM   21  C26 UNL     1      15.853  17.652   2.845  1.00  0.00     0.051 C
HETATM   22  C27 UNL     1      14.741  18.396   2.396  1.00  0.00     0.039 C
HETATM   23  C28 UNL     1      15.295  19.439   1.390  1.00  0.00     0.233 C
HETATM   24  N8  UNL     1      16.468  18.776   0.845  1.00  0.00    -0.074 N
HETATM   25  C29 UNL     1      17.053  18.041   1.920  1.00  0.00     0.242 C
ATOM     26  H82 UNL     1      16.266  18.202   0.026  1.00  0.00     0.277 HD
ATOM     27  H81 UNL     1      17.120  19.417   0.391  1.00  0.00     0.277 HD
ENDBRANCH  20  21
ENDBRANCH  18  20
ENDBRANCH  15  16
ENDBRANCH  14  15
ENDBRANCH   4   5
ENDBRANCH   1   4
BRANCH   1  28
HETATM   28  O2  UNL     1      14.700  23.709   4.317  1.00  0.00    -0.327 OA
ATOM     29  H2  UNL     1      13.942  23.812   3.753  1.00  0.00     0.221 HD
ENDBRANCH   1  28
BRANCH   2  30
HETATM   30  C8  UNL     1      12.507  23.152   3.163  1.00  0.00     0.133 C
BRANCH  30  31
HETATM   31  C9  UNL     1      11.467  24.098   2.630  1.00  0.00     0.122 C
BRANCH  31  32
HETATM   32  C10 UNL     1      10.446  24.278   3.739  1.00  0.00     0.219 C
HETATM   33  O3  UNL     1       9.654  23.288   3.858  1.00  0.00    -0.274 OA
HETATM   34  N2  UNL     1      10.317  25.405   4.567  1.00  0.00    -0.350 N
ATOM     35  H2  UNL     1      10.955  26.200   4.536  1.00  0.00     0.163 HD
BRANCH  34  36
HETATM   36  C11 UNL     1       9.132  25.319   5.511  1.00  0.00     0.144 C
BRANCH  36  37
HETATM   37  C12 UNL     1       9.607  25.237   6.921  1.00  0.00     0.038 C
BRANCH  37  38
HETATM   38  C13 UNL     1      11.041  25.462   7.186  1.00  0.00     0.062 C
BRANCH  38  39
HETATM   39  C14 UNL     1      11.273  26.050   8.592  1.00  0.00     0.158 C
BRANCH  39  40
HETATM   40  N3  UNL     1      10.451  27.017   9.004  1.00  0.00    -0.393 NA
HETATM   41  C15 UNL     1       9.698  27.925   9.213  1.00  0.00     0.274 C
HETATM   42  N4  UNL     1       9.207  28.376  10.486  1.00  0.00    -0.052 NA
HETATM   43  N5  UNL     1       9.147  28.736   8.080  1.00  0.00    -0.052 NA
ENDBRANCH  39  40
ENDBRANCH  38  39
ENDBRANCH  37  38
ENDBRANCH  36  37
BRANCH  36  44
HETATM   44  C16 UNL     1       8.504  26.687   5.302  1.00  0.00     0.099 C
BRANCH  44  45
HETATM   45  O4  UNL     1       9.284  27.714   5.113  1.00  0.00    -0.360 OA
ATOM     46  H4  UNL     1       9.956  27.661   4.444  1.00  0.00     0.217 HD
ENDBRANCH  44  45
BRANCH  44  47
HETATM   47  C17 UNL     1       7.078  26.894   5.298  1.00  0.00     0.101 A
HETATM   48  N6  UNL     1       6.181  26.248   4.576  1.00  0.00    -0.361 N
HETATM   49  C18 UNL     1       4.940  26.430   4.630  1.00  0.00     0.072 A
ATOM     50  H6  UNL     1       6.523  25.545   3.921  1.00  0.00     0.165 HD
HETATM   51  C19 UNL     1       4.512  27.426   5.569  1.00  0.00     0.125 A
HETATM   52  S1  UNL     1       6.029  27.919   6.203  1.00  0.00    -0.105 SA
ENDBRANCH  44  47
ENDBRANCH  36  44
ENDBRANCH  34  36
ENDBRANCH  31  32
ENDBRANCH  30  31
ENDBRANCH   2  30
TORSDOF 18
ENDMDL