MODEL 5
REMARK VINA RESULT: -7.298824172      3.507     11.021
REMARK  15 active torsions:
REMARK  status: ('A' for Active; 'I' for Inactive)
REMARK    1  A    between atoms: C2_2  and  C3_3
REMARK    2  A    between atoms: C3_3  and  N1_4
REMARK    3  A    between atoms: N1_4  and  S1_6
REMARK    4  A    between atoms: S1_6  and  N2_9
REMARK       I    between atoms: N2_9  and  C4_11
REMARK    5  A    between atoms: C4_11  and  C5_13
REMARK    6  A    between atoms: C14_25  and  C15_26
REMARK    7  A    between atoms: C15_26  and  C16_27
REMARK       I    between atoms: C16_27  and  N4_29
REMARK    8  A    between atoms: N4_29  and  C17_31
REMARK    9  A    between atoms: C17_31  and  C18_32
REMARK   10  A    between atoms: C18_32  and  N5_33
REMARK   11  A    between atoms: N5_33  and  C20_35
REMARK   12  A    between atoms: C20_35  and  C21_36
REMARK   13  A    between atoms: C21_36  and  N6_37
REMARK   14  A    between atoms: N6_37  and  C22_39
REMARK   15  A    between atoms: C22_39  and  C23_40
ROOT
HETATM    1  C5  UNL     1      12.843  23.023   5.691  1.00  0.00     0.087 C
HETATM    2  C6  UNL     1      12.104  21.873   6.287  1.00  0.00     0.015 C
HETATM    3  C7  UNL     1      13.014  20.664   6.216  1.00  0.00     0.007 C
HETATM    4  C8  UNL     1      14.353  21.178   5.770  1.00  0.00    -0.001 C
HETATM    5  C9  UNL     1      15.207  20.159   5.056  1.00  0.00    -0.002 C
HETATM    6  C10 UNL     1      14.452  18.860   5.051  1.00  0.00     0.033 C
HETATM    7  C11 UNL     1      15.262  17.666   4.684  1.00  0.00    -0.019 C
HETATM    8  C12 UNL     1      16.469  17.532   4.139  1.00  0.00    -0.019 C
HETATM    9  C13 UNL     1      17.467  16.593   3.679  1.00  0.00     0.270 C
HETATM   10  N3  UNL     1      17.882  17.640   2.730  1.00  0.00    -0.055 N
ATOM     11  H31 UNL     1      17.573  17.636   1.758  1.00  0.00     0.279 HD
ATOM     12  H32 UNL     1      18.841  17.704   2.388  1.00  0.00     0.279 HD
HETATM   13  C14 UNL     1      17.329  18.631   3.737  1.00  0.00     0.174 C
HETATM   14  C27 UNL     1      16.483  19.626   2.916  1.00  0.00     0.053 C
HETATM   15  C28 UNL     1      15.795  20.626   3.800  1.00  0.00    -0.007 C
HETATM   16  C29 UNL     1      14.878  21.418   2.903  1.00  0.00     0.006 C
HETATM   17  C30 UNL     1      13.637  21.938   3.593  1.00  0.00     0.011 C
HETATM   18  C31 UNL     1      13.994  22.393   4.956  1.00  0.00    -0.028 C
HETATM   19  C32 UNL     1      15.113  23.421   4.964  1.00  0.00     0.016 C
ENDROOT
BRANCH  13  20
HETATM   20  C15 UNL     1      18.481  19.205   4.386  1.00  0.00     0.090 C
BRANCH  20  21
HETATM   21  C16 UNL     1      18.564  19.351   5.836  1.00  0.00     0.240 C
HETATM   22  O4  UNL     1      18.790  18.417   6.615  1.00  0.00    -0.269 OA
HETATM   23  N4  UNL     1      18.380  20.645   6.454  1.00  0.00    -0.356 N
ATOM     24  H4  UNL     1      18.200  21.441   5.842  1.00  0.00     0.162 HD
BRANCH  23  25
HETATM   25  C17 UNL     1      18.433  20.887   7.854  1.00  0.00     0.153 C
BRANCH  25  26
HETATM   26  C18 UNL     1      17.129  21.399   8.377  1.00  0.00     0.291 C
BRANCH  26  27
HETATM   27  N5  UNL     1      16.379  20.370   9.061  1.00  0.00     0.087 N
HETATM   28  C19 UNL     1      15.169  20.947   9.622  1.00  0.00     0.310 C
BRANCH  27  29
HETATM   29  C20 UNL     1      17.149  19.818  10.139  1.00  0.00     0.291 C
BRANCH  29  30
HETATM   30  C21 UNL     1      17.100  18.330  10.268  1.00  0.00     0.149 C
BRANCH  30  31
HETATM   31  N6  UNL     1      17.884  17.619   9.332  1.00  0.00    -0.399 N
ATOM     32  H6  UNL     1      17.914  17.921   8.359  1.00  0.00     0.158 HD
BRANCH  31  33
HETATM   33  C22 UNL     1      18.623  16.494   9.743  1.00  0.00     0.088 C
BRANCH  33  34
HETATM   34  C23 UNL     1      18.899  15.433   8.737  1.00  0.00     0.223 C
HETATM   35  C24 UNL     1      20.395  15.499   8.437  1.00  0.00     0.040 C
HETATM   36  C25 UNL     1      20.559  15.117   6.999  1.00  0.00     0.030 C
HETATM   37  C26 UNL     1      19.115  14.803   6.597  1.00  0.00     0.233 C
HETATM   38  N7  UNL     1      18.381  15.765   7.406  1.00  0.00    -0.066 N
ATOM     39  H72 UNL     1      17.367  15.745   7.308  1.00  0.00     0.278 HD
ATOM     40  H71 UNL     1      18.473  16.741   7.126  1.00  0.00     0.278 HD
ENDBRANCH  33  34
ENDBRANCH  31  33
ENDBRANCH  30  31
ENDBRANCH  29  30
ENDBRANCH  27  29
ENDBRANCH  26  27
ENDBRANCH  25  26
ENDBRANCH  23  25
ENDBRANCH  20  21
ENDBRANCH  13  20
BRANCH   1  41
HETATM   41  C4  UNL     1      11.930  23.842   4.903  1.00  0.00     0.237 C
HETATM   42  N2  UNL     1      10.634  23.481   4.466  1.00  0.00    -0.237 N
ATOM     43  H2  UNL     1      10.285  22.556   4.719  1.00  0.00     0.183 HD
HETATM   44  O3  UNL     1      12.299  25.018   4.546  1.00  0.00    -0.272 OA
BRANCH  42  45
HETATM   45  S1  UNL     1       9.608  24.501   3.535  1.00  0.00     0.321 S
HETATM   46  O1  UNL     1      10.095  24.617   2.113  1.00  0.00    -0.182 OA
HETATM   47  O2  UNL     1       8.182  23.976   3.523  1.00  0.00    -0.182 OA
BRANCH  45  48
HETATM   48  N1  UNL     1       9.552  26.065   4.260  1.00  0.00    -0.302 N
ATOM     49  H1  UNL     1       9.981  26.903   3.867  1.00  0.00     0.173 HD
BRANCH  48  50
HETATM   50  C3  UNL     1       8.813  26.023   5.505  1.00  0.00     0.133 C
BRANCH  50  51
HETATM   51  C2  UNL     1       9.780  26.293   6.640  1.00  0.00     0.016 C
HETATM   52  C1  UNL     1       9.770  25.139   7.626  1.00  0.00     0.006 C
ENDBRANCH  50  51
ENDBRANCH  48  50
ENDBRANCH  45  48
ENDBRANCH  42  45
ENDBRANCH   1  41
TORSDOF 15
ENDMDL