MODEL 4
REMARK VINA RESULT: -7.193006052      5.165     14.127
REMARK  18 active torsions:
REMARK  status: ('A' for Active; 'I' for Inactive)
REMARK    1  A    between atoms: C2_2  and  N1_3
REMARK    2  A    between atoms: N1_3  and  C3_4
REMARK       I    between atoms: N1_3  and  C5_6
REMARK    3  A    between atoms: C5_6  and  C6_8
REMARK    4  A    between atoms: N2_20  and  C18_21
REMARK    5  A    between atoms: C18_21  and  C19_22
REMARK    6  A    between atoms: C19_22  and  N3_23
REMARK       I    between atoms: N3_23  and  C20_24
REMARK    7  A    between atoms: C20_24  and  C21_26
REMARK    8  A    between atoms: C21_26  and  C22_27
REMARK    9  A    between atoms: C22_27  and  C23_28
REMARK   10  A    between atoms: C22_27  and  N5_36
REMARK   11  A    between atoms: C23_28  and  C24_29
REMARK   12  A    between atoms: C24_29  and  N4_30
REMARK   13  A    between atoms: C24_29  and  O3_34
REMARK   14  A    between atoms: N5_36  and  C25_38
REMARK   15  A    between atoms: C25_38  and  C26_39
REMARK   16  A    between atoms: C26_39  and  N6_40
REMARK   17  A    between atoms: C26_39  and  C27_44
REMARK   18  A    between atoms: C27_44  and  C28_45
ROOT
HETATM    1  C18 UNL     1      17.156  20.148   8.054  1.00  0.00     0.128 C
ENDROOT
BRANCH   1   2
HETATM    2  N2  UNL     1      18.221  19.386   8.497  1.00  0.00    -0.289 NA
HETATM    3  C17 UNL     1      18.710  18.370   7.652  1.00  0.00     0.064 C
HETATM    4  C16 UNL     1      18.506  17.123   8.392  1.00  0.00    -0.051 C
HETATM    5  C14 UNL     1      19.129  15.845   7.997  1.00  0.00    -0.014 C
HETATM    6  C30 UNL     1      18.531  17.458   9.819  1.00  0.00    -0.007 C
HETATM    7  C13 UNL     1      20.561  15.613   8.087  1.00  0.00     0.020 C
HETATM    8  C15 UNL     1      18.741  15.625   6.523  1.00  0.00     0.020 C
HETATM    9  C34 UNL     1      18.396  14.762   8.782  1.00  0.00     0.006 C
HETATM   10  C12 UNL     1      20.634  14.069   8.166  1.00  0.00     0.008 C
HETATM   11  C6  UNL     1      21.910  13.678   8.781  1.00  0.00     0.083 C
HETATM   12  C10 UNL     1      19.344  13.579   8.674  1.00  0.00    -0.035 C
HETATM   13  C7  UNL     1      21.861  13.050  10.108  1.00  0.00     0.014 C
HETATM   14  C8  UNL     1      20.553  12.794  10.746  1.00  0.00     0.002 C
HETATM   15  C9  UNL     1      19.365  12.723   9.884  1.00  0.00     0.010 C
HETATM   16  C11 UNL     1      18.733  12.692   7.569  1.00  0.00     0.016 C
HETATM   17  C33 UNL     1      18.001  15.108  10.158  1.00  0.00     0.007 C
HETATM   18  C32 UNL     1      17.538  16.495  10.439  1.00  0.00     0.015 C
HETATM   19  C29 UNL     1      18.081  18.882   9.847  1.00  0.00     0.108 C
HETATM   20  C31 UNL     1      19.818  17.388  10.579  1.00  0.00     0.021 C
BRANCH  11  21
HETATM   21  C5  UNL     1      22.803  12.932   7.838  1.00  0.00     0.224 C
HETATM   22  N1  UNL     1      23.731  13.498   6.942  1.00  0.00    -0.353 N
HETATM   23  O1  UNL     1      22.733  11.641   7.827  1.00  0.00    -0.273 OA
BRANCH  22  24
HETATM   24  C2  UNL     1      24.520  12.631   6.048  1.00  0.00     0.121 C
HETATM   25  C1  UNL     1      25.969  12.637   6.418  1.00  0.00     0.026 C
ENDBRANCH  22  24
BRANCH  22  26
HETATM   26  C3  UNL     1      23.940  14.900   6.816  1.00  0.00     0.121 C
HETATM   27  C4  UNL     1      23.415  15.432   5.516  1.00  0.00     0.026 C
ENDBRANCH  22  26
ENDBRANCH  11  21
ENDBRANCH   1   2
BRANCH   1  28
HETATM   28  C19 UNL     1      16.010  20.488   8.968  1.00  0.00     0.236 C
BRANCH  28  29
HETATM   29  N3  UNL     1      15.046  21.208   8.228  1.00  0.00    -0.414 NA
HETATM   30  C20 UNL     1      14.120  21.883   7.530  1.00  0.00     0.288 C
HETATM   31  O2  UNL     1      12.908  21.637   7.401  1.00  0.00    -0.258 OA
BRANCH  30  32
HETATM   32  C21 UNL     1      14.555  23.137   6.748  1.00  0.00     0.144 C
BRANCH  32  33
HETATM   33  C22 UNL     1      14.881  22.743   5.353  1.00  0.00     0.094 C
BRANCH  33  34
HETATM   34  C23 UNL     1      13.695  23.038   4.458  1.00  0.00     0.086 C
BRANCH  34  35
HETATM   35  C24 UNL     1      13.191  24.431   4.750  1.00  0.00     0.318 C
BRANCH  35  36
HETATM   36  N4  UNL     1      11.846  24.605   4.263  1.00  0.00    -0.053 N
ATOM     37  H43 UNL     1      11.289  25.181   4.893  1.00  0.00     0.277 HD
ATOM     38  H42 UNL     1      11.819  25.205   3.439  1.00  0.00     0.277 HD
ATOM     39  H41 UNL     1      11.403  23.703   4.086  1.00  0.00     0.277 HD
ENDBRANCH  35  36
BRANCH  35  40
HETATM   40  O3  UNL     1      14.092  25.394   4.419  1.00  0.00    -0.370 OA
ATOM     41  H3  UNL     1      14.991  25.115   4.554  1.00  0.00     0.212 HD
ENDBRANCH  35  40
ENDBRANCH  34  35
ENDBRANCH  33  34
BRANCH  33  42
HETATM   42  N5  UNL     1      15.142  21.309   5.245  1.00  0.00    -0.395 N
ATOM     43  H5  UNL     1      15.257  20.723   6.072  1.00  0.00     0.159 HD
BRANCH  42  44
HETATM   44  C25 UNL     1      15.226  20.780   3.951  1.00  0.00     0.089 C
BRANCH  44  45
HETATM   45  C26 UNL     1      16.144  19.591   3.825  1.00  0.00     0.231 C
BRANCH  45  46
HETATM   46  N6  UNL     1      16.019  18.657   4.917  1.00  0.00    -0.070 N
ATOM     47  H63 UNL     1      15.798  19.143   5.786  1.00  0.00     0.275 HD
ATOM     48  H62 UNL     1      15.173  18.096   4.819  1.00  0.00     0.275 HD
ATOM     49  H61 UNL     1      16.838  18.060   5.031  1.00  0.00     0.275 HD
ENDBRANCH  45  46
BRANCH  45  50
HETATM   50  C27 UNL     1      15.975  18.855   2.514  1.00  0.00     0.151 C
BRANCH  50  51
HETATM   51  C28 UNL     1      17.219  18.085   2.184  1.00  0.00     0.174 C
HETATM   52  O4  UNL     1      18.289  18.619   2.626  1.00  0.00    -0.648 OA
HETATM   53  O5  UNL     1      17.245  16.910   1.477  1.00  0.00    -0.648 OA
ENDBRANCH  50  51
ENDBRANCH  45  50
ENDBRANCH  44  45
ENDBRANCH  42  44
ENDBRANCH  33  42
ENDBRANCH  32  33
ENDBRANCH  30  32
ENDBRANCH  28  29
ENDBRANCH   1  28
TORSDOF 18
ENDMDL