MODEL 2
REMARK VINA RESULT: 0.515970154      6.428      7.569
REMARK  7 active torsions:
REMARK  status: ('A' for Active; 'I' for Inactive)
REMARK    1  A    between atoms: C3_6  and  C4_7
REMARK    2  A    between atoms: C5_8  and  C6_9
REMARK    3  A    between atoms: C6_9  and  C7_10
REMARK    4  A    between atoms: C7_10  and  O1_11
REMARK    5  A    between atoms: O1_11  and  C8_12
REMARK    6  A    between atoms: C9_19  and  C10_20
REMARK    7  A    between atoms: C11_21  and  C12_22
ROOT
HETATM    1  N1  UNL     1      24.783  32.310  25.501  1.00  0.00    -0.190 NA
HETATM    2  C1  UNL     1      25.164  32.530  24.442  1.00  0.00     0.120 C
HETATM    3  C2  UNL     1      25.620  32.819  23.111  1.00  0.00     0.151 A
HETATM    4  N2  UNL     1      24.929  33.555  22.234  1.00  0.00    -0.324 N
ATOM      5  H2  UNL     1      24.022  33.986  22.405  1.00  0.00     0.169 HD
HETATM    6  C3  UNL     1      25.633  33.632  21.089  1.00  0.00     0.163 A
HETATM    7  N5  UNL     1      26.773  32.931  21.266  1.00  0.00    -0.326 N
ATOM      8  H5  UNL     1      27.502  32.815  20.561  1.00  0.00     0.169 HD
HETATM    9  C9  UNL     1      26.811  32.409  22.502  1.00  0.00     0.127 A
ENDROOT
BRANCH   9  10
HETATM   10  C10 UNL     1      27.828  31.598  23.120  1.00  0.00    -0.043 C
HETATM   11  C11 UNL     1      28.667  30.914  23.654  1.00  0.00    -0.068 C
BRANCH  11  12
HETATM   12  C12 UNL     1      29.679  30.072  24.324  1.00  0.00     0.316 C
HETATM   13  F1  UNL     1      29.735  30.365  25.665  1.00  0.00    -0.242 F
ENDBRANCH  11  12
ENDBRANCH   9  10
BRANCH   6  14
HETATM   14  C4  UNL     1      25.265  34.327  19.875  1.00  0.00    -0.030 C
HETATM   15  C5  UNL     1      24.945  34.922  18.869  1.00  0.00    -0.096 C
BRANCH  15  16
HETATM   16  C6  UNL     1      24.546  35.666  17.660  1.00  0.00     0.121 C
BRANCH  16  17
HETATM   17  C7  UNL     1      25.781  36.231  17.036  1.00  0.00     0.190 C
BRANCH  17  18
HETATM   18  O1  UNL     1      26.781  35.235  16.863  1.00  0.00    -0.324 OA
BRANCH  18  19
HETATM   19  C8  UNL     1      26.801  34.485  15.699  1.00  0.00     0.225 C
HETATM   20  N3  UNL     1      25.695  34.138  15.128  1.00  0.00    -0.368 N
ATOM     21  H32 UNL     1      24.801  34.417  15.534  1.00  0.00     0.159 HD
ATOM     22  H31 UNL     1      25.710  33.586  14.271  1.00  0.00     0.159 HD
HETATM   23  N4  UNL     1      28.041  34.098  15.135  1.00  0.00    -0.057 NA
ENDBRANCH  18  19
ENDBRANCH  17  18
ENDBRANCH  16  17
ENDBRANCH  15  16
ENDBRANCH   6  14
TORSDOF 7
ENDMDL