MODEL 3
REMARK VINA RESULT: -3.278644342     15.676     18.174
REMARK  3 active torsions:
REMARK  status: ('A' for Active; 'I' for Inactive)
REMARK    1  A    between atoms: N1_2  and  C2_4
REMARK    2  A    between atoms: C3_7  and  C4_8
REMARK    3  A    between atoms: N5_17  and  C9_19
ROOT
HETATM    1  C9  UNL     1      30.545  23.725  19.920  1.00  0.00     0.245 C
HETATM    2  C10 UNL     1      30.977  23.750  21.336  1.00  0.00     0.078 C
HETATM    3  N6  UNL     1      31.309  23.779  22.445  1.00  0.00    -0.196 NA
ENDROOT
BRANCH   1   4
HETATM    4  N5  UNL     1      31.755  23.780  19.128  1.00  0.00    -0.363 N
HETATM    5  C8  UNL     1      31.753  24.492  18.052  1.00  0.00     0.119 A
HETATM    6  C7  UNL     1      30.621  25.192  17.658  1.00  0.00     0.081 A
HETATM    7  N7  UNL     1      32.858  24.586  17.263  1.00  0.00    -0.177 N
HETATM    8  C3  UNL     1      30.582  25.962  16.516  1.00  0.00     0.081 A
HETATM    9  N2  UNL     1      31.709  26.011  15.782  1.00  0.00    -0.190 N
HETATM   10  C2  UNL     1      32.822  25.336  16.150  1.00  0.00     0.679 A
ATOM     11  H2  UNL     1      31.724  26.570  14.929  1.00  0.00     0.184 HD
ATOM     12  H7  UNL     1      33.711  24.088  17.517  1.00  0.00     0.185 HD
ATOM     13  H5  UNL     1      32.589  23.267  19.413  1.00  0.00     0.162 HD
BRANCH   8  14
HETATM   14  C4  UNL     1      29.395  26.697  16.102  1.00  0.00     0.076 A
HETATM   15  C5  UNL     1      29.360  27.782  15.253  1.00  0.00     0.052 A
HETATM   16  C6  UNL     1      28.040  28.169  15.130  1.00  0.00     0.109 A
HETATM   17  N3  UNL     1      27.301  27.340  15.883  1.00  0.00    -0.311 N
HETATM   18  N4  UNL     1      28.117  26.485  16.442  1.00  0.00    -0.299 N
ATOM     19  H3  UNL     1      26.288  27.371  15.998  1.00  0.00     0.186 HD
ATOM     20  H4  UNL     1      27.814  25.739  17.068  1.00  0.00     0.187 HD
ENDBRANCH   8  14
BRANCH  10  21
HETATM   21  N1  UNL     1      33.855  25.439  15.389  1.00  0.00    -0.230 N
HETATM   22  C1  UNL     1      34.854  24.430  15.237  1.00  0.00     0.165 C
ATOM     23  H1  UNL     1      33.967  26.302  14.857  1.00  0.00     0.177 HD
ENDBRANCH  10  21
ENDBRANCH   1   4
TORSDOF 3
ENDMDL