MODEL 1
REMARK VINA RESULT: -4.457249271      0.000      0.000
REMARK  3 active torsions:
REMARK  status: ('A' for Active; 'I' for Inactive)
REMARK    1  A    between atoms: N1_2  and  C2_4
REMARK    2  A    between atoms: N4_11  and  C5_13
REMARK    3  A    between atoms: C5_13  and  C6_14
ROOT
HETATM    1  C6  UNL     1      29.882  33.069  22.683  1.00  0.00     0.106 C
HETATM    2  C7  UNL     1      31.349  33.239  22.373  1.00  0.00     0.027 C
HETATM    3  C8  UNL     1      29.591  33.730  23.957  1.00  0.00     0.065 C
HETATM    4  N5  UNL     1      29.376  34.253  24.959  1.00  0.00    -0.197 NA
ENDROOT
BRANCH   1   5
HETATM    5  C5  UNL     1      29.639  31.557  22.822  1.00  0.00     0.140 C
BRANCH   5   6
HETATM    6  N4  UNL     1      28.876  31.353  23.979  1.00  0.00    -0.373 N
HETATM    7  C4  UNL     1      27.721  31.565  24.356  1.00  0.00     0.133 A
HETATM    8  C3  UNL     1      26.745  32.155  23.592  1.00  0.00     0.122 A
HETATM    9  N6  UNL     1      27.366  31.191  25.629  1.00  0.00    -0.337 N
HETATM   10  N3  UNL     1      26.740  32.640  22.317  1.00  0.00    -0.293 N
HETATM   11  C10 UNL     1      25.471  32.368  24.061  1.00  0.00     0.111 A
HETATM   12  N2  UNL     1      25.537  33.121  22.022  1.00  0.00    -0.283 N
ATOM     13  H3  UNL     1      27.540  32.635  21.684  1.00  0.00     0.187 HD
HETATM   14  C2  UNL     1      24.739  32.967  23.074  1.00  0.00     0.145 A
ATOM     15  H2  UNL     1      25.268  33.541  21.132  1.00  0.00     0.188 HD
HETATM   16  N7  UNL     1      25.192  31.973  25.329  1.00  0.00    -0.347 N
HETATM   17  C9  UNL     1      26.129  31.393  26.097  1.00  0.00     0.182 A
ATOM     18  H7  UNL     1      24.254  32.119  25.705  1.00  0.00     0.167 HD
ATOM     19  H6  UNL     1      28.061  30.750  26.232  1.00  0.00     0.168 HD
ATOM     20  H4  UNL     1      29.428  30.906  24.711  1.00  0.00     0.161 HD
BRANCH  14  21
HETATM   21  N1  UNL     1      23.497  33.289  23.230  1.00  0.00    -0.378 N
HETATM   22  C1  UNL     1      23.062  34.358  24.104  1.00  0.00     0.148 C
ATOM     23  H1  UNL     1      22.790  32.766  22.714  1.00  0.00     0.160 HD
ENDBRANCH  14  21
ENDBRANCH   5   6
ENDBRANCH   1   5
TORSDOF 3
ENDMDL