MODEL 1
REMARK VINA RESULT: -5.930265218      0.000      0.000
REMARK  3 active torsions:
REMARK  status: ('A' for Active; 'I' for Inactive)
REMARK    1  A    between atoms: C2_2  and  C3_3
REMARK    2  A    between atoms: C3_3  and  C5_5
REMARK    3  A    between atoms: N5_21  and  O2_22
ROOT
HETATM    1  C5  UNL     1      27.819  32.288  25.301  1.00  0.00     0.078 A
HETATM    2  C6  UNL     1      27.409  32.545  23.997  1.00  0.00     0.107 A
HETATM    3  N1  UNL     1      26.337  31.994  23.469  1.00  0.00    -0.188 N
ATOM      4  H1  UNL     1      25.794  31.397  24.092  1.00  0.00     0.184 HD
HETATM    5  C7  UNL     1      25.864  32.116  22.212  1.00  0.00     0.679 A
HETATM    6  N2  UNL     1      24.892  31.587  21.637  1.00  0.00    -0.234 N
ATOM      7  H21 UNL     1      24.534  31.679  20.686  1.00  0.00     0.174 HD
ATOM      8  H22 UNL     1      24.318  30.973  22.215  1.00  0.00     0.174 HD
HETATM    9  N3  UNL     1      26.656  32.963  21.414  1.00  0.00    -0.154 N
ATOM     10  H3  UNL     1      26.384  33.130  20.445  1.00  0.00     0.187 HD
HETATM   11  C8  UNL     1      27.736  33.543  21.885  1.00  0.00     0.288 A
HETATM   12  O1  UNL     1      28.401  34.310  21.084  1.00  0.00    -0.265 OA
HETATM   13  C9  UNL     1      28.178  33.374  23.181  1.00  0.00     0.132 A
HETATM   14  N4  UNL     1      29.314  33.920  23.648  1.00  0.00    -0.344 N
ATOM     15  H4  UNL     1      29.880  34.524  23.050  1.00  0.00     0.167 HD
HETATM   16  C10 UNL     1      29.696  33.665  24.909  1.00  0.00     0.214 A
HETATM   17  N5  UNL     1      28.962  32.861  25.724  1.00  0.00    -0.222 N
ENDROOT
BRANCH   1  18
HETATM   18  C3  UNL     1      26.991  31.527  26.172  1.00  0.00     0.058 C
HETATM   19  C4  UNL     1      25.519  32.016  25.960  1.00  0.00     0.021 C
BRANCH  18  20
HETATM   20  C2  UNL     1      26.852  30.074  25.645  1.00  0.00    -0.026 C
HETATM   21  C1  UNL     1      25.710  29.727  25.011  1.00  0.00     0.007 C
ENDBRANCH  18  20
ENDBRANCH   1  18
BRANCH  17  22
HETATM   22  O2  UNL     1      29.450  32.773  26.987  1.00  0.00    -0.282 OA
ATOM     23  H2  UNL     1      29.603  33.515  27.561  1.00  0.00     0.245 HD
ENDBRANCH  17  22
TORSDOF 3
ENDMDL