MODEL 4
REMARK VINA RESULT: -3.716693687      1.626      4.653
REMARK  4 active torsions:
REMARK  status: ('A' for Active; 'I' for Inactive)
REMARK    1  A    between atoms: C3_3  and  N1_4
REMARK    2  A    between atoms: N1_4  and  C4_6
REMARK    3  A    between atoms: C7_13  and  N4_14
REMARK    4  A    between atoms: N4_14  and  C8_16
ROOT
HETATM    1  C1  UNL     1      25.588  29.694  24.393  1.00  0.00     0.014 C
HETATM    2  C2  UNL     1      26.075  30.386  25.254  1.00  0.00    -0.098 C
HETATM    3  C3  UNL     1      26.656  31.251  26.305  1.00  0.00     0.215 C
ENDROOT
BRANCH   3   4
HETATM    4  N1  UNL     1      27.761  31.997  25.836  1.00  0.00    -0.363 N
ATOM      5  H1  UNL     1      28.016  32.783  26.433  1.00  0.00     0.162 HD
BRANCH   4   6
HETATM    6  C4  UNL     1      28.486  31.870  24.817  1.00  0.00     0.146 A
HETATM    7  N2  UNL     1      29.375  30.845  24.793  1.00  0.00    -0.348 N
HETATM    8  C5  UNL     1      30.192  30.625  23.754  1.00  0.00     0.107 A
ATOM      9  H2  UNL     1      29.422  30.217  25.596  1.00  0.00     0.167 HD
HETATM   10  C6  UNL     1      30.097  31.491  22.693  1.00  0.00     0.107 A
HETATM   11  N3  UNL     1      29.225  32.511  22.696  1.00  0.00    -0.348 N
HETATM   12  C7  UNL     1      28.414  32.718  23.742  1.00  0.00     0.151 A
ATOM     13  H3  UNL     1      29.177  33.136  21.892  1.00  0.00     0.167 HD
BRANCH  12  14
HETATM   14  N4  UNL     1      27.600  33.716  23.682  1.00  0.00    -0.326 N
ATOM     15  H4  UNL     1      27.981  34.657  23.785  1.00  0.00     0.169 HD
BRANCH  14  16
HETATM   16  C8  UNL     1      26.212  33.576  23.482  1.00  0.00     0.106 A
HETATM   17  C9  UNL     1      25.683  32.758  22.493  1.00  0.00     0.048 A
HETATM   18  C10 UNL     1      24.328  32.620  22.295  1.00  0.00     0.005 A
HETATM   19  C11 UNL     1      23.462  33.321  23.113  1.00  0.00     0.017 A
HETATM   20  C12 UNL     1      23.994  34.138  24.101  1.00  0.00     0.089 A
HETATM   21  N5  UNL     1      25.310  34.232  24.243  1.00  0.00    -0.352 N
ATOM     22  H5  UNL     1      25.665  34.841  24.979  1.00  0.00     0.166 HD
ENDBRANCH  14  16
ENDBRANCH  12  14
ENDBRANCH   4   6
ENDBRANCH   3   4
TORSDOF 4
ENDMDL