MODEL 2
REMARK VINA RESULT: -4.086912804      9.664     11.562
REMARK  3 active torsions:
REMARK  status: ('A' for Active; 'I' for Inactive)
REMARK    1  A    between atoms: C3_3  and  C4_4
REMARK    2  A    between atoms: C4_4  and  C5_5
REMARK    3  A    between atoms: C9_16  and  N5_17
ROOT
HETATM    1  C5  UNL     1      30.023  26.849  16.332  1.00  0.00     0.088 A
HETATM    2  N1  UNL     1      29.534  25.914  17.225  1.00  0.00    -0.332 N
ATOM      3  H1  UNL     1      28.533  25.903  17.423  1.00  0.00     0.168 HD
HETATM    4  C6  UNL     1      30.313  25.032  17.834  1.00  0.00     0.147 A
HETATM    5  N2  UNL     1      29.871  24.049  18.759  1.00  0.00    -0.080 NA
HETATM    6  C7  UNL     1      31.661  25.087  17.531  1.00  0.00     0.105 A
HETATM    7  N3  UNL     1      32.532  24.225  18.101  1.00  0.00    -0.348 N
ATOM      8  H3  UNL     1      32.168  23.537  18.760  1.00  0.00     0.167 HD
HETATM    9  C8  UNL     1      33.848  24.226  17.848  1.00  0.00     0.182 A
HETATM   10  N4  UNL     1      34.358  25.114  16.989  1.00  0.00    -0.337 N
ATOM     11  H4  UNL     1      35.360  25.117  16.792  1.00  0.00     0.168 HD
HETATM   12  C9  UNL     1      33.533  26.020  16.372  1.00  0.00     0.129 A
HETATM   13  C10 UNL     1      32.196  26.022  16.628  1.00  0.00     0.110 A
HETATM   14  N6  UNL     1      31.329  26.911  16.032  1.00  0.00    -0.336 N
HETATM   15  C11 UNL     1      31.881  27.864  15.128  1.00  0.00     0.158 C
ENDROOT
BRANCH   1  16
HETATM   16  C4  UNL     1      29.029  27.777  15.718  1.00  0.00     0.103 C
BRANCH  16  17
HETATM   17  C3  UNL     1      27.660  27.212  15.739  1.00  0.00    -0.024 C
HETATM   18  C2  UNL     1      26.600  27.912  15.490  1.00  0.00    -0.035 C
HETATM   19  C1  UNL     1      26.500  29.343  15.151  1.00  0.00     0.036 C
ENDBRANCH  16  17
ENDBRANCH   1  16
BRANCH  12  20
HETATM   20  N5  UNL     1      34.065  26.850  15.555  1.00  0.00    -0.384 N
ATOM     21  H52 UNL     1      34.709  27.576  15.868  1.00  0.00     0.157 HD
ATOM     22  H51 UNL     1      33.821  26.765  14.568  1.00  0.00     0.157 HD
ENDBRANCH  12  20
TORSDOF 3
ENDMDL