MODEL 1
REMARK VINA RESULT: -5.310965836      0.000      0.000
REMARK  5 active torsions:
REMARK  status: ('A' for Active; 'I' for Inactive)
REMARK    1  A    between atoms: N1_2  and  C2_4
REMARK    2  A    between atoms: C2_4  and  N2_6
REMARK    3  A    between atoms: N2_6  and  C4_8
REMARK    4  A    between atoms: C4_8  and  C5_9
REMARK    5  A    between atoms: C6_12  and  N4_13
ROOT
HETATM    1  C5  UNL     1      27.044  33.060  22.768  1.00  0.00     0.107 A
HETATM    2  N3  UNL     1      26.010  33.616  23.348  1.00  0.00    -0.324 N
ATOM      3  H3  UNL     1      26.139  34.391  23.998  1.00  0.00     0.169 HD
HETATM    4  C6  UNL     1      24.803  33.164  23.081  1.00  0.00     0.160 A
HETATM    5  S2  UNL     1      25.131  31.909  21.975  1.00  0.00     0.024 SA
HETATM    6  N5  UNL     1      26.805  32.047  21.926  1.00  0.00    -0.312 N
ATOM      7  H5  UNL     1      27.474  31.496  21.388  1.00  0.00     0.175 HD
ENDROOT
BRANCH   1   8
HETATM    8  C4  UNL     1      28.450  33.580  23.077  1.00  0.00     0.201 C
BRANCH   8   9
HETATM    9  N2  UNL     1      28.773  33.285  24.428  1.00  0.00    -0.356 N
HETATM   10  C3  UNL     1      29.331  34.329  25.258  1.00  0.00     0.152 C
BRANCH   9  11
HETATM   11  C2  UNL     1      28.538  31.999  24.967  1.00  0.00     0.169 C
HETATM   12  S1  UNL     1      29.214  30.659  24.254  1.00  0.00    -0.041 SA
BRANCH  11  13
HETATM   13  N1  UNL     1      27.743  31.725  26.109  1.00  0.00    -0.371 N
HETATM   14  C1  UNL     1      26.375  31.323  26.068  1.00  0.00     0.148 C
ATOM     15  H1  UNL     1      28.181  31.822  27.026  1.00  0.00     0.161 HD
ENDBRANCH  11  13
ENDBRANCH   9  11
ENDBRANCH   8   9
ENDBRANCH   1   8
BRANCH   4  16
HETATM   16  N4  UNL     1      23.663  33.603  23.571  1.00  0.00    -0.379 N
ATOM     17  H42 UNL     1      23.163  33.352  24.424  1.00  0.00     0.158 HD
ATOM     18  H41 UNL     1      23.048  34.307  23.164  1.00  0.00     0.158 HD
ENDBRANCH   4  16
TORSDOF 5
ENDMDL