MODEL 5
REMARK VINA RESULT: -2.939211311      9.762     10.201
REMARK  3 active torsions:
REMARK  status: ('A' for Active; 'I' for Inactive)
REMARK    1  A    between atoms: N1_2  and  C2_4
REMARK    2  A    between atoms: C8_17  and  C9_18
REMARK    3  A    between atoms: N5_19  and  O2_21
ROOT
HETATM    1  C2  UNL     1      28.031  32.511  25.176  1.00  0.00     0.114 A
HETATM    2  N2  UNL     1      26.833  32.396  25.803  1.00  0.00    -0.326 N
ATOM      3  H2  UNL     1      26.821  32.181  26.800  1.00  0.00     0.169 HD
HETATM    4  C3  UNL     1      25.677  32.553  25.172  1.00  0.00     0.138 A
HETATM    5  N3  UNL     1      24.379  32.480  25.578  1.00  0.00    -0.282 N
ATOM      6  H3  UNL     1      24.073  32.278  26.529  1.00  0.00     0.188 HD
HETATM    7  N4  UNL     1      23.587  32.709  24.568  1.00  0.00    -0.264 N
ATOM      8  H4  UNL     1      22.567  32.717  24.591  1.00  0.00     0.190 HD
HETATM    9  C4  UNL     1      24.381  32.938  23.463  1.00  0.00     0.274 A
HETATM   10  O1  UNL     1      23.946  33.188  22.331  1.00  0.00    -0.266 OA
HETATM   11  C5  UNL     1      25.697  32.839  23.846  1.00  0.00     0.086 A
HETATM   12  C6  UNL     1      26.894  32.976  23.127  1.00  0.00    -0.027 A
HETATM   13  C7  UNL     1      26.868  33.325  21.722  1.00  0.00     0.050 C
HETATM   14  C8  UNL     1      28.091  32.811  23.790  1.00  0.00     0.032 A
ENDROOT
BRANCH  14  15
HETATM   15  C9  UNL     1      29.407  32.920  23.234  1.00  0.00     0.132 C
HETATM   16  N5  UNL     1      30.367  32.269  22.808  1.00  0.00    -0.276 N
HETATM   17  C10 UNL     1      31.571  33.095  22.314  1.00  0.00     0.184 C
BRANCH  16  18
HETATM   18  O2  UNL     1      30.663  30.967  22.675  1.00  0.00    -0.288 OA
ATOM     19  H2  UNL     1      31.457  30.445  22.684  1.00  0.00     0.244 HD
ENDBRANCH  16  18
ENDBRANCH  14  15
BRANCH   1  20
HETATM   20  N1  UNL     1      29.138  32.293  26.013  1.00  0.00    -0.380 N
HETATM   21  C1  UNL     1      29.824  33.407  26.686  1.00  0.00     0.147 C
ATOM     22  H1  UNL     1      29.474  31.341  26.158  1.00  0.00     0.160 HD
ENDBRANCH   1  20
TORSDOF 3
ENDMDL