MODEL 4
REMARK VINA RESULT: -2.488090473      1.382      1.885
REMARK  4 active torsions:
REMARK  status: ('A' for Active; 'I' for Inactive)
REMARK    1  A    between atoms: C2_2  and  N1_3
REMARK    2  A    between atoms: N1_3  and  C3_5
REMARK    3  A    between atoms: C4_8  and  N3_9
REMARK    4  A    between atoms: N3_9  and  C5_11
ROOT
HETATM    1  C5  UNL     1      27.105  30.649  26.379  1.00  0.00     0.245 C
HETATM    2  C6  UNL     1      26.240  30.179  25.303  1.00  0.00     0.078 C
HETATM    3  N4  UNL     1      25.559  29.787  24.449  1.00  0.00    -0.196 NA
ENDROOT
BRANCH   1   4
HETATM    4  N3  UNL     1      27.747  31.901  26.016  1.00  0.00    -0.363 N
ATOM      5  H3  UNL     1      28.553  32.210  26.559  1.00  0.00     0.162 HD
BRANCH   4   6
HETATM    6  C4  UNL     1      27.345  32.635  25.042  1.00  0.00     0.130 A
HETATM    7  N2  UNL     1      26.097  33.156  24.960  1.00  0.00    -0.176 N
HETATM    8  C3  UNL     1      25.716  33.914  23.932  1.00  0.00     0.680 A
ATOM      9  H2  UNL     1      25.430  32.961  25.706  1.00  0.00     0.186 HD
HETATM   10  N6  UNL     1      26.578  34.176  22.949  1.00  0.00    -0.190 N
HETATM   11  C11 UNL     1      27.851  33.694  22.950  1.00  0.00     0.078 A
ATOM     12  H6  UNL     1      26.273  34.759  22.169  1.00  0.00     0.184 HD
HETATM   13  C7  UNL     1      28.232  32.909  24.023  1.00  0.00     0.038 A
HETATM   14  C10 UNL     1      28.743  33.964  21.934  1.00  0.00     0.118 A
HETATM   15  C8  UNL     1      29.530  32.431  24.001  1.00  0.00     0.034 A
HETATM   16  C9  UNL     1      30.416  32.707  22.978  1.00  0.00     0.088 A
HETATM   17  N5  UNL     1      30.009  33.478  21.946  1.00  0.00    -0.373 N
ATOM     18  H5  UNL     1      30.649  33.693  21.182  1.00  0.00     0.164 HD
BRANCH   8  19
HETATM   19  N1  UNL     1      24.537  34.390  23.883  1.00  0.00    -0.226 N
ATOM     20  H1  UNL     1      24.356  35.346  24.188  1.00  0.00     0.177 HD
BRANCH  19  21
HETATM   21  C2  UNL     1      23.454  33.567  23.391  1.00  0.00     0.133 C
HETATM   22  C1  UNL     1      24.052  32.550  22.445  1.00  0.00     0.027 C
ENDBRANCH  19  21
ENDBRANCH   8  19
ENDBRANCH   4   6
ENDBRANCH   1   4
TORSDOF 4
ENDMDL