MODEL 4
REMARK VINA RESULT: -3.343348087     10.039     11.194
REMARK  3 active torsions:
REMARK  status: ('A' for Active; 'I' for Inactive)
REMARK    1  A    between atoms: C4_5  and  N1_6
REMARK       I    between atoms: N1_6  and  C5_8
REMARK    2  A    between atoms: C6_15  and  C7_16
REMARK    3  A    between atoms: N5_17  and  O1_19
ROOT
HETATM    1  C1  UNL     1      31.668  33.245  22.285  1.00  0.00     0.018 C
HETATM    2  C2  UNL     1      30.508  33.109  22.593  1.00  0.00    -0.068 C
HETATM    3  C3  UNL     1      29.114  32.941  22.988  1.00  0.00     0.089 A
HETATM    4  S1  UNL     1      27.920  31.957  22.277  1.00  0.00    -0.043 SA
HETATM    5  C4  UNL     1      26.632  32.342  23.318  1.00  0.00     0.152 A
HETATM    6  N4  UNL     1      27.177  33.214  24.173  1.00  0.00    -0.334 N
ATOM      7  H4  UNL     1      26.620  33.620  24.924  1.00  0.00     0.168 HD
HETATM    8  C6  UNL     1      28.433  33.536  24.029  1.00  0.00     0.077 A
ENDROOT
BRANCH   8   9
HETATM    9  C7  UNL     1      29.152  34.489  24.908  1.00  0.00     0.145 C
HETATM   10  N5  UNL     1      29.638  34.281  26.048  1.00  0.00    -0.276 N
ATOM     11  H5  UNL     1      30.100  35.073  26.496  1.00  0.00     0.193 HD
BRANCH  10  12
HETATM   12  O1  UNL     1      29.617  33.139  26.737  1.00  0.00    -0.286 OA
HETATM   13  C8  UNL     1      30.550  32.801  27.752  1.00  0.00     0.237 C
ENDBRANCH  10  12
ENDBRANCH   8   9
BRANCH   5  14
HETATM   14  N1  UNL     1      25.390  31.901  23.307  1.00  0.00    -0.311 N
HETATM   15  C5  UNL     1      24.450  32.690  24.015  1.00  0.00     0.187 C
HETATM   16  N2  UNL     1      23.561  33.405  23.422  1.00  0.00    -0.373 N
HETATM   17  N3  UNL     1      24.504  32.680  25.431  1.00  0.00    -0.064 NA
ATOM     18  H22 UNL     1      23.523  33.411  22.402  1.00  0.00     0.158 HD
ATOM     19  H21 UNL     1      22.884  33.972  23.931  1.00  0.00     0.158 HD
ATOM     20  H1  UNL     1      25.123  31.046  22.819  1.00  0.00     0.170 HD
ENDBRANCH   5  14
TORSDOF 3
ENDMDL