MODEL 1
REMARK VINA RESULT: -6.035198673      0.000      0.000
REMARK  3 active torsions:
REMARK  status: ('A' for Active; 'I' for Inactive)
REMARK    1  A    between atoms: N3_11  and  C8_13
REMARK    2  A    between atoms: C8_13  and  C9_14
REMARK    3  A    between atoms: C9_14  and  O1_15
ROOT
HETATM    1  C1  UNL     1      13.808  44.045  15.581  1.00  0.00     0.044 C
HETATM    2  C2  UNL     1      12.367  44.070  16.027  1.00  0.00     0.231 C
HETATM    3  N1  UNL     1      11.519  44.816  15.154  1.00  0.00     0.093 N
HETATM    4  C3  UNL     1      11.896  44.808  13.782  1.00  0.00     0.310 C
HETATM    5  C4  UNL     1      10.173  44.241  15.369  1.00  0.00     0.313 C
HETATM    6  C5  UNL     1       9.805  44.741  16.728  1.00  0.00    -0.006 A
HETATM    7  C6  UNL     1       8.478  45.041  17.008  1.00  0.00     0.099 A
HETATM    8  N2  UNL     1       8.129  45.501  18.202  1.00  0.00    -0.351 N
ATOM      9  H2  UNL     1       7.149  45.715  18.386  1.00  0.00     0.166 HD
HETATM   10  C7  UNL     1       9.061  45.697  19.204  1.00  0.00     0.119 A
HETATM   11  N3  UNL     1       8.625  46.140  20.310  1.00  0.00    -0.373 N
ATOM     12  H3  UNL     1       7.616  46.291  20.294  1.00  0.00     0.161 HD
HETATM   13  C10 UNL     1      10.368  45.392  18.903  1.00  0.00     0.062 A
HETATM   14 BR1  UNL     1      11.708  45.645  20.208  1.00  0.00    -0.046 Br
HETATM   15  C11 UNL     1      10.792  44.905  17.665  1.00  0.00    -0.018 A
HETATM   16  C12 UNL     1      12.209  44.597  17.432  1.00  0.00     0.012 C
HETATM   17  C13 UNL     1      13.104  45.808  17.587  1.00  0.00     0.022 C
HETATM   18  C14 UNL     1      12.635  43.479  18.363  1.00  0.00     0.022 C
ENDROOT
BRANCH  11  19
HETATM   19  C8  UNL     1       9.186  46.471  21.540  1.00  0.00     0.147 C
BRANCH  19  20
HETATM   20  C9  UNL     1       9.295  48.001  21.728  1.00  0.00     0.183 C
BRANCH  20  21
HETATM   21  O1  UNL     1       8.152  48.396  22.418  1.00  0.00    -0.399 OA
ATOM     22  H1  UNL     1       8.370  49.211  22.854  1.00  0.00     0.209 HD
ENDBRANCH  20  21
ENDBRANCH  19  20
ENDBRANCH  11  19
TORSDOF 3
ENDMDL