MODEL 5
REMARK VINA RESULT: -5.133717882      4.455      8.535
REMARK  8 active torsions:
REMARK  status: ('A' for Active; 'I' for Inactive)
REMARK    1  A    between atoms: C2_2  and  C5_5
REMARK    2  A    between atoms: C6_6  and  C7_7
REMARK    3  A    between atoms: C8_8  and  C9_9
REMARK    4  A    between atoms: C9_9  and  O1_10
REMARK       I    between atoms: N1_16  and  C14_17
REMARK       I    between atoms: C14_17  and  N2_19
REMARK    5  A    between atoms: N2_19  and  C15_21
REMARK    6  A    between atoms: C15_21  and  C16_22
REMARK    7  A    between atoms: C16_22  and  C17_23
REMARK    8  A    between atoms: C18_25  and  O3_26
ROOT
HETATM    1  C9  UNL     1      14.217  45.197  17.805  1.00  0.00     0.149 C
HETATM    2  C10 UNL     1      12.997  45.905  18.293  1.00  0.00     0.080 C
HETATM    3  C11 UNL     1      12.145  44.733  18.784  1.00  0.00     0.101 C
HETATM    4  C12 UNL     1      12.397  43.672  17.739  1.00  0.00     0.059 C
HETATM    5  C13 UNL     1      11.121  44.216  17.121  1.00  0.00     0.137 C
HETATM    6  N1  UNL     1      10.775  44.793  18.399  1.00  0.00    -0.328 N
HETATM    7  C14 UNL     1       9.584  45.257  19.071  1.00  0.00     0.318 C
HETATM    8  O2  UNL     1       8.513  45.163  18.425  1.00  0.00    -0.247 OA
HETATM    9  N2  UNL     1       9.631  45.780  20.373  1.00  0.00    -0.343 N
ATOM     10  H2  UNL     1      10.530  45.827  20.851  1.00  0.00     0.164 HD
HETATM   11  C18 UNL     1      13.659  44.041  17.019  1.00  0.00     0.172 C
ENDROOT
BRANCH   1  12
HETATM   12  C8  UNL     1      15.006  46.069  16.932  1.00  0.00    -0.051 C
HETATM   13  C7  UNL     1      15.662  46.803  16.227  1.00  0.00    -0.012 C
BRANCH  13  14
HETATM   14  C6  UNL     1      16.431  47.680  15.420  1.00  0.00    -0.014 C
HETATM   15  C5  UNL     1      17.086  48.420  14.709  1.00  0.00    -0.084 C
BRANCH  15  16
HETATM   16  C2  UNL     1      17.856  49.311  13.838  1.00  0.00     0.013 C
HETATM   17  C1  UNL     1      17.698  48.856  12.420  1.00  0.00     0.028 C
HETATM   18  C3  UNL     1      17.379  50.724  14.063  1.00  0.00     0.028 C
HETATM   19  C4  UNL     1      19.349  49.235  14.184  1.00  0.00     0.028 C
ENDBRANCH  15  16
ENDBRANCH  13  14
ENDBRANCH   1  12
BRANCH   1  20
HETATM   20  O1  UNL     1      14.944  44.722  18.875  1.00  0.00    -0.375 OA
ATOM     21  H1  UNL     1      14.874  45.280  19.641  1.00  0.00     0.212 HD
ENDBRANCH   1  20
BRANCH  11  22
HETATM   22  O3  UNL     1      14.530  42.940  17.127  1.00  0.00    -0.391 OA
ATOM     23  H3  UNL     1      14.043  42.138  16.982  1.00  0.00     0.210 HD
ENDBRANCH  11  22
BRANCH   9  24
HETATM   24  C15 UNL     1       8.463  46.250  21.052  1.00  0.00     0.127 C
BRANCH  24  25
HETATM   25  C16 UNL     1       8.766  47.461  21.895  1.00  0.00     0.051 C
BRANCH  25  26
HETATM   26  C17 UNL     1       9.950  48.216  21.314  1.00  0.00     0.224 C
HETATM   27  F1  UNL     1       9.487  49.461  20.934  1.00  0.00    -0.255 F
ENDBRANCH  25  26
ENDBRANCH  24  25
ENDBRANCH   9  24
TORSDOF 8
ENDMDL