MODEL 4
REMARK VINA RESULT: -5.211829073      3.555      6.002
REMARK  5 active torsions:
REMARK  status: ('A' for Active; 'I' for Inactive)
REMARK    1  A    between atoms: C2_2  and  N1_3
REMARK    2  A    between atoms: N1_3  and  N2_4
REMARK    3  A    between atoms: N2_4  and  C3_6
REMARK    4  A    between atoms: C3_6  and  N3_8
REMARK       I    between atoms: C4_10  and  N4_11
REMARK       I    between atoms: C4_10  and  N5_18
REMARK    5  A    between atoms: N4_11  and  C5_13
ROOT
HETATM    1  N3  UNL     1      16.041  46.238  16.190  1.00  0.00    -0.165 N
ATOM      2  H3  UNL     1      15.252  45.918  15.629  1.00  0.00     0.186 HD
HETATM    3  C4  UNL     1      16.064  45.784  17.365  1.00  0.00     0.680 C
HETATM    4  N4  UNL     1      14.986  44.897  17.730  1.00  0.00    -0.221 N
ATOM      5  H4  UNL     1      15.190  43.948  18.045  1.00  0.00     0.178 HD
HETATM    6  N5  UNL     1      17.020  46.038  18.378  1.00  0.00    -0.196 N
HETATM    7  C10 UNL     1      17.483  47.358  18.756  1.00  0.00     0.169 C
HETATM    8  C11 UNL     1      18.945  47.256  19.062  1.00  0.00     0.188 C
HETATM    9  O1  UNL     1      19.161  46.483  20.191  1.00  0.00    -0.386 OA
HETATM   10  C12 UNL     1      18.150  45.568  20.426  1.00  0.00     0.209 C
HETATM   11  C13 UNL     1      17.631  44.943  19.149  1.00  0.00     0.222 C
HETATM   12 CL1  UNL     1      18.911  44.123  18.281  1.00  0.00    -0.100 Cl
ENDROOT
BRANCH   1  13
HETATM   13  C3  UNL     1      16.907  47.098  15.526  1.00  0.00     0.202 C
HETATM   14  S1  UNL     1      18.358  46.508  15.025  1.00  0.00    -0.039 SA
BRANCH  13  15
HETATM   15  N2  UNL     1      16.636  48.461  15.238  1.00  0.00    -0.280 N
ATOM     16  H2  UNL     1      16.712  48.775  14.270  1.00  0.00     0.184 HD
BRANCH  15  17
HETATM   17  N1  UNL     1      16.273  49.393  16.205  1.00  0.00    -0.140 NA
BRANCH  17  18
HETATM   18  C2  UNL     1      14.835  49.523  16.320  1.00  0.00     0.130 C
HETATM   19  C1  UNL     1      14.470  50.957  16.627  1.00  0.00     0.024 C
ENDBRANCH  17  18
ENDBRANCH  15  17
ENDBRANCH  13  15
ENDBRANCH   1  13
BRANCH   4  20
HETATM   20  C5  UNL     1      13.630  45.349  17.649  1.00  0.00     0.099 C
HETATM   21  C6  UNL     1      12.825  44.580  16.612  1.00  0.00     0.026 C
HETATM   22  C7  UNL     1      11.453  44.490  17.278  1.00  0.00     0.002 C
HETATM   23  C8  UNL     1      11.874  44.123  18.708  1.00  0.00     0.002 C
HETATM   24  C9  UNL     1      12.935  45.183  18.960  1.00  0.00     0.026 C
ENDBRANCH   4  20
TORSDOF 5
ENDMDL