MODEL 5
REMARK VINA RESULT: -6.075263855      2.477      3.139
REMARK  2 active torsions:
REMARK  status: ('A' for Active; 'I' for Inactive)
REMARK    1  A    between atoms: N1_7  and  C6_8
REMARK    2  A    between atoms: C6_8  and  C7_9
ROOT
HETATM    1  C7  UNL     1      11.367  44.259  16.398  1.00  0.00     0.021 A
HETATM    2  C8  UNL     1      12.454  44.081  17.273  1.00  0.00     0.019 A
HETATM    3  C9  UNL     1      13.812  43.664  16.798  1.00  0.00     0.069 C
HETATM    4  N2  UNL     1      12.109  44.286  18.536  1.00  0.00    -0.344 N
ATOM      5  H2  UNL     1      12.727  44.212  19.344  1.00  0.00     0.167 HD
HETATM    6  C10 UNL     1      10.817  44.602  18.569  1.00  0.00     0.126 A
HETATM    7  N3  UNL     1      10.036  44.971  19.597  1.00  0.00    -0.293 N
ATOM      8  H3  UNL     1      10.423  44.964  20.540  1.00  0.00     0.172 HD
HETATM    9  C11 UNL     1       8.768  45.345  19.420  1.00  0.00     0.328 A
HETATM   10  O1  UNL     1       8.034  45.694  20.374  1.00  0.00    -0.247 OA
HETATM   11  N4  UNL     1       8.274  45.345  18.146  1.00  0.00    -0.275 N
ATOM     12  H4  UNL     1       7.306  45.632  17.995  1.00  0.00     0.173 HD
HETATM   13  C12 UNL     1       9.013  44.983  17.086  1.00  0.00     0.264 A
HETATM   14  O2  UNL     1       8.465  45.004  15.924  1.00  0.00    -0.267 OA
HETATM   15  C13 UNL     1      10.310  44.598  17.263  1.00  0.00     0.090 A
ENDROOT
BRANCH   1  16
HETATM   16  C6  UNL     1      11.490  44.397  14.977  1.00  0.00     0.105 C
BRANCH  16  17
HETATM   17  N1  UNL     1      11.331  43.279  14.108  1.00  0.00    -0.359 N
HETATM   18  C2  UNL     1      12.079  42.279  13.597  1.00  0.00     0.003 C
HETATM   19  C1  UNL     1      13.373  42.272  13.376  1.00  0.00     0.038 C
HETATM   20  C3  UNL     1      11.174  41.088  13.193  1.00  0.00     0.073 C
HETATM   21  C4  UNL     1       9.940  41.832  12.775  1.00  0.00     0.081 C
HETATM   22 BR1  UNL     1      10.027  42.154  10.859  1.00  0.00    -0.089 Br
HETATM   23  C5  UNL     1       9.933  43.115  13.527  1.00  0.00     0.144 C
ENDBRANCH  16  17
ENDBRANCH   1  16
TORSDOF 2
ENDMDL