MODEL 2
REMARK VINA RESULT: -6.142868766      4.361      6.128
REMARK  2 active torsions:
REMARK  status: ('A' for Active; 'I' for Inactive)
REMARK    1  A    between atoms: C8_15  and  C9_16
REMARK    2  A    between atoms: N4_20  and  C12_21
ROOT
HETATM    1  C1  UNL     1       9.230  44.103  14.369  1.00  0.00     0.065 C
HETATM    2  C2  UNL     1       9.803  45.252  14.192  1.00  0.00     0.114 A
HETATM    3  N1  UNL     1       9.261  46.236  13.358  1.00  0.00    -0.284 N
ATOM      4  H1  UNL     1       8.379  46.173  12.849  1.00  0.00     0.188 HD
HETATM    5  N2  UNL     1      10.144  47.323  13.346  1.00  0.00    -0.282 N
ATOM      6  H2  UNL     1       9.999  48.183  12.817  1.00  0.00     0.188 HD
HETATM    7  C3  UNL     1      11.270  47.062  14.173  1.00  0.00     0.152 A
HETATM    8  C4  UNL     1      12.218  47.950  14.484  1.00  0.00     0.087 A
HETATM    9  N3  UNL     1      13.303  47.646  15.225  1.00  0.00    -0.319 N
ATOM     10  H3  UNL     1      13.451  46.656  15.421  1.00  0.00     0.169 HD
HETATM   11  C5  UNL     1      14.205  48.489  15.731  1.00  0.00     0.256 A
HETATM   12  O1  UNL     1      15.190  48.080  16.425  1.00  0.00    -0.267 OA
HETATM   13  C6  UNL     1      14.102  49.836  15.519  1.00  0.00     0.030 A
HETATM   14  C7  UNL     1      15.012  50.639  16.037  1.00  0.00     0.030 C
HETATM   15  C8  UNL     1      13.032  50.257  14.770  1.00  0.00    -0.021 A
HETATM   16  C10 UNL     1      12.100  49.321  14.265  1.00  0.00    -0.023 A
HETATM   17  C11 UNL     1      10.915  49.967  13.668  1.00  0.00     0.051 C
HETATM   18  N4  UNL     1      11.049  45.728  14.724  1.00  0.00    -0.311 N
ENDROOT
BRANCH  18  19
HETATM   19  C12 UNL     1      11.756  45.013  15.683  1.00  0.00     0.100 C
HETATM   20  C13 UNL     1      10.994  44.629  16.967  1.00  0.00     0.053 C
HETATM   21  C14 UNL     1      12.138  43.898  17.654  1.00  0.00    -0.022 C
HETATM   22  C15 UNL     1      12.916  43.352  16.730  1.00  0.00    -0.086 C
HETATM   23  C16 UNL     1      14.149  42.544  16.958  1.00  0.00     0.043 C
HETATM   24  C17 UNL     1      12.367  43.692  15.345  1.00  0.00     0.059 C
ENDBRANCH  18  19
BRANCH  15  25
HETATM   25  C9  UNL     1      12.906  51.702  14.461  1.00  0.00     0.154 C
HETATM   26 CL1  UNL     1      12.102  52.637  15.713  1.00  0.00    -0.126 Cl
ENDBRANCH  15  25
TORSDOF 2
ENDMDL