MODEL 3
REMARK VINA RESULT: -5.909690549      3.100      4.459
REMARK  3 active torsions:
REMARK  status: ('A' for Active; 'I' for Inactive)
REMARK    1  A    between atoms: C3_5  and  N2_6
REMARK    2  A    between atoms: N2_6  and  S1_8
REMARK    3  A    between atoms: S1_8  and  C4_11
ROOT
HETATM    1  S1  UNL     1      14.235  44.659  17.507  1.00  0.00     0.292 S
HETATM    2  O1  UNL     1      14.187  45.405  16.207  1.00  0.00    -0.198 OA
HETATM    3  O2  UNL     1      15.445  45.010  18.316  1.00  0.00    -0.198 OA
ENDROOT
BRANCH   1   4
HETATM    4  N2  UNL     1      14.255  42.950  17.267  1.00  0.00    -0.110 N
ATOM      5  H2  UNL     1      14.066  42.318  18.044  1.00  0.00     0.197 HD
BRANCH   4   6
HETATM    6  C3  UNL     1      14.510  42.480  16.092  1.00  0.00     0.708 A
HETATM    7  N1  UNL     1      14.045  41.327  15.550  1.00  0.00    -0.178 N
HETATM    8  C2  UNL     1      14.530  41.176  14.310  1.00  0.00     0.108 A
ATOM      9  H1  UNL     1      13.419  40.671  16.018  1.00  0.00     0.185 HD
HETATM   10  C1  UNL     1      14.279  40.061  13.358  1.00  0.00     0.091 C
HETATM   11  N5  UNL     1      15.302  42.256  14.098  1.00  0.00    -0.275 N
HETATM   12  N4  UNL     1      15.298  43.043  15.156  1.00  0.00    -0.130 N
ATOM     13  H5  UNL     1      15.819  42.442  13.238  1.00  0.00     0.189 HD
ATOM     14  H4  UNL     1      15.805  43.923  15.249  1.00  0.00     0.205 HD
ENDBRANCH   4   6
ENDBRANCH   1   4
BRANCH   1  15
HETATM   15  C4  UNL     1      12.830  45.138  18.429  1.00  0.00     0.157 A
HETATM   16  N3  UNL     1      12.776  45.834  19.589  1.00  0.00    -0.348 N
HETATM   17  C5  UNL     1      11.501  46.000  19.980  1.00  0.00     0.024 A
ATOM     18  H3  UNL     1      13.589  46.183  20.096  1.00  0.00     0.166 HD
HETATM   19  C6  UNL     1      10.952  46.690  21.176  1.00  0.00     0.069 C
HETATM   20  C7  UNL     1      10.718  45.376  19.014  1.00  0.00     0.042 A
HETATM   21 BR1  UNL     1       8.806  45.251  18.976  1.00  0.00    -0.048 Br
HETATM   22  C8  UNL     1      11.540  44.838  18.046  1.00  0.00    -0.003 A
HETATM   23  C9  UNL     1      11.077  44.084  16.835  1.00  0.00     0.053 C
ENDBRANCH   1  15
TORSDOF 3
ENDMDL