MODEL 4
REMARK VINA RESULT: -5.776698073      0.937      1.293
REMARK  3 active torsions:
REMARK  status: ('A' for Active; 'I' for Inactive)
REMARK    1  A    between atoms: C2_2  and  N1_3
REMARK    2  A    between atoms: C4_8  and  N3_9
REMARK    3  A    between atoms: N3_9  and  C5_11
ROOT
HETATM    1  N1  UNL     1      11.955  46.105  20.201  1.00  0.00    -0.375 N
ATOM      2  H1  UNL     1      12.547  46.517  20.922  1.00  0.00     0.161 HD
HETATM    3  C3  UNL     1      12.592  45.510  19.300  1.00  0.00     0.136 A
HETATM    4  N2  UNL     1      13.978  45.465  19.356  1.00  0.00    -0.176 N
ATOM      5  H2  UNL     1      14.437  45.925  20.142  1.00  0.00     0.186 HD
HETATM    6  C4  UNL     1      14.739  44.869  18.465  1.00  0.00     0.680 A
HETATM    7  N5  UNL     1      14.188  44.251  17.415  1.00  0.00    -0.195 N
ATOM      8  H5  UNL     1      14.791  43.794  16.731  1.00  0.00     0.184 HD
HETATM    9  C12 UNL     1      12.858  44.220  17.242  1.00  0.00     0.043 A
HETATM   10  C13 UNL     1      12.236  43.529  16.067  1.00  0.00     0.070 C
HETATM   11  C14 UNL     1      12.071  44.864  18.208  1.00  0.00     0.077 A
HETATM   12 BR1  UNL     1      10.182  44.779  17.894  1.00  0.00    -0.045 Br
ENDROOT
BRANCH   6  13
HETATM   13  N3  UNL     1      16.026  44.877  18.597  1.00  0.00    -0.219 N
ATOM     14  H3  UNL     1      16.453  44.184  19.213  1.00  0.00     0.178 HD
BRANCH  13  15
HETATM   15  C5  UNL     1      16.880  45.806  17.927  1.00  0.00     0.130 C
HETATM   16  C6  UNL     1      17.789  45.073  16.955  1.00  0.00     0.034 C
HETATM   17  C7  UNL     1      19.238  45.273  17.310  1.00  0.00     0.013 C
HETATM   18  C8  UNL     1      19.452  44.699  18.697  1.00  0.00     0.008 C
HETATM   19  C11 UNL     1      19.527  46.751  17.327  1.00  0.00     0.237 C
HETATM   20  C9  UNL     1      18.530  45.381  19.694  1.00  0.00     0.035 C
HETATM   21  C10 UNL     1      17.793  46.458  18.973  1.00  0.00     0.209 C
HETATM   22  N4  UNL     1      18.682  47.372  18.312  1.00  0.00    -0.069 N
ATOM     23  H42 UNL     1      18.161  48.146  17.901  1.00  0.00     0.277 HD
ATOM     24  H41 UNL     1      19.242  47.885  18.993  1.00  0.00     0.277 HD
ENDBRANCH  13  15
ENDBRANCH   6  13
BRANCH   1  25
HETATM   25  C2  UNL     1      10.602  46.309  20.406  1.00  0.00     0.116 C
HETATM   26  C1  UNL     1      10.304  47.584  21.215  1.00  0.00     0.026 C
ENDBRANCH   1  25
TORSDOF 3
ENDMDL