MODEL 2
REMARK VINA RESULT: -5.944169696      3.162      5.468
REMARK  5 active torsions:
REMARK  status: ('A' for Active; 'I' for Inactive)
REMARK    1  A    between atoms: N1_2  and  C2_4
REMARK    2  A    between atoms: C3_9  and  N4_10
REMARK    3  A    between atoms: N4_10  and  C4_12
REMARK    4  A    between atoms: C4_12  and  C6_14
REMARK       I    between atoms: N5_18  and  C10_19
REMARK    5  A    between atoms: C10_19  and  C11_21
ROOT
HETATM    1  C4  UNL     1      12.716  45.269  18.688  1.00  0.00     0.118 C
HETATM    2  C5  UNL     1      12.139  45.929  19.885  1.00  0.00     0.035 C
ENDROOT
BRANCH   1   3
HETATM    3  N4  UNL     1      14.019  44.743  19.041  1.00  0.00    -0.218 N
ATOM      4  H4  UNL     1      14.077  43.841  19.512  1.00  0.00     0.178 HD
BRANCH   3   5
HETATM    5  C3  UNL     1      15.105  45.380  18.780  1.00  0.00     0.708 A
HETATM    6  N3  UNL     1      15.207  46.346  17.850  1.00  0.00    -0.117 N
HETATM    7  N2  UNL     1      16.463  46.796  17.834  1.00  0.00    -0.117 N
ATOM      8  H3  UNL     1      14.448  46.680  17.255  1.00  0.00     0.206 HD
HETATM    9  C2  UNL     1      17.184  46.126  18.752  1.00  0.00     0.707 A
ATOM     10  H2  UNL     1      16.819  47.531  17.224  1.00  0.00     0.206 HD
HETATM   11  N6  UNL     1      16.327  45.258  19.323  1.00  0.00    -0.020 N
ATOM     12  H6  UNL     1      16.571  44.601  20.063  1.00  0.00     0.203 HD
BRANCH   9  13
HETATM   13  N1  UNL     1      18.444  46.278  19.034  1.00  0.00    -0.229 N
HETATM   14  C1  UNL     1      18.854  47.490  19.697  1.00  0.00     0.165 C
ATOM     15  H1  UNL     1      19.125  45.559  18.792  1.00  0.00     0.177 HD
ENDBRANCH   9  13
ENDBRANCH   3   5
ENDBRANCH   1   3
BRANCH   1  16
HETATM   16  C6  UNL     1      11.878  44.189  18.090  1.00  0.00     0.110 C
HETATM   17  C7  UNL     1      10.424  44.486  18.003  1.00  0.00     0.029 C
HETATM   18  C8  UNL     1      10.129  44.814  16.569  1.00  0.00     0.022 C
HETATM   19  C9  UNL     1      11.423  44.604  15.858  1.00  0.00     0.126 C
HETATM   20  N5  UNL     1      12.281  43.854  16.739  1.00  0.00    -0.345 N
HETATM   21  C10 UNL     1      13.305  42.971  16.325  1.00  0.00     0.226 C
HETATM   22  O1  UNL     1      13.946  42.398  17.257  1.00  0.00    -0.273 OA
BRANCH  21  23
HETATM   23  C11 UNL     1      13.576  42.763  14.907  1.00  0.00     0.106 A
HETATM   24  C12 UNL     1      14.733  41.789  14.661  1.00  0.00     0.104 A
HETATM   25 CL1  UNL     1      14.374  40.542  13.446  1.00  0.00    -0.123 Cl
HETATM   26  C13 UNL     1      14.810  43.222  14.242  1.00  0.00    -0.017 A
HETATM   27  C14 UNL     1      14.757  43.432  12.742  1.00  0.00     0.017 C
HETATM   28  C15 UNL     1      15.775  44.153  14.945  1.00  0.00     0.017 C
ENDBRANCH  21  23
ENDBRANCH   1  16
TORSDOF 5
ENDMDL