MODEL 4
REMARK VINA RESULT: -5.253334606      2.886      3.899
REMARK  3 active torsions:
REMARK  status: ('A' for Active; 'I' for Inactive)
REMARK    1  A    between atoms: N1_2  and  C2_5
REMARK    2  A    between atoms: C2_5  and  C3_6
REMARK    3  A    between atoms: N3_22  and  C15_23
ROOT
HETATM    1  C3  UNL     1      16.013  45.115  15.418  1.00  0.00     0.169 C
HETATM    2  C4  UNL     1      14.752  45.295  16.193  1.00  0.00     0.002 C
HETATM    3  C5  UNL     1      14.597  46.418  16.872  1.00  0.00     0.195 C
HETATM    4  F1  UNL     1      15.567  47.399  16.869  1.00  0.00    -0.219 F
HETATM    5  C6  UNL     1      13.684  44.279  16.231  1.00  0.00     0.124 C
HETATM    6  C7  UNL     1      12.783  44.407  14.951  1.00  0.00     0.063 C
HETATM    7  C8  UNL     1      11.451  43.825  15.050  1.00  0.00    -0.024 C
HETATM    8  C9  UNL     1      10.279  44.351  15.717  1.00  0.00    -0.008 C
HETATM    9  C10 UNL     1      10.206  44.958  17.036  1.00  0.00    -0.026 C
HETATM   10  C11 UNL     1      10.664  44.373  18.303  1.00  0.00     0.038 C
HETATM   11  C12 UNL     1      12.207  44.440  18.569  1.00  0.00     0.085 C
HETATM   12  C13 UNL     1      12.772  44.364  17.286  1.00  0.00    -0.158 C
HETATM   13  C14 UNL     1      14.375  42.952  16.026  1.00  0.00     0.261 C
HETATM   14  O1  UNL     1      14.126  42.014  16.793  1.00  0.00    -0.270 OA
HETATM   15  N2  UNL     1      15.281  42.849  14.958  1.00  0.00    -0.263 N
ATOM     16  H2  UNL     1      15.479  41.941  14.538  1.00  0.00     0.190 HD
HETATM   17  N3  UNL     1      15.913  44.005  14.473  1.00  0.00    -0.256 N
ENDROOT
BRANCH   1  18
HETATM   18  C2  UNL     1      17.182  44.804  16.338  1.00  0.00     0.263 C
BRANCH  18  19
HETATM   19  N1  UNL     1      18.398  45.379  15.850  1.00  0.00    -0.077 N
HETATM   20  C1  UNL     1      19.483  44.458  16.195  1.00  0.00     0.267 C
ATOM     21  H12 UNL     1      18.556  46.327  16.191  1.00  0.00     0.276 HD
ATOM     22  H11 UNL     1      18.364  45.600  14.855  1.00  0.00     0.276 HD
ENDBRANCH  18  19
ENDBRANCH   1  18
BRANCH  17  23
HETATM   23  C15 UNL     1      16.416  44.075  13.145  1.00  0.00     0.202 C
HETATM   24  N4  UNL     1      17.743  44.485  12.852  1.00  0.00    -0.068 NA
HETATM   25  S1  UNL     1      15.421  43.666  11.918  1.00  0.00    -0.043 SA
ENDBRANCH  17  23
TORSDOF 3
ENDMDL