MODEL 3
REMARK VINA RESULT: -6.952328770      4.070      5.967
REMARK  5 active torsions:
REMARK  status: ('A' for Active; 'I' for Inactive)
REMARK    1  A    between atoms: C10_10  and  C11_11
REMARK    2  A    between atoms: C11_11  and  O1_12
REMARK    3  A    between atoms: C11_11  and  C12_14
REMARK    4  A    between atoms: C12_14  and  C13_15
REMARK    5  A    between atoms: C15_17  and  O2_18
ROOT
HETATM    1  C1  UNL     1      39.552  26.066  15.150  1.00  0.00     0.022 C
HETATM    2  C2  UNL     1      39.790  25.723  16.403  1.00  0.00    -0.018 C
HETATM    3  C3  UNL     1      41.125  25.308  16.814  1.00  0.00     0.042 C
HETATM    4  C4  UNL     1      41.194  24.246  17.867  1.00  0.00     0.018 C
HETATM    5  C5  UNL     1      39.977  23.890  18.597  1.00  0.00     0.005 C
HETATM    6  C6  UNL     1      38.942  23.065  17.805  1.00  0.00     0.021 C
HETATM    7  C7  UNL     1      37.889  23.819  18.575  1.00  0.00     0.030 C
HETATM    8  C8  UNL     1      37.618  23.225  19.911  1.00  0.00     0.009 C
HETATM    9  C9  UNL     1      38.854  23.247  20.768  1.00  0.00     0.009 C
HETATM   10  C10 UNL     1      40.113  23.190  19.893  1.00  0.00     0.026 C
HETATM   11  C15 UNL     1      38.915  24.960  18.641  1.00  0.00     0.134 C
HETATM   12  C16 UNL     1      38.755  25.738  17.416  1.00  0.00     0.190 C
HETATM   13  O3  UNL     1      37.733  26.432  17.208  1.00  0.00    -0.289 OA
ENDROOT
BRANCH  10  14
HETATM   14  C11 UNL     1      41.330  23.308  20.714  1.00  0.00     0.123 C
BRANCH  14  15
HETATM   15  O1  UNL     1      41.333  24.715  21.102  1.00  0.00    -0.395 OA
ATOM     16  H1  UNL     1      42.165  24.813  21.550  1.00  0.00     0.210 HD
ENDBRANCH  14  15
BRANCH  14  17
HETATM   17  C12 UNL     1      41.200  22.665  22.090  1.00  0.00     0.032 C
BRANCH  17  18
HETATM   18  C13 UNL     1      42.466  22.945  22.886  1.00  0.00    -0.002 C
HETATM   19  C14 UNL     1      42.935  21.621  23.459  1.00  0.00     0.005 C
ENDBRANCH  17  18
ENDBRANCH  14  17
ENDBRANCH  10  14
BRANCH  11  20
HETATM   20  O2  UNL     1      38.856  25.747  19.760  1.00  0.00    -0.380 OA
ATOM     21  H2  UNL     1      38.614  26.658  19.645  1.00  0.00     0.211 HD
ENDBRANCH  11  20
TORSDOF 5
ENDMDL