MODEL 3
REMARK VINA RESULT: -6.849140022      5.446      8.698
REMARK  3 active torsions:
REMARK  status: ('A' for Active; 'I' for Inactive)
REMARK       I    between atoms: C1_2  and  N1_3
REMARK       I    between atoms: C1_2  and  N2_12
REMARK    1  A    between atoms: N1_3  and  C2_5
REMARK    2  A    between atoms: C2_5  and  C3_6
REMARK    3  A    between atoms: N2_12  and  C8_14
ROOT
HETATM    1  O1  UNL     1      37.831  25.657  18.233  1.00  0.00    -0.247 OA
HETATM    2  C1  UNL     1      36.705  25.534  17.680  1.00  0.00     0.316 C
HETATM    3  N1  UNL     1      35.914  24.382  17.741  1.00  0.00    -0.343 N
ATOM      4  H1  UNL     1      35.018  24.413  17.254  1.00  0.00     0.164 HD
HETATM    5  N2  UNL     1      36.259  26.678  16.956  1.00  0.00    -0.332 N
ATOM      6  H2  UNL     1      35.355  26.639  16.485  1.00  0.00     0.165 HD
ENDROOT
BRANCH   3   7
HETATM    7  C2  UNL     1      36.237  23.167  18.418  1.00  0.00     0.129 C
BRANCH   7   8
HETATM    8  C3  UNL     1      36.143  23.396  19.926  1.00  0.00     0.005 C
HETATM    9  C4  UNL     1      37.248  22.730  20.648  1.00  0.00     0.016 C
HETATM   10  C5  UNL     1      36.727  21.580  21.478  1.00  0.00     0.074 C
HETATM   11  S1  UNL     1      35.730  20.548  20.363  1.00  0.00    -0.169 SA
HETATM   12  C6  UNL     1      34.332  21.633  19.874  1.00  0.00     0.074 C
HETATM   13  C7  UNL     1      34.749  23.017  20.321  1.00  0.00     0.016 C
ENDBRANCH   7   8
ENDBRANCH   3   7
BRANCH   5  14
HETATM   14  C8  UNL     1      37.052  27.907  16.864  1.00  0.00     0.155 C
HETATM   15  C9  UNL     1      37.858  27.929  15.626  1.00  0.00     0.033 C
HETATM   16  C10 UNL     1      37.906  29.200  14.866  1.00  0.00     0.003 C
HETATM   17  C11 UNL     1      36.755  30.110  14.988  1.00  0.00     0.007 C
HETATM   18  C12 UNL     1      35.551  29.522  15.676  1.00  0.00     0.080 C
HETATM   19  C13 UNL     1      36.083  29.023  16.995  1.00  0.00     0.149 C
HETATM   20  O2  UNL     1      35.737  29.503  18.051  1.00  0.00    -0.296 OA
ENDBRANCH   5  14
TORSDOF 3
ENDMDL