MODEL 1
REMARK VINA RESULT: -7.050650589      0.000      0.000
REMARK  5 active torsions:
REMARK  status: ('A' for Active; 'I' for Inactive)
REMARK    1  A    between atoms: C2_2  and  C4_4
REMARK    2  A    between atoms: C5_6  and  C6_7
REMARK    3  A    between atoms: C6_7  and  O2_8
REMARK    4  A    between atoms: C6_7  and  C7_10
REMARK    5  A    between atoms: C7_10  and  O3_11
ROOT
HETATM    1  C4  UNL     1      38.184  24.827  15.780  1.00  0.00     0.130 C
HETATM    2  O1  UNL     1      39.219  25.356  16.439  1.00  0.00    -0.367 OA
HETATM    3  C5  UNL     1      39.789  24.857  17.535  1.00  0.00     0.111 C
HETATM    4  C8  UNL     1      39.694  25.856  18.624  1.00  0.00     0.011 C
HETATM    5  C9  UNL     1      39.372  25.342  19.789  1.00  0.00    -0.018 C
HETATM    6  C10 UNL     1      39.202  23.877  19.615  1.00  0.00    -0.023 C
HETATM    7  C11 UNL     1      37.837  23.571  20.224  1.00  0.00     0.019 C
HETATM    8  C12 UNL     1      40.187  23.071  20.429  1.00  0.00     0.019 C
HETATM    9  C13 UNL     1      39.275  23.614  18.137  1.00  0.00     0.039 C
HETATM   10  C14 UNL     1      38.066  23.006  17.542  1.00  0.00     0.016 C
HETATM   11  C15 UNL     1      37.373  23.759  16.456  1.00  0.00     0.011 C
HETATM   12  C16 UNL     1      35.999  24.247  16.894  1.00  0.00     0.012 C
ENDROOT
BRANCH   3  13
HETATM   13  C6  UNL     1      41.303  24.776  17.237  1.00  0.00     0.180 C
BRANCH  13  14
HETATM   14  O2  UNL     1      41.820  25.924  16.716  1.00  0.00    -0.390 OA
ATOM     15  H2  UNL     1      42.154  25.826  15.832  1.00  0.00     0.210 HD
ENDBRANCH  13  14
BRANCH  13  16
HETATM   16  C7  UNL     1      41.497  23.579  16.331  1.00  0.00     0.199 C
BRANCH  16  17
HETATM   17  O3  UNL     1      42.590  23.791  15.474  1.00  0.00    -0.398 OA
ATOM     18  H3  UNL     1      42.702  23.047  14.894  1.00  0.00     0.209 HD
ENDBRANCH  16  17
ENDBRANCH  13  16
ENDBRANCH   3  13
BRANCH   1  19
HETATM   19  C2  UNL     1      38.457  24.516  14.318  1.00  0.00     0.007 C
HETATM   20  C1  UNL     1      39.584  25.192  13.682  1.00  0.00     0.012 C
HETATM   21  C3  UNL     1      38.574  23.025  14.082  1.00  0.00     0.012 C
ENDBRANCH   1  19
TORSDOF 5
ENDMDL