MODEL 5
REMARK VINA RESULT: -7.105793662      4.438      7.890
REMARK  4 active torsions:
REMARK  status: ('A' for Active; 'I' for Inactive)
REMARK    1  A    between atoms: C5_5  and  C6_6
REMARK    2  A    between atoms: C6_6  and  N1_7
REMARK    3  A    between atoms: N1_7  and  O1_8
REMARK       I    between atoms: N1_7  and  C7_10
REMARK       I    between atoms: C7_10  and  N2_12
REMARK    4  A    between atoms: N2_12  and  C8_14
ROOT
HETATM    1  C8  UNL     1      39.551  26.768  14.449  1.00  0.00     0.123 A
HETATM    2  C9  UNL     1      40.510  25.654  14.285  1.00  0.00     0.091 C
HETATM    3  N3  UNL     1      41.263  24.785  14.138  1.00  0.00    -0.195 NA
HETATM    4  C10 UNL     1      40.132  28.136  14.468  1.00  0.00     0.050 A
HETATM    5  C11 UNL     1      39.431  27.681  13.247  1.00  0.00     0.050 A
ENDROOT
BRANCH   1   6
HETATM    6  N2  UNL     1      38.371  26.526  15.251  1.00  0.00    -0.319 N
HETATM    7  C7  UNL     1      38.456  26.281  16.665  1.00  0.00     0.343 C
HETATM    8  N1  UNL     1      37.334  26.046  17.461  1.00  0.00    -0.210 N
HETATM    9  O2  UNL     1      39.602  26.290  17.164  1.00  0.00    -0.245 OA
ATOM     10  H2  UNL     1      37.455  26.528  14.802  1.00  0.00     0.166 HD
BRANCH   8  11
HETATM   11  C6  UNL     1      37.400  25.761  18.849  1.00  0.00     0.166 C
BRANCH  11  12
HETATM   12  C5  UNL     1      37.237  24.366  19.298  1.00  0.00     0.010 C
HETATM   13  C4  UNL     1      35.872  24.265  19.990  1.00  0.00     0.007 C
HETATM   14  C3  UNL     1      35.456  22.836  19.881  1.00  0.00     0.005 C
HETATM   15  C2  UNL     1      36.523  21.939  20.404  1.00  0.00    -0.018 C
HETATM   16  C1  UNL     1      36.828  20.914  19.324  1.00  0.00     0.010 C
HETATM   17  C14 UNL     1      37.742  22.579  20.954  1.00  0.00     0.009 C
HETATM   18  C12 UNL     1      38.294  23.729  20.119  1.00  0.00    -0.013 C
HETATM   19  C13 UNL     1      39.475  23.272  19.293  1.00  0.00     0.010 C
ENDBRANCH  11  12
ENDBRANCH   8  11
BRANCH   8  20
HETATM   20  O1  UNL     1      36.107  26.096  16.858  1.00  0.00    -0.283 OA
ATOM     21  H1  UNL     1      36.062  26.053  15.910  1.00  0.00     0.245 HD
ENDBRANCH   8  20
ENDBRANCH   1   6
TORSDOF 4
ENDMDL