MODEL 2
REMARK VINA RESULT: -7.545030966      2.057      4.131
REMARK  4 active torsions:
REMARK  status: ('A' for Active; 'I' for Inactive)
REMARK    1  A    between atoms: C2_2  and  C4_4
REMARK    2  A    between atoms: C7_7  and  O1_8
REMARK    3  A    between atoms: C11_14  and  C12_15
REMARK    4  A    between atoms: C12_15  and  O3_16
ROOT
HETATM    1  C4  UNL     1      39.560  27.860  17.291  1.00  0.00    -0.002 C
HETATM    2  C5  UNL     1      40.189  29.246  17.157  1.00  0.00     0.008 C
HETATM    3  C6  UNL     1      41.277  29.344  16.153  1.00  0.00     0.033 C
HETATM    4  C7  UNL     1      41.160  28.225  15.176  1.00  0.00     0.130 C
HETATM    5  C8  UNL     1      39.697  28.040  14.878  1.00  0.00     0.093 C
HETATM    6  C9  UNL     1      39.605  27.311  13.613  1.00  0.00     0.135 C
HETATM    7  O2  UNL     1      39.777  27.915  12.565  1.00  0.00    -0.297 OA
HETATM    8  C10 UNL     1      39.314  25.870  13.503  1.00  0.00     0.090 C
HETATM    9  C11 UNL     1      38.813  25.250  14.740  1.00  0.00    -0.008 A
HETATM   10  C13 UNL     1      39.688  24.988  15.915  1.00  0.00     0.018 A
HETATM   11  C14 UNL     1      38.591  26.036  15.937  1.00  0.00     0.007 A
HETATM   12  C15 UNL     1      38.894  27.455  16.001  1.00  0.00    -0.023 C
HETATM   13  C16 UNL     1      37.546  28.210  15.967  1.00  0.00     0.017 C
ENDROOT
BRANCH   1  14
HETATM   14  C2  UNL     1      38.617  27.997  18.471  1.00  0.00    -0.018 C
HETATM   15  C1  UNL     1      39.101  29.157  19.370  1.00  0.00     0.010 C
HETATM   16  C3  UNL     1      38.609  26.803  19.397  1.00  0.00     0.010 C
ENDBRANCH   1  14
BRANCH   4  17
HETATM   17  O1  UNL     1      41.769  28.655  13.979  1.00  0.00    -0.395 OA
ATOM     18  H1  UNL     1      41.685  27.946  13.353  1.00  0.00     0.210 HD
ENDBRANCH   4  17
BRANCH   9  19
HETATM   19  C12 UNL     1      37.865  24.069  14.454  1.00  0.00     0.174 C
BRANCH  19  20
HETATM   20  O3  UNL     1      37.525  24.047  13.121  1.00  0.00    -0.400 OA
ATOM     21  H3  UNL     1      37.662  24.904  12.734  1.00  0.00     0.209 HD
ENDBRANCH  19  20
ENDBRANCH   9  19
TORSDOF 4
ENDMDL