MODEL 5
REMARK VINA RESULT: -6.462962646      1.267      1.316
REMARK  5 active torsions:
REMARK  status: ('A' for Active; 'I' for Inactive)
REMARK    1  A    between atoms: C2_2  and  C3_3
REMARK    2  A    between atoms: C3_3  and  N1_4
REMARK    3  A    between atoms: N2_6  and  C4_8
REMARK    4  A    between atoms: C4_8  and  N3_10
REMARK    5  A    between atoms: N3_10  and  C5_12
ROOT
HETATM    1  C5  UNL     1      37.005  26.292  19.349  1.00  0.00     0.088 C
HETATM    2  C6  UNL     1      38.152  27.160  19.712  1.00  0.00     0.055 C
HETATM    3  C7  UNL     1      38.215  28.455  18.935  1.00  0.00     0.021 C
HETATM    4  C8  UNL     1      39.008  28.320  17.653  1.00  0.00     0.037 C
HETATM    5  C9  UNL     1      39.062  29.401  19.806  1.00  0.00     0.037 C
HETATM    6  N4  UNL     1      36.949  29.076  18.757  1.00  0.00    -0.405 N
ATOM      7  H4  UNL     1      36.799  30.060  18.980  1.00  0.00     0.154 HD
HETATM    8  C10 UNL     1      35.909  28.264  18.255  1.00  0.00     0.021 C
HETATM    9  C11 UNL     1      35.545  28.773  16.857  1.00  0.00     0.037 C
HETATM   10  C12 UNL     1      34.648  28.487  19.101  1.00  0.00     0.037 C
HETATM   11  C13 UNL     1      36.178  26.807  18.198  1.00  0.00     0.055 C
ENDROOT
BRANCH   1  12
HETATM   12  N3  UNL     1      37.387  24.924  19.083  1.00  0.00    -0.361 N
ATOM     13  H3  UNL     1      36.721  24.176  19.278  1.00  0.00     0.162 HD
BRANCH  12  14
HETATM   14  C4  UNL     1      38.662  24.593  18.558  1.00  0.00     0.186 C
HETATM   15  S1  UNL     1      38.840  24.530  16.940  1.00  0.00    -0.040 SA
BRANCH  14  16
HETATM   16  N2  UNL     1      39.793  24.313  19.363  1.00  0.00    -0.281 N
HETATM   17  N1  UNL     1      39.814  23.368  20.205  1.00  0.00    -0.331 N
ATOM     18  H1  UNL     1      38.976  22.795  20.295  1.00  0.00     0.180 HD
ATOM     19  H2  UNL     1      40.624  24.896  19.260  1.00  0.00     0.189 HD
BRANCH  17  20
HETATM   20  C3  UNL     1      40.931  23.050  21.036  1.00  0.00     0.166 C
BRANCH  20  21
HETATM   21  C2  UNL     1      42.174  23.739  20.655  1.00  0.00    -0.016 C
HETATM   22  C1  UNL     1      43.292  23.649  21.382  1.00  0.00     0.008 C
ENDBRANCH  20  21
ENDBRANCH  17  20
ENDBRANCH  14  16
ENDBRANCH  12  14
ENDBRANCH   1  12
TORSDOF 5
ENDMDL