MODEL 3
REMARK VINA RESULT: -7.497604275      1.569      1.770
REMARK  4 active torsions:
REMARK  status: ('A' for Active; 'I' for Inactive)
REMARK    1  A    between atoms: C9_10  and  C10_11
REMARK    2  A    between atoms: C10_11  and  C11_12
REMARK    3  A    between atoms: C11_12  and  C12_13
REMARK    4  A    between atoms: C14_15  and  O2_16
ROOT
HETATM    1  C1  UNL     1      38.471  28.366  19.438  1.00  0.00     0.018 C
HETATM    2  C2  UNL     1      38.227  27.005  18.858  1.00  0.00    -0.013 C
HETATM    3  C3  UNL     1      39.145  26.841  17.662  1.00  0.00     0.014 C
HETATM    4  C4  UNL     1      38.954  25.469  17.073  1.00  0.00     0.033 C
HETATM    5  C5  UNL     1      37.853  24.788  17.875  1.00  0.00     0.126 C
HETATM    6  O1  UNL     1      36.710  25.558  17.805  1.00  0.00    -0.374 OA
HETATM    7  C6  UNL     1      36.819  26.800  18.376  1.00  0.00     0.061 C
HETATM    8  C7  UNL     1      36.450  27.910  17.389  1.00  0.00     0.046 C
HETATM    9  C8  UNL     1      35.813  26.884  19.510  1.00  0.00     0.046 C
HETATM   10  C9  UNL     1      38.245  24.604  19.308  1.00  0.00     0.015 C
HETATM   11  C16 UNL     1      38.559  25.977  19.893  1.00  0.00     0.019 C
ENDROOT
BRANCH  10  12
HETATM   12  C10 UNL     1      39.456  23.748  19.496  1.00  0.00     0.009 C
BRANCH  12  13
HETATM   13  C11 UNL     1      40.538  24.449  20.280  1.00  0.00     0.033 C
BRANCH  13  14
HETATM   14  C12 UNL     1      41.593  23.420  20.625  1.00  0.00     0.188 C
HETATM   15  C13 UNL     1      41.839  23.431  22.098  1.00  0.00     0.066 C
HETATM   16  C14 UNL     1      43.351  23.402  22.235  1.00  0.00     0.145 C
HETATM   17  C15 UNL     1      43.817  23.174  20.829  1.00  0.00     0.264 C
HETATM   18  N1  UNL     1      42.845  23.891  20.014  1.00  0.00    -0.068 N
ATOM     19  H12 UNL     1      42.925  23.756  19.006  1.00  0.00     0.277 HD
ATOM     20  H11 UNL     1      42.964  24.904  19.972  1.00  0.00     0.277 HD
BRANCH  16  21
HETATM   21  O2  UNL     1      43.793  24.613  22.762  1.00  0.00    -0.394 OA
ATOM     22  H2  UNL     1      43.615  25.312  22.143  1.00  0.00     0.210 HD
ENDBRANCH  16  21
ENDBRANCH  13  14
ENDBRANCH  12  13
ENDBRANCH  10  12
TORSDOF 4
ENDMDL