MODEL 5
REMARK VINA RESULT: -7.095578883      3.174      5.540
REMARK  5 active torsions:
REMARK  status: ('A' for Active; 'I' for Inactive)
REMARK    1  A    between atoms: C2_2  and  O1_3
REMARK    2  A    between atoms: C5_7  and  C6_8
REMARK    3  A    between atoms: C12_15  and  C13_16
REMARK    4  A    between atoms: C13_16  and  C14_17
REMARK    5  A    between atoms: C14_17  and  C15_18
ROOT
HETATM    1  C1  UNL     1      40.893  25.741  17.087  1.00  0.00     0.048 C
HETATM    2  C2  UNL     1      40.793  24.284  17.244  1.00  0.00     0.080 C
HETATM    3  C3  UNL     1      39.512  23.903  16.465  1.00  0.00     0.042 C
HETATM    4  C4  UNL     1      38.839  22.716  17.095  1.00  0.00     0.035 C
HETATM    5  C5  UNL     1      38.489  22.877  18.504  1.00  0.00     0.127 C
HETATM    6  O2  UNL     1      39.380  23.870  19.028  1.00  0.00    -0.377 OA
HETATM    7  C12 UNL     1      40.673  23.670  18.574  1.00  0.00     0.156 C
ENDROOT
BRANCH   5   8
HETATM    8  C6  UNL     1      37.122  23.126  18.958  1.00  0.00     0.023 C
HETATM    9  C7  UNL     1      36.259  21.972  19.382  1.00  0.00    -0.007 C
HETATM   10  C8  UNL     1      34.890  22.625  19.390  1.00  0.00     0.005 C
HETATM   11  C11 UNL     1      36.686  22.270  20.802  1.00  0.00     0.010 C
HETATM   12  C9  UNL     1      35.270  23.967  20.062  1.00  0.00     0.005 C
HETATM   13  C10 UNL     1      36.778  23.671  20.280  1.00  0.00    -0.007 C
ENDBRANCH   5   8
BRANCH   7  14
HETATM   14  C13 UNL     1      41.647  23.976  19.636  1.00  0.00     0.045 C
BRANCH  14  15
HETATM   15  C14 UNL     1      41.572  23.308  20.937  1.00  0.00     0.116 C
BRANCH  15  16
HETATM   16  C15 UNL     1      42.935  23.456  21.585  1.00  0.00     0.172 C
HETATM   17  O3  UNL     1      43.727  24.359  21.284  1.00  0.00    -0.648 OA
HETATM   18  O4  UNL     1      43.307  22.528  22.561  1.00  0.00    -0.648 OA
ENDBRANCH  15  16
ENDBRANCH  14  15
ENDBRANCH   7  14
BRANCH   2  19
HETATM   19  O1  UNL     1      41.839  23.686  16.539  1.00  0.00    -0.388 OA
ATOM     20  H1  UNL     1      42.459  23.324  17.162  1.00  0.00     0.210 HD
ENDBRANCH   2  19
TORSDOF 5
ENDMDL