MODEL 3
REMARK VINA RESULT: -7.092105059      1.616      4.719
REMARK  4 active torsions:
REMARK  status: ('A' for Active; 'I' for Inactive)
REMARK    1  A    between atoms: C2_2  and  C3_3
REMARK    2  A    between atoms: C2_2  and  C4_6
REMARK    3  A    between atoms: C3_3  and  O1_4
REMARK    4  A    between atoms: C4_6  and  O2_7
ROOT
HETATM    1  C4  UNL     1      39.729  28.264  17.048  1.00  0.00     0.091 C
HETATM    2  C5  UNL     1      39.811  29.234  18.211  1.00  0.00     0.045 C
HETATM    3  C6  UNL     1      38.591  28.970  19.028  1.00  0.00     0.022 C
HETATM    4  C7  UNL     1      37.895  27.785  18.369  1.00  0.00     0.030 A
HETATM    5  C8  UNL     1      37.982  26.645  19.190  1.00  0.00    -0.072 A
HETATM    6  C9  UNL     1      39.015  25.710  19.814  1.00  0.00     0.044 C
HETATM    7  C10 UNL     1      36.698  26.562  19.343  1.00  0.00     0.018 A
HETATM    8  C11 UNL     1      36.459  27.686  18.543  1.00  0.00     0.118 A
HETATM    9  O3  UNL     1      35.805  27.088  17.306  1.00  0.00    -0.364 OA
HETATM   10  C12 UNL     1      35.580  28.347  17.792  1.00  0.00     0.163 A
HETATM   11  C13 UNL     1      36.175  29.370  16.838  1.00  0.00     0.036 C
HETATM   12  C14 UNL     1      37.559  29.132  16.402  1.00  0.00     0.016 C
HETATM   13  C15 UNL     1      38.277  27.909  16.922  1.00  0.00     0.006 C
HETATM   14  C16 UNL     1      37.997  26.754  16.051  1.00  0.00     0.020 C
ENDROOT
BRANCH   1  15
HETATM   15  C2  UNL     1      40.450  28.776  15.877  1.00  0.00    -0.031 C
HETATM   16  C1  UNL     1      40.978  30.000  16.004  1.00  0.00     0.019 C
BRANCH  15  17
HETATM   17  C3  UNL     1      40.645  28.126  14.564  1.00  0.00     0.200 C
BRANCH  17  18
HETATM   18  O1  UNL     1      41.850  28.622  13.984  1.00  0.00    -0.397 OA
ATOM     19  H1  UNL     1      42.293  27.905  13.544  1.00  0.00     0.209 HD
ENDBRANCH  17  18
ENDBRANCH  15  17
ENDBRANCH   1  15
BRANCH   1  20
HETATM   20  O2  UNL     1      40.442  27.108  17.528  1.00  0.00    -0.384 OA
ATOM     21  H2  UNL     1      40.207  26.374  16.971  1.00  0.00     0.211 HD
ENDBRANCH   1  20
TORSDOF 4
ENDMDL