MODEL 3
REMARK VINA RESULT: -7.691294386      4.449      5.347
REMARK  3 active torsions:
REMARK  status: ('A' for Active; 'I' for Inactive)
REMARK       I    between atoms: C1_2  and  N1_3
REMARK       I    between atoms: C1_2  and  N2_11
REMARK    1  A    between atoms: N1_3  and  C2_5
REMARK    2  A    between atoms: C2_5  and  C3_6
REMARK    3  A    between atoms: N2_11  and  C6_13
ROOT
HETATM    1  O1  UNL     1      38.553  27.461  20.364  1.00  0.00    -0.247 OA
HETATM    2  C1  UNL     1      38.697  27.094  19.180  1.00  0.00     0.316 C
HETATM    3  N1  UNL     1      39.288  27.979  18.235  1.00  0.00    -0.341 N
ATOM      4  H1  UNL     1      39.393  27.646  17.277  1.00  0.00     0.164 HD
HETATM    5  N2  UNL     1      38.274  25.819  18.795  1.00  0.00    -0.339 N
ATOM      6  H2  UNL     1      38.404  25.547  17.820  1.00  0.00     0.164 HD
ENDROOT
BRANCH   5   7
HETATM    7  C6  UNL     1      37.663  24.855  19.694  1.00  0.00     0.086 C
HETATM    8  C7  UNL     1      38.461  23.594  19.597  1.00  0.00     0.025 C
HETATM    9  C8  UNL     1      38.367  22.722  20.817  1.00  0.00     0.002 C
HETATM   10  C9  UNL     1      37.426  21.552  20.549  1.00  0.00     0.000 C
HETATM   11  C10 UNL     1      36.235  21.590  21.471  1.00  0.00     0.000 C
HETATM   12  C11 UNL     1      34.947  21.643  20.727  1.00  0.00     0.000 C
HETATM   13  C12 UNL     1      34.836  22.737  19.727  1.00  0.00     0.000 C
HETATM   14  C13 UNL     1      35.328  24.073  20.208  1.00  0.00     0.002 C
HETATM   15  C14 UNL     1      36.236  24.705  19.221  1.00  0.00     0.025 C
ENDBRANCH   5   7
BRANCH   3  16
HETATM   16  C2  UNL     1      39.746  29.303  18.533  1.00  0.00     0.158 C
BRANCH  16  17
HETATM   17  C3  UNL     1      40.364  30.029  17.364  1.00  0.00     0.165 C
HETATM   18  C4  UNL     1      39.499  30.039  16.152  1.00  0.00     0.204 C
HETATM   19  O2  UNL     1      40.181  29.380  15.132  1.00  0.00    -0.364 OA
HETATM   20  C5  UNL     1      41.526  29.487  15.531  1.00  0.00     0.338 C
HETATM   21  O3  UNL     1      41.489  29.303  16.911  1.00  0.00    -0.358 OA
ENDBRANCH  16  17
ENDBRANCH   3  16
TORSDOF 3
ENDMDL