MODEL 4
REMARK VINA RESULT: -4.388879851      0.858      1.957
REMARK  4 active torsions:
REMARK  status: ('A' for Active; 'I' for Inactive)
REMARK    1  A    between atoms: C3_8  and  S1_9
REMARK    2  A    between atoms: S1_9  and  C4_10
REMARK    3  A    between atoms: C4_10  and  N4_11
REMARK    4  A    between atoms: C4_10  and  N5_15
ROOT
HETATM    1  S1  UNL     1      84.079 -15.352  64.893  1.00  0.00    -0.048 SA
ENDROOT
BRANCH   1   2
HETATM    2  C3  UNL     1      82.719 -15.403  63.766  1.00  0.00     0.116 A
HETATM    3  C1  UNL     1      81.913 -16.529  63.586  1.00  0.00     0.151 A
HETATM    4  N1  UNL     1      82.057 -17.770  64.246  1.00  0.00    -0.080 NA
HETATM    5  N2  UNL     1      80.974 -16.259  62.682  1.00  0.00    -0.339 N
HETATM    6  C2  UNL     1      81.171 -14.988  62.288  1.00  0.00     0.182 A
ATOM      7  H2  UNL     1      80.247 -16.894  62.351  1.00  0.00     0.167 HD
HETATM    8  N3  UNL     1      82.230 -14.472  62.947  1.00  0.00    -0.344 N
ATOM      9  H3  UNL     1      82.595 -13.526  62.838  1.00  0.00     0.167 HD
ENDBRANCH   1   2
BRANCH   1  10
HETATM   10  C4  UNL     1      83.950 -13.909  66.020  1.00  0.00     0.446 C
BRANCH  10  11
HETATM   11  N4  UNL     1      84.081 -12.743  65.184  1.00  0.00    -0.041 N
ATOM     12  H43 UNL     1      83.652 -12.850  64.266  1.00  0.00     0.277 HD
ATOM     13  H42 UNL     1      83.514 -11.954  65.493  1.00  0.00     0.277 HD
ATOM     14  H41 UNL     1      85.080 -12.537  65.147  1.00  0.00     0.277 HD
ENDBRANCH  10  11
BRANCH  10  15
HETATM   15  N5  UNL     1      84.953 -14.034  67.029  1.00  0.00    -0.041 N
ATOM     16  H53 UNL     1      85.882 -14.196  66.640  1.00  0.00     0.277 HD
ATOM     17  H52 UNL     1      85.152 -13.150  67.497  1.00  0.00     0.277 HD
ATOM     18  H51 UNL     1      84.666 -14.767  67.679  1.00  0.00     0.277 HD
ENDBRANCH  10  15
ENDBRANCH   1  10
TORSDOF 4
ENDMDL