MODEL 2
REMARK VINA RESULT: -5.049590071      0.872      2.044
REMARK  6 active torsions:
REMARK  status: ('A' for Active; 'I' for Inactive)
REMARK    1  A    between atoms: N1_1  and  C1_4
REMARK    2  A    between atoms: N4_10  and  C3_11
REMARK    3  A    between atoms: C3_11  and  C4_12
REMARK    4  A    between atoms: C4_12  and  C5_13
REMARK    5  A    between atoms: C5_13  and  N5_14
REMARK    6  A    between atoms: C5_13  and  N6_18
ROOT
HETATM    1  C3  UNL     1      83.324 -14.273  64.386  1.00  0.00     0.172 C
ENDROOT
BRANCH   1   2
HETATM    2  N4  UNL     1      82.581 -15.446  63.967  1.00  0.00    -0.123 N
HETATM    3  C1  UNL     1      81.674 -15.547  62.966  1.00  0.00     0.693 A
HETATM    4  N2  UNL     1      81.225 -16.811  62.917  1.00  0.00    -0.185 N
HETATM    5  C2  UNL     1      81.851 -17.516  63.895  1.00  0.00     0.215 A
ATOM      6  H2  UNL     1      80.535 -17.177  62.262  1.00  0.00     0.185 HD
HETATM    7  N3  UNL     1      82.665 -16.658  64.509  1.00  0.00    -0.279 N
ATOM      8  H3  UNL     1      83.272 -16.898  65.293  1.00  0.00     0.188 HD
BRANCH   3   9
HETATM    9  N1  UNL     1      81.290 -14.611  62.181  1.00  0.00    -0.233 N
ATOM     10  H12 UNL     1      80.438 -14.594  61.620  1.00  0.00     0.174 HD
ATOM     11  H11 UNL     1      81.805 -13.746  62.019  1.00  0.00     0.174 HD
ENDBRANCH   3   9
ENDBRANCH   1   2
BRANCH   1  12
HETATM   12  C4  UNL     1      84.213 -14.589  65.566  1.00  0.00     0.084 C
BRANCH  12  13
HETATM   13  C5  UNL     1      84.731 -13.381  66.256  1.00  0.00     0.379 C
BRANCH  13  14
HETATM   14  N5  UNL     1      84.715 -13.445  67.682  1.00  0.00    -0.050 N
ATOM     15  H53 UNL     1      83.759 -13.357  68.027  1.00  0.00     0.276 HD
ATOM     16  H52 UNL     1      84.931 -14.392  67.994  1.00  0.00     0.276 HD
ATOM     17  H51 UNL     1      85.322 -12.773  68.152  1.00  0.00     0.276 HD
ENDBRANCH  13  14
BRANCH  13  18
HETATM   18  N6  UNL     1      83.999 -12.188  65.849  1.00  0.00    -0.050 N
ATOM     19  H63 UNL     1      83.269 -12.408  65.171  1.00  0.00     0.276 HD
ATOM     20  H62 UNL     1      83.410 -11.834  66.603  1.00  0.00     0.276 HD
ATOM     21  H61 UNL     1      84.632 -11.470  65.498  1.00  0.00     0.276 HD
ENDBRANCH  13  18
ENDBRANCH  12  13
ENDBRANCH   1  12
TORSDOF 6
ENDMDL