MODEL 2
REMARK VINA RESULT: -5.589258471      0.834      2.432
REMARK  3 active torsions:
REMARK  status: ('A' for Active; 'I' for Inactive)
REMARK    1  A    between atoms: C2_3  and  C3_4
REMARK    2  A    between atoms: C3_4  and  N2_5
REMARK    3  A    between atoms: C4_8  and  N4_9
ROOT
HETATM    1  N1  UNL     1      81.715 -17.644  64.313  1.00  0.00    -0.197 NA
HETATM    2  C1  UNL     1      82.238 -16.648  64.033  1.00  0.00     0.060 C
HETATM    3  C2  UNL     1      82.886 -15.381  63.680  1.00  0.00     0.146 C
ENDROOT
BRANCH   3   4
HETATM    4  C3  UNL     1      83.073 -14.524  64.940  1.00  0.00     0.182 C
BRANCH   4   5
HETATM    5  N2  UNL     1      84.420 -14.709  65.405  1.00  0.00    -0.108 N
HETATM    6  N3  UNL     1      85.228 -15.684  65.008  1.00  0.00    -0.115 N
HETATM    7  C4  UNL     1      86.399 -15.532  65.656  1.00  0.00     0.705 A
ATOM      8  H3  UNL     1      85.004 -16.417  64.335  1.00  0.00     0.206 HD
HETATM    9  N5  UNL     1      86.269 -14.444  66.446  1.00  0.00    -0.020 N
HETATM   10  C5  UNL     1      85.039 -13.919  66.301  1.00  0.00     0.707 A
ATOM     11  H5  UNL     1      86.995 -14.077  67.061  1.00  0.00     0.203 HD
HETATM   12  N6  UNL     1      84.576 -12.866  66.914  1.00  0.00    -0.233 N
ATOM     13  H62 UNL     1      83.643 -12.467  66.803  1.00  0.00     0.174 HD
ATOM     14  H61 UNL     1      85.045 -12.267  67.594  1.00  0.00     0.174 HD
BRANCH   7  15
HETATM   15  N4  UNL     1      87.476 -16.249  65.583  1.00  0.00    -0.233 N
ATOM     16  H42 UNL     1      88.154 -16.182  64.824  1.00  0.00     0.174 HD
ATOM     17  H41 UNL     1      87.821 -16.962  66.225  1.00  0.00     0.174 HD
ENDBRANCH   7  15
ENDBRANCH   4   5
ENDBRANCH   3   4
TORSDOF 3
ENDMDL