MODEL 4
REMARK VINA RESULT: -5.540259447      1.397      1.588
REMARK  3 active torsions:
REMARK  status: ('A' for Active; 'I' for Inactive)
REMARK       I    between atoms: C1_4  and  N3_6
REMARK    1  A    between atoms: N3_6  and  C2_8
REMARK    2  A    between atoms: C2_8  and  N4_9
REMARK    3  A    between atoms: C2_8  and  C3_13
ROOT
HETATM    1  C2  UNL     1      83.996 -14.962  65.937  1.00  0.00     0.336 C
ENDROOT
BRANCH   1   2
HETATM    2  N3  UNL     1      84.576 -13.690  65.591  1.00  0.00    -0.332 N
HETATM    3  C1  UNL     1      84.304 -12.559  66.373  1.00  0.00     0.183 C
HETATM    4  N1  UNL     1      84.157 -11.363  65.917  1.00  0.00    -0.374 N
HETATM    5  N2  UNL     1      84.181 -12.747  67.792  1.00  0.00    -0.064 NA
ATOM      6  H12 UNL     1      83.960 -10.540  66.486  1.00  0.00     0.158 HD
ATOM      7  H11 UNL     1      84.245 -11.230  64.910  1.00  0.00     0.158 HD
ATOM      8  H3  UNL     1      85.185 -13.612  64.777  1.00  0.00     0.164 HD
ENDBRANCH   1   2
BRANCH   1   9
HETATM    9  N4  UNL     1      85.048 -15.968  66.120  1.00  0.00    -0.053 N
ATOM     10  H43 UNL     1      84.667 -16.866  66.415  1.00  0.00     0.277 HD
ATOM     11  H42 UNL     1      85.453 -16.261  65.230  1.00  0.00     0.277 HD
ATOM     12  H41 UNL     1      85.758 -15.624  66.765  1.00  0.00     0.277 HD
ENDBRANCH   1   9
BRANCH   1  13
HETATM   13  C3  UNL     1      83.192 -15.414  64.770  1.00  0.00     0.084 A
HETATM   14  C4  UNL     1      82.706 -16.643  64.441  1.00  0.00     0.057 A
HETATM   15  C5  UNL     1      82.031 -16.475  63.245  1.00  0.00     0.169 A
HETATM   16  O1  UNL     1      82.136 -15.196  62.918  1.00  0.00    -0.250 OA
HETATM   17  N5  UNL     1      82.812 -14.542  63.790  1.00  0.00    -0.262 N
ATOM     18  H5  UNL     1      83.028 -13.546  63.757  1.00  0.00     0.194 HD
ENDBRANCH   1  13
TORSDOF 3
ENDMDL