MODEL 1
REMARK VINA RESULT: -5.166178806      0.000      0.000
REMARK  6 active torsions:
REMARK  status: ('A' for Active; 'I' for Inactive)
REMARK    1  A    between atoms: N1_1  and  C1_4
REMARK    2  A    between atoms: N3_8  and  C3_9
REMARK    3  A    between atoms: C3_9  and  C4_10
REMARK    4  A    between atoms: C4_10  and  C5_11
REMARK    5  A    between atoms: C5_11  and  N4_12
REMARK    6  A    between atoms: C5_11  and  N5_16
ROOT
HETATM    1  C3  UNL     1      84.048 -15.420  65.521  1.00  0.00     0.173 C
ENDROOT
BRANCH   1   2
HETATM    2  N3  UNL     1      83.061 -15.824  64.558  1.00  0.00    -0.233 N
HETATM    3  N2  UNL     1      82.603 -17.055  64.291  1.00  0.00    -0.292 N
HETATM    4  C2  UNL     1      81.678 -16.997  63.315  1.00  0.00     0.158 A
ATOM      5  H2  UNL     1      82.910 -17.908  64.757  1.00  0.00     0.188 HD
HETATM    6  C1  UNL     1      81.582 -15.653  62.986  1.00  0.00     0.132 A
HETATM    7  N6  UNL     1      82.436 -14.962  63.761  1.00  0.00    -0.268 N
ATOM      8  H6  UNL     1      82.580 -13.952  63.741  1.00  0.00     0.190 HD
BRANCH   6   9
HETATM    9  N1  UNL     1      80.778 -15.192  62.070  1.00  0.00    -0.383 N
ATOM     10  H12 UNL     1      80.243 -15.720  61.382  1.00  0.00     0.157 HD
ATOM     11  H11 UNL     1      80.589 -14.199  61.934  1.00  0.00     0.157 HD
ENDBRANCH   6   9
ENDBRANCH   1   2
BRANCH   1  12
HETATM   12  C4  UNL     1      84.607 -14.044  65.256  1.00  0.00     0.085 C
BRANCH  12  13
HETATM   13  C5  UNL     1      84.102 -13.152  66.398  1.00  0.00     0.379 C
BRANCH  13  14
HETATM   14  N4  UNL     1      84.290 -11.764  66.112  1.00  0.00    -0.050 N
ATOM     15  H43 UNL     1      84.676 -11.627  65.178  1.00  0.00     0.276 HD
ATOM     16  H42 UNL     1      83.398 -11.286  65.989  1.00  0.00     0.276 HD
ATOM     17  H41 UNL     1      84.862 -11.304  66.821  1.00  0.00     0.276 HD
ENDBRANCH  13  14
BRANCH  13  18
HETATM   18  N5  UNL     1      84.780 -13.578  67.590  1.00  0.00    -0.050 N
ATOM     19  H53 UNL     1      84.892 -14.590  67.647  1.00  0.00     0.276 HD
ATOM     20  H52 UNL     1      85.772 -13.338  67.595  1.00  0.00     0.276 HD
ATOM     21  H51 UNL     1      84.267 -13.185  68.379  1.00  0.00     0.276 HD
ENDBRANCH  13  18
ENDBRANCH  12  13
ENDBRANCH   1  12
TORSDOF 6
ENDMDL