MODEL 4
REMARK VINA RESULT: -5.288701369      3.080      4.583
REMARK  2 active torsions:
REMARK  status: ('A' for Active; 'I' for Inactive)
REMARK       I    between atoms: N1_1  and  C1_5
REMARK       I    between atoms: C1_5  and  N2_6
REMARK       I    between atoms: C1_5  and  N3_10
REMARK    1  A    between atoms: N3_10  and  N4_12
REMARK    2  A    between atoms: C2_14  and  C3_15
ROOT
HETATM    1  N1  UNL     1      79.702 -15.519  61.584  1.00  0.00    -0.032 N
ATOM      2  H11 UNL     1      79.811 -16.474  61.925  1.00  0.00     0.279 HD
ATOM      3  H12 UNL     1      79.252 -15.473  60.670  1.00  0.00     0.279 HD
ATOM      4  H13 UNL     1      79.003 -14.990  62.106  1.00  0.00     0.279 HD
HETATM    5  C1  UNL     1      81.018 -14.890  61.601  1.00  0.00     0.494 C
HETATM    6  N2  UNL     1      80.864 -13.543  61.122  1.00  0.00    -0.032 N
ATOM      7  H21 UNL     1      81.784 -13.103  61.133  1.00  0.00     0.279 HD
ATOM      8  H22 UNL     1      80.165 -13.015  61.643  1.00  0.00     0.279 HD
ATOM      9  H23 UNL     1      80.414 -13.497  60.207  1.00  0.00     0.279 HD
HETATM   10  N3  UNL     1      81.484 -14.919  62.986  1.00  0.00    -0.284 N
ATOM     11  H3  UNL     1      81.700 -14.060  63.490  1.00  0.00     0.184 HD
ENDROOT
BRANCH  10  12
HETATM   12  N4  UNL     1      81.621 -16.161  63.588  1.00  0.00    -0.310 N
HETATM   13  C2  UNL     1      82.467 -16.430  64.516  1.00  0.00     0.144 C
ATOM     14  H4  UNL     1      81.007 -16.912  63.272  1.00  0.00     0.185 HD
BRANCH  13  15
HETATM   15  C3  UNL     1      83.382 -15.429  65.035  1.00  0.00     0.091 A
HETATM   16  C4  UNL     1      84.752 -15.472  65.081  1.00  0.00     0.040 A
HETATM   17  C5  UNL     1      85.161 -14.291  65.661  1.00  0.00     0.027 A
HETATM   18  C6  UNL     1      84.022 -13.573  65.945  1.00  0.00     0.142 A
HETATM   19  O1  UNL     1      83.001 -14.269  65.566  1.00  0.00    -0.321 OA
ENDBRANCH  13  15
ENDBRANCH  10  12
TORSDOF 2
ENDMDL