MODEL 3
REMARK VINA RESULT: -5.543491675      1.061      4.256
REMARK  3 active torsions:
REMARK  status: ('A' for Active; 'I' for Inactive)
REMARK    1  A    between atoms: N1_1  and  C1_5
REMARK    2  A    between atoms: C1_5  and  C2_6
REMARK    3  A    between atoms: C1_5  and  C5_13
ROOT
HETATM    1  C1  UNL     1      84.850 -14.772  64.554  1.00  0.00     0.303 C
ENDROOT
BRANCH   1   2
HETATM    2  N1  UNL     1      85.841 -15.751  64.965  1.00  0.00    -0.063 N
ATOM      3  H13 UNL     1      85.753 -16.646  64.482  1.00  0.00     0.275 HD
ATOM      4  H12 UNL     1      86.785 -15.532  64.648  1.00  0.00     0.275 HD
ATOM      5  H11 UNL     1      85.758 -15.825  65.979  1.00  0.00     0.275 HD
ENDBRANCH   1   2
BRANCH   1   6
HETATM    6  C2  UNL     1      84.634 -13.880  65.740  1.00  0.00     0.064 A
HETATM    7  C3  UNL     1      84.950 -14.142  67.055  1.00  0.00     0.116 A
HETATM    8  N2  UNL     1      84.598 -13.095  67.809  1.00  0.00    -0.360 N
HETATM    9  C4  UNL     1      84.068 -12.181  66.984  1.00  0.00     0.180 A
ATOM     10  H2  UNL     1      84.713 -13.008  68.819  1.00  0.00     0.166 HD
HETATM   11  N3  UNL     1      84.086 -12.652  65.728  1.00  0.00    -0.353 N
ATOM     12  H3  UNL     1      83.743 -12.160  64.902  1.00  0.00     0.166 HD
ENDBRANCH   1   6
BRANCH   1  13
HETATM   13  C5  UNL     1      83.588 -15.508  64.227  1.00  0.00     0.144 A
HETATM   14  N4  UNL     1      83.117 -16.558  64.928  1.00  0.00    -0.272 N
HETATM   15  N5  UNL     1      81.989 -16.947  64.349  1.00  0.00    -0.007 NA
ATOM     16  H4  UNL     1      83.548 -16.977  65.752  1.00  0.00     0.185 HD
HETATM   17  N6  UNL     1      81.723 -16.182  63.300  1.00  0.00    -0.007 NA
HETATM   18  N7  UNL     1      82.717 -15.305  63.243  1.00  0.00    -0.272 N
ATOM     19  H7  UNL     1      82.802 -14.572  62.539  1.00  0.00     0.185 HD
ENDBRANCH   1  13
TORSDOF 3
ENDMDL