MODEL 2
REMARK VINA RESULT: -4.625379226      3.261      7.842
REMARK  5 active torsions:
REMARK  status: ('A' for Active; 'I' for Inactive)
REMARK    1  A    between atoms: N1_2  and  C2_4
REMARK    2  A    between atoms: C2_4  and  C3_9
REMARK    3  A    between atoms: N2_5  and  O1_7
REMARK    4  A    between atoms: C5_13  and  N4_14
REMARK       I    between atoms: N4_14  and  C6_16
REMARK       I    between atoms: C6_16  and  N5_17
REMARK       I    between atoms: C6_16  and  N6_21
REMARK    5  A    between atoms: C7_27  and  N8_28
REMARK       I    between atoms: N9_31  and  C10_32
ROOT
HETATM    1  C3  UNL     1      16.087  22.247 108.756  1.00  0.00     0.070 A
HETATM    2  C4  UNL     1      16.956  23.162 109.383  1.00  0.00     0.125 A
HETATM    3  N3  UNL     1      18.201  23.387 108.965  1.00  0.00    -0.201 N
ATOM      4  H3  UNL     1      18.802  24.057 109.444  1.00  0.00     0.183 HD
HETATM    5  C5  UNL     1      18.642  22.704 107.892  1.00  0.00     0.682 A
HETATM    6  N7  UNL     1      17.847  21.837 107.283  1.00  0.00    -0.176 N
ATOM      7  H7  UNL     1      18.220  21.340 106.474  1.00  0.00     0.186 HD
HETATM    8  C7  UNL     1      16.558  21.561 107.664  1.00  0.00     0.134 A
ENDROOT
BRANCH   5   9
HETATM    9  N4  UNL     1      19.844  22.904 107.465  1.00  0.00    -0.173 N
HETATM   10  C6  UNL     1      20.700  21.863 106.984  1.00  0.00     0.494 C
HETATM   11  N5  UNL     1      22.063  22.369 106.894  1.00  0.00    -0.032 N
HETATM   12  N6  UNL     1      20.321  21.429 105.650  1.00  0.00    -0.032 N
ATOM     13  H53 UNL     1      22.125  23.216 106.328  1.00  0.00     0.278 HD
ATOM     14  H52 UNL     1      22.389  22.762 107.776  1.00  0.00     0.278 HD
ATOM     15  H51 UNL     1      22.673  21.628 106.551  1.00  0.00     0.278 HD
ATOM     16  H63 UNL     1      19.341  21.150 105.615  1.00  0.00     0.278 HD
ATOM     17  H62 UNL     1      20.287  22.213 105.000  1.00  0.00     0.278 HD
ATOM     18  H61 UNL     1      20.931  20.687 105.307  1.00  0.00     0.278 HD
ATOM     19  H4  UNL     1      20.203  23.858 107.472  1.00  0.00     0.181 HD
ENDBRANCH   5   9
BRANCH   8  20
HETATM   20  N8  UNL     1      15.812  20.604 106.958  1.00  0.00    -0.363 N
HETATM   21  C8  UNL     1      15.951  19.197 107.217  1.00  0.00     0.144 C
HETATM   22  C9  UNL     1      16.500  18.645 105.873  1.00  0.00     0.145 C
HETATM   23  N9  UNL     1      15.400  18.756 104.950  1.00  0.00    -0.349 N
HETATM   24  C10 UNL     1      15.268  17.790 103.927  1.00  0.00     0.215 C
HETATM   25  C12 UNL     1      14.455  19.824 105.069  1.00  0.00     0.145 C
HETATM   26  C11 UNL     1      14.165  17.821 102.936  1.00  0.00     0.117 C
HETATM   27  O2  UNL     1      16.100  16.826 103.799  1.00  0.00    -0.274 OA
HETATM   28  C13 UNL     1      14.879  20.980 105.925  1.00  0.00     0.144 C
ENDBRANCH   8  20
BRANCH   1  29
HETATM   29  C2  UNL     1      14.739  22.133 109.295  1.00  0.00     0.136 C
HETATM   30  N2  UNL     1      14.113  21.088 109.543  1.00  0.00    -0.252 N
ATOM     31  H2  UNL     1      14.575  20.197 109.358  1.00  0.00     0.196 HD
BRANCH  29  32
HETATM   32  N1  UNL     1      14.074  23.389 109.561  1.00  0.00    -0.379 N
HETATM   33  C1  UNL     1      13.556  24.068 108.398  1.00  0.00     0.147 C
ATOM     34  H1  UNL     1      13.978  23.768 110.503  1.00  0.00     0.160 HD
ENDBRANCH  29  32
BRANCH  30  35
HETATM   35  O1  UNL     1      12.846  21.060 110.048  1.00  0.00    -0.288 OA
ATOM     36  H1  UNL     1      12.624  20.714 110.904  1.00  0.00     0.244 HD
ENDBRANCH  30  35
ENDBRANCH   1  29
TORSDOF 5
ENDMDL