MODEL 1
REMARK VINA RESULT: -7.657527895      0.000      0.000
REMARK  6 active torsions:
REMARK  status: ('A' for Active; 'I' for Inactive)
REMARK    1  A    between atoms: N1_2  and  S1_4
REMARK    2  A    between atoms: S1_4  and  N2_7
REMARK    3  A    between atoms: N2_7  and  S2_9
REMARK    4  A    between atoms: S2_9  and  N3_12
REMARK    5  A    between atoms: N3_12  and  C2_14
REMARK    6  A    between atoms: C4_24  and  N8_25
ROOT
HETATM    1  C2  UNL     1      16.945  22.851 110.098  1.00  0.00     0.153 A
HETATM    2  N4  UNL     1      17.126  23.384 111.362  1.00  0.00    -0.269 N
ATOM      3  H4  UNL     1      16.358  23.495 112.023  1.00  0.00     0.190 HD
HETATM    4  N5  UNL     1      18.356  23.737 111.648  1.00  0.00    -0.239 N
ATOM      5  H5  UNL     1      18.512  24.134 112.574  1.00  0.00     0.208 HD
HETATM    6  N6  UNL     1      19.403  23.635 110.871  1.00  0.00    -0.270 N
ATOM      7  H6  UNL     1      20.311  23.948 111.214  1.00  0.00     0.190 HD
HETATM    8  C3  UNL     1      19.306  23.112 109.598  1.00  0.00     0.144 A
HETATM    9  N7  UNL     1      20.264  22.954 108.726  1.00  0.00    -0.321 N
ATOM     10  H7  UNL     1      21.221  23.228 108.951  1.00  0.00     0.169 HD
HETATM   11  C4  UNL     1      19.970  22.427 107.538  1.00  0.00     0.144 A
HETATM   12  S3  UNL     1      18.293  22.148 107.657  1.00  0.00    -0.047 SA
HETATM   13  C5  UNL     1      18.036  22.727 109.249  1.00  0.00     0.100 A
ENDROOT
BRANCH   1  14
HETATM   14  N3  UNL     1      15.820  22.482 109.719  1.00  0.00    -0.250 N
ATOM     15  H3  UNL     1      15.657  21.504 109.958  1.00  0.00     0.182 HD
BRANCH  14  16
HETATM   16  S2  UNL     1      14.506  23.131 108.932  1.00  0.00     0.334 S
HETATM   17  O3  UNL     1      13.228  22.513 109.496  1.00  0.00    -0.181 OA
HETATM   18  O4  UNL     1      14.386  24.635 109.064  1.00  0.00    -0.181 OA
BRANCH  16  19
HETATM   19  N2  UNL     1      14.597  22.701 107.243  1.00  0.00    -0.177 N
ATOM     20  H2  UNL     1      14.783  23.377 106.502  1.00  0.00     0.195 HD
BRANCH  19  21
HETATM   21  S1  UNL     1      14.345  21.044 106.957  1.00  0.00     0.328 S
HETATM   22  O1  UNL     1      15.110  20.219 107.955  1.00  0.00    -0.182 OA
HETATM   23  O2  UNL     1      12.877  20.704 107.162  1.00  0.00    -0.182 OA
BRANCH  21  24
HETATM   24  N1  UNL     1      14.803  20.611 105.375  1.00  0.00    -0.306 N
HETATM   25  C1  UNL     1      14.796  19.201 105.118  1.00  0.00     0.161 C
ATOM     26  H1  UNL     1      15.060  21.299 104.667  1.00  0.00     0.173 HD
ENDBRANCH  21  24
ENDBRANCH  19  21
ENDBRANCH  16  19
ENDBRANCH  14  16
ENDBRANCH   1  14
BRANCH  11  27
HETATM   27  N8  UNL     1      20.796  22.195 106.541  1.00  0.00    -0.380 N
ATOM     28  H82 UNL     1      21.788  21.960 106.555  1.00  0.00     0.158 HD
ATOM     29  H81 UNL     1      20.583  22.209 105.544  1.00  0.00     0.158 HD
ENDBRANCH  11  27
TORSDOF 6
ENDMDL