MODEL 5
REMARK VINA RESULT: -6.501222668      3.845      7.768
REMARK  8 active torsions:
REMARK  status: ('A' for Active; 'I' for Inactive)
REMARK    1  A    between atoms: N2_3  and  C2_5
REMARK    2  A    between atoms: C3_10  and  N5_11
REMARK    3  A    between atoms: N7_19  and  C8_20
REMARK    4  A    between atoms: C8_20  and  C9_21
REMARK    5  A    between atoms: C9_21  and  N8_22
REMARK    6  A    between atoms: N8_22  and  C10_24
REMARK    7  A    between atoms: C11_29  and  C12_30
REMARK    8  A    between atoms: C12_30  and  O1_31
ROOT
HETATM    1  N1  UNL     1      21.776  20.732 104.688  1.00  0.00    -0.171 NA
HETATM    2  C1  UNL     1      20.882  21.282 105.215  1.00  0.00     0.196 C
HETATM    3  N2  UNL     1      19.803  21.922 105.841  1.00  0.00    -0.124 N
ATOM      4  H2  UNL     1      18.945  22.089 105.315  1.00  0.00     0.197 HD
ENDROOT
BRANCH   3   5
HETATM    5  C2  UNL     1      19.880  22.306 107.084  1.00  0.00     0.723 A
HETATM    6  N3  UNL     1      21.008  22.564 107.781  1.00  0.00    -0.116 N
HETATM    7  N4  UNL     1      20.688  22.922 109.008  1.00  0.00    -0.117 N
ATOM      8  H3  UNL     1      21.957  22.492 107.415  1.00  0.00     0.206 HD
HETATM    9  C3  UNL     1      19.330  22.911 109.159  1.00  0.00     0.712 A
ATOM     10  H4  UNL     1      21.357  23.172 109.738  1.00  0.00     0.206 HD
HETATM   11  N7  UNL     1      18.865  22.528 107.955  1.00  0.00    -0.009 N
BRANCH   9  12
HETATM   12  N5  UNL     1      18.624  23.218 110.353  1.00  0.00    -0.213 N
HETATM   13  C4  UNL     1      17.429  22.641 110.843  1.00  0.00     0.168 C
HETATM   14  C5  UNL     1      16.653  23.606 111.709  1.00  0.00     0.252 C
HETATM   15  N6  UNL     1      17.425  24.210 112.757  1.00  0.00    -0.072 N
HETATM   16  C6  UNL     1      18.852  24.042 112.582  1.00  0.00     0.252 C
ATOM     17  H62 UNL     1      17.186  25.196 112.862  1.00  0.00     0.277 HD
ATOM     18  H61 UNL     1      17.128  23.868 113.671  1.00  0.00     0.277 HD
HETATM   19  C7  UNL     1      19.231  24.294 111.157  1.00  0.00     0.168 C
ENDBRANCH   9  12
BRANCH  11  20
HETATM   20  C8  UNL     1      17.478  22.363 107.582  1.00  0.00     0.187 C
BRANCH  20  21
HETATM   21  C9  UNL     1      16.892  21.040 108.035  1.00  0.00     0.159 C
BRANCH  21  22
HETATM   22  N8  UNL     1      15.578  20.806 107.487  1.00  0.00    -0.223 N
ATOM     23  H8  UNL     1      14.783  21.244 107.951  1.00  0.00     0.177 HD
BRANCH  22  24
HETATM   24  C10 UNL     1      15.347  20.081 106.451  1.00  0.00     0.694 A
HETATM   25  N9  UNL     1      15.733  18.815 106.209  1.00  0.00    -0.131 N
HETATM   26  N10 UNL     1      15.294  18.402 105.021  1.00  0.00    -0.272 N
ATOM     27  H9  UNL     1      16.287  18.248 106.850  1.00  0.00     0.205 HD
HETATM   28  C11 UNL     1      14.606  19.425 104.476  1.00  0.00     0.136 A
ATOM     29  H10 UNL     1      15.449  17.485 104.603  1.00  0.00     0.189 HD
HETATM   30  N11 UNL     1      14.648  20.455 105.370  1.00  0.00    -0.176 N
ATOM     31  H11 UNL     1      14.214  21.368 105.237  1.00  0.00     0.185 HD
BRANCH  28  32
HETATM   32  C12 UNL     1      13.952  19.384 103.156  1.00  0.00     0.242 C
BRANCH  32  33
HETATM   33  O1  UNL     1      14.186  20.618 102.538  1.00  0.00    -0.393 OA
ATOM     34  H1  UNL     1      13.354  21.074 102.495  1.00  0.00     0.209 HD
ENDBRANCH  32  33
ENDBRANCH  28  32
ENDBRANCH  22  24
ENDBRANCH  21  22
ENDBRANCH  20  21
ENDBRANCH  11  20
ENDBRANCH   3   5
TORSDOF 8
ENDMDL