MODEL 2
REMARK VINA RESULT: -7.289997797      2.814      7.552
REMARK  8 active torsions:
REMARK  status: ('A' for Active; 'I' for Inactive)
REMARK       I    between atoms: C2_2  and  N1_4
REMARK    1  A    between atoms: N1_4  and  N2_6
REMARK       I    between atoms: N2_6  and  C3_8
REMARK    2  A    between atoms: C3_8  and  C4_10
REMARK    3  A    between atoms: C4_10  and  N3_12
REMARK    4  A    between atoms: N3_12  and  S1_14
REMARK    5  A    between atoms: S1_14  and  N4_17
REMARK    6  A    between atoms: N4_17  and  S2_19
REMARK    7  A    between atoms: C7_22  and  O6_23
REMARK    8  A    between atoms: O6_23  and  N5_24
ROOT
HETATM    1  S1  UNL     1      15.160  23.241 109.168  1.00  0.00     0.327 S
HETATM    2  O3  UNL     1      15.063  24.357 108.134  1.00  0.00    -0.182 OA
HETATM    3  O4  UNL     1      15.079  23.880 110.493  1.00  0.00    -0.182 OA
ENDROOT
BRANCH   1   4
HETATM    4  N3  UNL     1      16.613  22.402 108.840  1.00  0.00    -0.289 N
ATOM      5  H3  UNL     1      16.695  21.395 108.985  1.00  0.00     0.174 HD
BRANCH   4   6
HETATM    6  C4  UNL     1      17.693  23.175 108.358  1.00  0.00     0.184 C
HETATM    7  C5  UNL     1      18.812  22.348 107.751  1.00  0.00     0.043 C
BRANCH   6   8
HETATM    8  C3  UNL     1      18.304  23.925 109.475  1.00  0.00     0.259 C
HETATM    9  N2  UNL     1      18.864  23.261 110.611  1.00  0.00    -0.266 N
ATOM     10  H2  UNL     1      18.845  22.242 110.652  1.00  0.00     0.190 HD
HETATM   11  O2  UNL     1      18.348  25.194 109.456  1.00  0.00    -0.269 OA
BRANCH   9  12
HETATM   12  N1  UNL     1      19.431  23.964 111.654  1.00  0.00    -0.268 N
HETATM   13  C2  UNL     1      18.685  24.248 112.827  1.00  0.00     0.232 C
HETATM   14  C1  UNL     1      19.205  24.997 113.997  1.00  0.00     0.119 C
HETATM   15  O1  UNL     1      17.492  23.830 112.871  1.00  0.00    -0.272 OA
ATOM     16  H1  UNL     1      20.397  24.284 111.581  1.00  0.00     0.190 HD
ENDBRANCH   9  12
ENDBRANCH   6   8
ENDBRANCH   4   6
ENDBRANCH   1   4
BRANCH   1  17
HETATM   17  N4  UNL     1      13.759  22.255 108.911  1.00  0.00    -0.206 N
ATOM     18  H4  UNL     1      12.948  22.323 109.526  1.00  0.00     0.192 HD
BRANCH  17  19
HETATM   19  S2  UNL     1      13.777  21.278 107.732  1.00  0.00     0.162 S
HETATM   20  O5  UNL     1      12.446  20.718 107.341  1.00  0.00    -0.221 OA
HETATM   21  C6  UNL     1      14.757  21.759 106.323  1.00  0.00     0.211 C
HETATM   22  C7  UNL     1      15.341  20.364 106.496  1.00  0.00     0.320 C
HETATM   23  O7  UNL     1      14.999  20.129 107.854  1.00  0.00    -0.254 OA
BRANCH  22  24
HETATM   24  O6  UNL     1      14.687  19.397 105.736  1.00  0.00    -0.253 OA
BRANCH  24  25
HETATM   25  N5  UNL     1      15.577  18.506 105.294  1.00  0.00    -0.308 N
ATOM     26  H52 UNL     1      16.174  17.938 105.896  1.00  0.00     0.184 HD
ATOM     27  H51 UNL     1      15.560  18.490 104.275  1.00  0.00     0.184 HD
ENDBRANCH  24  25
ENDBRANCH  22  24
ENDBRANCH  17  19
ENDBRANCH   1  17
TORSDOF 8
ENDMDL