MODEL 3
REMARK VINA RESULT: -5.932294372      4.353      6.852
REMARK  8 active torsions:
REMARK  status: ('A' for Active; 'I' for Inactive)
REMARK    1  A    between atoms: N1_1  and  C1_4
REMARK    2  A    between atoms: C2_7  and  N3_8
REMARK    3  A    between atoms: N3_8  and  C3_10
REMARK    4  A    between atoms: C3_10  and  C4_11
REMARK    5  A    between atoms: C4_11  and  N4_12
REMARK    6  A    between atoms: N5_16  and  C8_17
REMARK    7  A    between atoms: C13_25  and  N7_26
REMARK    8  A    between atoms: N7_26  and  N8_28
ROOT
HETATM    1  C1  UNL     1      20.194  26.470 109.982  1.00  0.00     0.679 A
HETATM    2  N2  UNL     1      19.787  25.233 109.644  1.00  0.00    -0.176 N
ATOM      3  H2  UNL     1      19.833  24.948 108.665  1.00  0.00     0.186 HD
HETATM    4  C2  UNL     1      19.323  24.362 110.554  1.00  0.00     0.132 A
HETATM    5  C11 UNL     1      19.248  24.726 111.903  1.00  0.00     0.069 A
HETATM    6  C12 UNL     1      18.773  23.844 112.850  1.00  0.00     0.125 A
HETATM    7  N6  UNL     1      18.739  24.284 114.118  1.00  0.00    -0.199 N
ATOM      8  H6  UNL     1      18.394  23.661 114.848  1.00  0.00     0.183 HD
HETATM    9  C13 UNL     1      19.147  25.525 114.457  1.00  0.00     0.697 A
HETATM   10  N9  UNL     1      19.612  26.397 113.543  1.00  0.00    -0.174 N
ATOM     11  H9  UNL     1      19.917  27.331 113.816  1.00  0.00     0.186 HD
HETATM   12  C14 UNL     1      19.664  25.995 112.254  1.00  0.00     0.152 A
HETATM   13  N10 UNL     1      20.117  26.807 111.277  1.00  0.00    -0.175 N
ATOM     14  H10 UNL     1      20.421  27.744 111.542  1.00  0.00     0.186 HD
ENDROOT
BRANCH   4  15
HETATM   15  N3  UNL     1      18.925  23.173 110.276  1.00  0.00    -0.373 N
ATOM     16  H3  UNL     1      18.438  22.658 111.009  1.00  0.00     0.161 HD
BRANCH  15  17
HETATM   17  C3  UNL     1      19.111  22.512 109.017  1.00  0.00     0.141 C
BRANCH  17  18
HETATM   18  C4  UNL     1      18.161  23.138 108.009  1.00  0.00     0.141 C
BRANCH  18  19
HETATM   19  N4  UNL     1      16.909  22.487 108.098  1.00  0.00    -0.390 N
HETATM   20  C5  UNL     1      16.117  22.752 109.237  1.00  0.00     0.123 C
HETATM   21  C6  UNL     1      15.123  23.887 109.030  1.00  0.00     0.040 C
HETATM   22  C7  UNL     1      13.951  23.464 108.193  1.00  0.00     0.127 C
HETATM   23  N5  UNL     1      14.023  22.048 107.915  1.00  0.00    -0.354 N
HETATM   24  C9  UNL     1      15.019  21.356 107.153  1.00  0.00     0.169 C
HETATM   25  C10 UNL     1      16.259  22.153 106.897  1.00  0.00     0.078 C
BRANCH  23  26
HETATM   26  C8  UNL     1      12.993  21.234 108.454  1.00  0.00     0.351 C
HETATM   27  O1  UNL     1      13.022  20.808 109.629  1.00  0.00    -0.284 OA
ENDBRANCH  23  26
ENDBRANCH  18  19
ENDBRANCH  17  18
ENDBRANCH  15  17
ENDBRANCH   4  15
BRANCH   1  28
HETATM   28  N1  UNL     1      20.646  27.326 109.108  1.00  0.00    -0.234 N
ATOM     29  H12 UNL     1      21.625  27.297 108.822  1.00  0.00     0.174 HD
ATOM     30  H11 UNL     1      20.058  28.044 108.685  1.00  0.00     0.174 HD
ENDBRANCH   1  28
BRANCH   9  31
HETATM   31  N7  UNL     1      19.099  25.909 115.683  1.00  0.00    -0.138 N
ATOM     32  H7  UNL     1      18.457  25.464 116.339  1.00  0.00     0.205 HD
BRANCH  31  33
HETATM   33  N8  UNL     1      19.930  26.933 116.101  1.00  0.00    -0.331 N
ATOM     34  H82 UNL     1      20.255  27.623 115.424  1.00  0.00     0.177 HD
ATOM     35  H81 UNL     1      20.204  26.981 117.083  1.00  0.00     0.177 HD
ENDBRANCH  31  33
ENDBRANCH   9  31
TORSDOF 8
ENDMDL