MODEL 5
REMARK VINA RESULT: -6.209704791      1.466      1.675
REMARK  6 active torsions:
REMARK  status: ('A' for Active; 'I' for Inactive)
REMARK    1  A    between atoms: N1_2  and  C2_4
REMARK    2  A    between atoms: C3_7  and  N3_8
REMARK    3  A    between atoms: N3_8  and  O1_10
REMARK       I    between atoms: N5_16  and  C7_17
REMARK       I    between atoms: C7_17  and  N6_19
REMARK    4  A    between atoms: N6_19  and  C8_21
REMARK    5  A    between atoms: C8_21  and  C9_22
REMARK    6  A    between atoms: C9_22  and  N7_23
REMARK       I    between atoms: N7_23  and  C10_25
ROOT
HETATM    1  N7  UNL     1      15.486  20.251 107.391  1.00  0.00    -0.362 N
ATOM      2  H7  UNL     1      15.965  20.530 108.247  1.00  0.00     0.162 HD
HETATM    3  C10 UNL     1      16.125  19.294 106.533  1.00  0.00     0.197 C
HETATM    4  N8  UNL     1      15.372  18.814 105.435  1.00  0.00    -0.063 NA
HETATM    5  N9  UNL     1      17.336  18.902 106.781  1.00  0.00    -0.268 N
ATOM      6  H9  UNL     1      17.841  19.274 107.586  1.00  0.00     0.180 HD
HETATM    7  C11 UNL     1      17.938  17.975 105.946  1.00  0.00     0.184 C
HETATM    8  N10 UNL     1      18.456  17.198 105.230  1.00  0.00    -0.172 NA
ENDROOT
BRANCH   1   9
HETATM    9  C9  UNL     1      14.210  20.835 107.104  1.00  0.00     0.142 C
BRANCH   9  10
HETATM   10  C8  UNL     1      14.030  22.230 107.663  1.00  0.00     0.144 C
BRANCH  10  11
HETATM   11  N6  UNL     1      14.784  22.376 108.869  1.00  0.00    -0.341 N
HETATM   12  C7  UNL     1      15.892  23.257 108.947  1.00  0.00     0.329 C
HETATM   13  N5  UNL     1      16.627  23.388 110.154  1.00  0.00    -0.243 N
HETATM   14  O2  UNL     1      16.189  23.905 107.914  1.00  0.00    -0.246 OA
HETATM   15  C6  UNL     1      16.362  22.720 111.311  1.00  0.00     0.195 A
HETATM   16  C12 UNL     1      17.698  24.156 110.415  1.00  0.00     0.163 A
HETATM   17  N4  UNL     1      17.252  23.077 112.251  1.00  0.00    -0.346 N
HETATM   18  C5  UNL     1      18.111  23.974 111.742  1.00  0.00     0.125 A
ATOM     19  H4  UNL     1      17.272  22.721 113.206  1.00  0.00     0.167 HD
HETATM   20  C3  UNL     1      19.192  24.647 112.267  1.00  0.00     0.171 A
HETATM   21  N2  UNL     1      19.842  25.492 111.451  1.00  0.00    -0.173 N
HETATM   22  C2  UNL     1      19.441  25.664 110.175  1.00  0.00     0.681 A
ATOM     23  H2  UNL     1      20.649  26.011 111.800  1.00  0.00     0.186 HD
HETATM   24  N11 UNL     1      18.386  25.013 109.650  1.00  0.00    -0.174 N
ATOM     25  H11 UNL     1      18.113  25.171 108.679  1.00  0.00     0.186 HD
ATOM     26  H6  UNL     1      14.519  21.834 109.691  1.00  0.00     0.164 HD
BRANCH  20  27
HETATM   27  N3  UNL     1      19.537  24.452 113.489  1.00  0.00    -0.248 N
ATOM     28  H3  UNL     1      20.433  24.012 113.698  1.00  0.00     0.196 HD
BRANCH  27  29
HETATM   29  O1  UNL     1      18.720  24.826 114.502  1.00  0.00    -0.284 OA
HETATM   30  C4  UNL     1      18.832  26.125 115.039  1.00  0.00     0.237 C
ENDBRANCH  27  29
ENDBRANCH  20  27
BRANCH  22  31
HETATM   31  N1  UNL     1      20.079  26.486 109.384  1.00  0.00    -0.230 N
HETATM   32  C1  UNL     1      20.496  27.772 109.894  1.00  0.00     0.165 C
ATOM     33  H1  UNL     1      20.281  26.222 108.420  1.00  0.00     0.177 HD
ENDBRANCH  22  31
ENDBRANCH  10  11
ENDBRANCH   9  10
ENDBRANCH   1   9
TORSDOF 6
ENDMDL