MODEL 2
REMARK VINA RESULT: -6.651335398      1.906      1.982
REMARK  8 active torsions:
REMARK  status: ('A' for Active; 'I' for Inactive)
REMARK    1  A    between atoms: C2_2  and  N1_3
REMARK    2  A    between atoms: C2_2  and  C3_7
REMARK       I    between atoms: C3_7  and  N2_9
REMARK    3  A    between atoms: N2_9  and  C4_11
REMARK    4  A    between atoms: C4_11  and  O2_13
REMARK    5  A    between atoms: C4_11  and  C6_15
REMARK       I    between atoms: C6_15  and  N3_17
REMARK    6  A    between atoms: N3_17  and  C7_19
REMARK    7  A    between atoms: C8_24  and  S1_25
REMARK    8  A    between atoms: S1_25  and  N6_26
ROOT
HETATM    1  C6  UNL     1      15.803  22.519 107.553  1.00  0.00     0.279 C
HETATM    2  O3  UNL     1      16.871  22.770 106.914  1.00  0.00    -0.268 OA
HETATM    3  N3  UNL     1      14.770  21.942 106.767  1.00  0.00    -0.302 N
ATOM      4  H3  UNL     1      13.893  22.443 106.624  1.00  0.00     0.171 HD
ENDROOT
BRANCH   1   5
HETATM    5  C4  UNL     1      15.723  22.828 108.981  1.00  0.00     0.213 C
HETATM    6  C5  UNL     1      14.638  23.869 109.229  1.00  0.00     0.082 C
BRANCH   5   7
HETATM    7  N2  UNL     1      16.983  23.237 109.532  1.00  0.00    -0.320 N
HETATM    8  C3  UNL     1      17.338  23.244 110.892  1.00  0.00     0.250 C
HETATM    9  O1  UNL     1      16.586  22.880 111.837  1.00  0.00    -0.271 OA
ATOM     10  H2  UNL     1      17.692  23.553 108.870  1.00  0.00     0.166 HD
BRANCH   8  11
HETATM   11  C2  UNL     1      18.713  23.716 111.275  1.00  0.00     0.270 C
HETATM   12  C1  UNL     1      18.707  24.145 112.715  1.00  0.00     0.050 C
BRANCH  11  13
HETATM   13  N1  UNL     1      19.155  24.751 110.385  1.00  0.00    -0.067 N
ATOM     14  H13 UNL     1      19.120  24.438 109.414  1.00  0.00     0.275 HD
ATOM     15  H12 UNL     1      18.474  25.509 110.339  1.00  0.00     0.275 HD
ATOM     16  H11 UNL     1      20.081  25.108 110.620  1.00  0.00     0.275 HD
ENDBRANCH  11  13
ENDBRANCH   8  11
ENDBRANCH   5   7
BRANCH   5  17
HETATM   17  O2  UNL     1      15.355  21.629 109.638  1.00  0.00    -0.363 OA
ATOM     18  H2  UNL     1      15.322  21.823 110.567  1.00  0.00     0.213 HD
ENDBRANCH   5  17
ENDBRANCH   1   5
BRANCH   3  19
HETATM   19  C7  UNL     1      14.951  20.759 106.224  1.00  0.00     0.168 A
HETATM   20  N4  UNL     1      15.662  19.736 106.704  1.00  0.00    -0.278 N
HETATM   21  N5  UNL     1      15.719  18.664 106.030  1.00  0.00    -0.281 N
ATOM     22  H4  UNL     1      16.150  19.816 107.596  1.00  0.00     0.189 HD
HETATM   23  C8  UNL     1      15.083  18.569 104.872  1.00  0.00     0.208 A
ATOM     24  H5  UNL     1      16.256  17.872 106.381  1.00  0.00     0.188 HD
HETATM   25  S2  UNL     1      14.363  20.114 104.754  1.00  0.00    -0.020 SA
BRANCH  23  26
HETATM   26  S1  UNL     1      15.038  17.172 103.790  1.00  0.00     0.280 S
HETATM   27  O4  UNL     1      14.327  17.520 102.516  1.00  0.00    -0.199 OA
HETATM   28  O5  UNL     1      16.468  16.792 103.467  1.00  0.00    -0.199 OA
BRANCH  26  29
HETATM   29  N6  UNL     1      14.277  15.826 104.537  1.00  0.00    -0.323 N
ATOM     30  H62 UNL     1      13.412  15.407 104.194  1.00  0.00     0.169 HD
ATOM     31  H61 UNL     1      14.798  15.509 105.354  1.00  0.00     0.169 HD
ENDBRANCH  26  29
ENDBRANCH  23  26
ENDBRANCH   3  19
TORSDOF 8
ENDMDL