MODEL 3
REMARK VINA RESULT: 1.454780920      1.914      3.613
REMARK  6 active torsions:
REMARK  status: ('A' for Active; 'I' for Inactive)
REMARK    1  A    between atoms: C2_2  and  C3_3
REMARK    2  A    between atoms: C3_3  and  C4_4
REMARK    3  A    between atoms: C4_4  and  C5_5
REMARK    4  A    between atoms: N4_19  and  N5_20
REMARK    5  A    between atoms: C13_24  and  N6_25
REMARK    6  A    between atoms: N7_28  and  N8_29
ROOT
HETATM    1  C5  UNL     1      19.054  23.634 111.528  1.00  0.00    -0.014 C
HETATM    2  C6  UNL     1      19.125  24.631 110.628  1.00  0.00    -0.022 A
HETATM    3  C7  UNL     1      20.160  25.500 110.761  1.00  0.00     0.029 A
HETATM    4  C8  UNL     1      20.135  26.730 110.084  1.00  0.00     0.090 A
HETATM    5  N1  UNL     1      19.090  26.983 109.342  1.00  0.00    -0.352 N
ATOM      6  H1  UNL     1      19.053  27.875 108.849  1.00  0.00     0.166 HD
HETATM    7  C9  UNL     1      18.049  26.122 109.192  1.00  0.00     0.112 A
HETATM    8  N2  UNL     1      17.113  26.444 108.414  1.00  0.00    -0.385 N
ATOM      9  H21 UNL     1      16.332  25.798 108.302  1.00  0.00     0.157 HD
ATOM     10  H22 UNL     1      17.140  27.351 107.948  1.00  0.00     0.157 HD
HETATM   11  C10 UNL     1      18.012  24.846 109.848  1.00  0.00     0.051 A
HETATM   12  C11 UNL     1      17.225  23.931 109.309  1.00  0.00     0.134 A
HETATM   13  N3  UNL     1      16.066  24.319 108.589  1.00  0.00    -0.272 N
ATOM     14  H3  UNL     1      15.743  25.276 108.735  1.00  0.00     0.189 HD
HETATM   15  N4  UNL     1      15.325  23.552 107.714  1.00  0.00    -0.182 N
HETATM   16  C12 UNL     1      15.726  22.186 107.468  1.00  0.00     0.184 A
HETATM   17  C13 UNL     1      15.002  21.472 106.629  1.00  0.00     0.139 C
HETATM   18  N7  UNL     1      16.865  21.706 108.136  1.00  0.00    -0.204 N
HETATM   19  C16 UNL     1      17.634  22.542 109.055  1.00  0.00     0.297 A
HETATM   20  O1  UNL     1      18.615  21.932 109.527  1.00  0.00    -0.264 OA
ENDROOT
BRANCH  15  21
HETATM   21  N5  UNL     1      14.192  24.034 107.051  1.00  0.00    -0.322 N
ATOM     22  H52 UNL     1      13.359  24.231 107.606  1.00  0.00     0.179 HD
ATOM     23  H51 UNL     1      14.167  24.198 106.045  1.00  0.00     0.179 HD
ENDBRANCH  15  21
BRANCH  18  24
HETATM   24  N8  UNL     1      17.305  20.368 107.934  1.00  0.00    -0.334 N
ATOM     25  H82 UNL     1      16.766  19.782 107.296  1.00  0.00     0.177 HD
ATOM     26  H81 UNL     1      18.134  20.021 108.416  1.00  0.00     0.177 HD
ENDBRANCH  18  24
BRANCH   1  27
HETATM   27  C4  UNL     1      20.037  23.463 112.596  1.00  0.00     0.028 C
BRANCH  27  28
HETATM   28  C3  UNL     1      19.621  23.921 113.952  1.00  0.00     0.003 C
BRANCH  28  29
HETATM   29  C2  UNL     1      18.700  25.090 113.984  1.00  0.00    -0.004 C
HETATM   30  C1  UNL     1      19.146  26.100 115.017  1.00  0.00     0.005 C
ENDBRANCH  28  29
ENDBRANCH  27  28
ENDBRANCH   1  27
BRANCH  17  31
HETATM   31  N6  UNL     1      15.234  20.127 106.262  1.00  0.00    -0.395 N
HETATM   32  C14 UNL     1      14.743  19.605 104.974  1.00  0.00     0.148 C
HETATM   33  C15 UNL     1      15.935  19.168 107.124  1.00  0.00     0.148 C
ENDBRANCH  17  31
TORSDOF 6
ENDMDL