MODEL 4
REMARK VINA RESULT: -4.412688692      2.988      6.412
REMARK  7 active torsions:
REMARK  status: ('A' for Active; 'I' for Inactive)
REMARK    1  A    between atoms: C4_7  and  C5_8
REMARK       I    between atoms: C5_8  and  N3_10
REMARK    2  A    between atoms: N3_10  and  C6_12
REMARK    3  A    between atoms: C6_12  and  C7_13
REMARK    4  A    between atoms: C6_12  and  C8_23
REMARK       I    between atoms: C7_13  and  N4_15
REMARK    5  A    between atoms: N4_15  and  S1_17
REMARK    6  A    between atoms: S1_17  and  N5_18
REMARK    7  A    between atoms: C8_23  and  N6_26
ROOT
HETATM    1  C6  UNL     1      17.968  24.372 110.998  1.00  0.00     0.212 C
ENDROOT
BRANCH   1   2
HETATM    2  N3  UNL     1      17.518  23.471 109.882  1.00  0.00    -0.340 N
HETATM    3  C5  UNL     1      16.145  23.246 109.724  1.00  0.00     0.272 C
HETATM    4  O1  UNL     1      15.407  23.742 110.656  1.00  0.00    -0.266 OA
ATOM      5  H3  UNL     1      18.196  23.035 109.256  1.00  0.00     0.163 HD
BRANCH   3   6
HETATM    6  C4  UNL     1      15.472  22.552 108.671  1.00  0.00     0.144 A
HETATM    7  N2  UNL     1      14.175  22.616 108.251  1.00  0.00    -0.290 N
HETATM    8  N1  UNL     1      13.931  21.665 107.363  1.00  0.00    -0.301 N
HETATM    9  C3  UNL     1      13.198  23.532 108.790  1.00  0.00     0.178 C
HETATM   10  C2  UNL     1      15.001  20.930 107.133  1.00  0.00     0.049 A
ATOM     11  H1  UNL     1      13.027  21.519 106.913  1.00  0.00     0.187 HD
HETATM   12  C1  UNL     1      15.197  19.771 106.200  1.00  0.00     0.072 C
HETATM   13  C11 UNL     1      16.000  21.467 107.951  1.00  0.00     0.103 A
HETATM   14  N7  UNL     1      17.361  21.015 107.979  1.00  0.00    -0.098 NA
ENDBRANCH   3   6
ENDBRANCH   1   2
BRANCH   1  15
HETATM   15  C7  UNL     1      19.080  25.170 110.351  1.00  0.00     0.257 C
HETATM   16  O2  UNL     1      19.782  24.731 109.483  1.00  0.00    -0.270 OA
HETATM   17  N4  UNL     1      19.271  26.535 110.792  1.00  0.00    -0.236 N
ATOM     18  H4  UNL     1      18.680  26.874 111.552  1.00  0.00     0.183 HD
BRANCH  17  19
HETATM   19  S1  UNL     1      20.404  27.611 110.141  1.00  0.00     0.319 S
HETATM   20  O3  UNL     1      21.703  27.483 110.902  1.00  0.00    -0.183 OA
HETATM   21  O4  UNL     1      19.856  29.036 110.233  1.00  0.00    -0.183 OA
BRANCH  19  22
HETATM   22  N5  UNL     1      20.657  27.289 108.480  1.00  0.00    -0.311 N
ATOM     23  H52 UNL     1      20.380  26.421 108.021  1.00  0.00     0.170 HD
ATOM     24  H51 UNL     1      21.117  28.078 108.026  1.00  0.00     0.170 HD
ENDBRANCH  19  22
ENDBRANCH  17  19
ENDBRANCH   1  15
BRANCH   1  25
HETATM   25  C8  UNL     1      18.435  23.755 112.227  1.00  0.00     0.145 C
HETATM   26  C9  UNL     1      17.627  22.646 112.828  1.00  0.00     0.048 C
HETATM   27  C10 UNL     1      18.637  24.747 113.368  1.00  0.00     0.048 C
BRANCH  25  28
HETATM   28  N6  UNL     1      19.784  23.255 111.955  1.00  0.00    -0.069 N
ATOM     29  H63 UNL     1      19.864  22.778 111.058  1.00  0.00     0.275 HD
ATOM     30  H62 UNL     1      20.458  23.997 111.767  1.00  0.00     0.275 HD
ATOM     31  H61 UNL     1      20.041  22.669 112.749  1.00  0.00     0.275 HD
ENDBRANCH  25  28
ENDBRANCH   1  25
TORSDOF 7
ENDMDL