MODEL 3
REMARK VINA RESULT: -6.469532762      3.454      9.377
REMARK  7 active torsions:
REMARK  status: ('A' for Active; 'I' for Inactive)
REMARK    1  A    between atoms: N1_1  and  C1_4
REMARK    2  A    between atoms: C3_8  and  N3_9
REMARK    3  A    between atoms: C6_12  and  N4_13
REMARK       I    between atoms: N5_16  and  C9_17
REMARK    4  A    between atoms: C9_17  and  C10_19
REMARK    5  A    between atoms: C10_19  and  N6_20
REMARK    6  A    between atoms: C10_19  and  C11_24
REMARK    7  A    between atoms: C11_24  and  O2_25
ROOT
HETATM    1  N3  UNL     1      18.774  23.478 110.367  1.00  0.00    -0.377 N
HETATM    2  C4  UNL     1      19.710  23.599 109.271  1.00  0.00     0.125 C
HETATM    3  C5  UNL     1      18.831  23.447 108.052  1.00  0.00     0.046 C
HETATM    4  C6  UNL     1      17.447  23.122 108.560  1.00  0.00     0.098 C
HETATM    5  C14 UNL     1      17.771  22.536 109.912  1.00  0.00     0.148 C
ENDROOT
BRANCH   4   6
HETATM    6  N4  UNL     1      16.655  22.321 107.732  1.00  0.00    -0.403 N
HETATM    7  C7  UNL     1      17.012  20.946 107.632  1.00  0.00     0.137 C
HETATM    8  C8  UNL     1      15.797  20.040 107.511  1.00  0.00     0.145 C
HETATM    9  N5  UNL     1      15.093  20.522 106.295  1.00  0.00    -0.347 N
HETATM   10  C9  UNL     1      14.759  19.600 105.283  1.00  0.00     0.252 C
HETATM   11  C12 UNL     1      14.808  21.924 106.265  1.00  0.00     0.145 C
HETATM   12  O1  UNL     1      15.089  18.370 105.480  1.00  0.00    -0.271 OA
HETATM   13  C13 UNL     1      15.297  22.625 107.534  1.00  0.00     0.137 C
BRANCH  10  14
HETATM   14  C10 UNL     1      14.076  19.852 104.012  1.00  0.00     0.298 C
BRANCH  14  15
HETATM   15  N6  UNL     1      14.649  20.972 103.336  1.00  0.00    -0.064 N
ATOM     16  H63 UNL     1      15.464  20.703 102.785  1.00  0.00     0.275 HD
ATOM     17  H62 UNL     1      14.051  21.299 102.577  1.00  0.00     0.275 HD
ATOM     18  H61 UNL     1      14.868  21.722 103.992  1.00  0.00     0.275 HD
ENDBRANCH  14  15
BRANCH  14  19
HETATM   19  C11 UNL     1      14.131  18.582 103.176  1.00  0.00     0.206 C
BRANCH  19  20
HETATM   20  O2  UNL     1      14.197  18.987 101.825  1.00  0.00    -0.398 OA
ATOM     21  H2  UNL     1      14.746  19.761 101.797  1.00  0.00     0.209 HD
ENDBRANCH  19  20
ENDBRANCH  14  19
ENDBRANCH  10  14
ENDBRANCH   4   6
BRANCH   1  22
HETATM   22  C3  UNL     1      18.863  24.159 111.612  1.00  0.00     0.062 A
HETATM   23  C2  UNL     1      19.786  25.155 111.846  1.00  0.00     0.136 A
HETATM   24  N2  UNL     1      19.824  25.765 113.055  1.00  0.00    -0.200 N
HETATM   25  C1  UNL     1      18.996  25.449 114.056  1.00  0.00     0.675 A
ATOM     26  H2  UNL     1      20.515  26.500 113.208  1.00  0.00     0.183 HD
HETATM   27  N7  UNL     1      18.089  24.482 113.851  1.00  0.00    -0.200 N
HETATM   28  C15 UNL     1      18.014  23.839 112.649  1.00  0.00     0.136 A
ATOM     29  H7  UNL     1      17.448  24.223 114.601  1.00  0.00     0.183 HD
BRANCH  25  30
HETATM   30  N1  UNL     1      19.040  26.043 115.221  1.00  0.00    -0.234 N
ATOM     31  H12 UNL     1      18.332  26.741 115.448  1.00  0.00     0.174 HD
ATOM     32  H11 UNL     1      19.757  25.835 115.917  1.00  0.00     0.174 HD
ENDBRANCH  25  30
ENDBRANCH   1  22
TORSDOF 7
ENDMDL