MODEL 5
REMARK VINA RESULT: -7.764138574      1.147      1.358
REMARK  8 active torsions:
REMARK  status: ('A' for Active; 'I' for Inactive)
REMARK    1  A    between atoms: C3_3  and  C4_4
REMARK    2  A    between atoms: C5_5  and  C6_6
REMARK    3  A    between atoms: N3_17  and  C12_18
REMARK    4  A    between atoms: C12_18  and  C13_19
REMARK    5  A    between atoms: C13_19  and  C14_20
REMARK    6  A    between atoms: C14_20  and  C15_21
REMARK    7  A    between atoms: C16_22  and  C17_23
REMARK    8  A    between atoms: C19_27  and  N5_28
ROOT
HETATM    1  C1  UNL     1      22.942   9.872  29.760  1.00  0.00     0.070 C
HETATM    2  C2  UNL     1      23.821  10.800  28.999  1.00  0.00     0.026 A
HETATM    3  C3  UNL     1      23.177  11.950  28.486  1.00  0.00     0.040 A
HETATM    4  C9  UNL     1      23.917  12.863  27.788  1.00  0.00     0.024 A
HETATM    5  C10 UNL     1      25.277  12.667  27.583  1.00  0.00     0.019 A
HETATM    6  C11 UNL     1      25.883  11.555  28.082  1.00  0.00     0.091 A
HETATM    7  N3  UNL     1      25.127  10.652  28.779  1.00  0.00    -0.359 N
ENDROOT
BRANCH   7   8
HETATM    8  C12 UNL     1      25.832   9.499  29.248  1.00  0.00     0.129 C
BRANCH   8   9
HETATM    9  C13 UNL     1      27.175   9.252  28.672  1.00  0.00     0.032 C
BRANCH   9  10
HETATM   10  C14 UNL     1      28.344   9.366  29.603  1.00  0.00     0.096 C
BRANCH  10  11
HETATM   11  C15 UNL     1      29.292   8.279  29.214  1.00  0.00    -0.100 C
HETATM   12  C16 UNL     1      30.053   7.397  28.919  1.00  0.00    -0.047 C
BRANCH  12  13
HETATM   13  C17 UNL     1      30.980   6.323  28.587  1.00  0.00     0.118 A
HETATM   14  C18 UNL     1      30.899   5.012  28.992  1.00  0.00     0.145 A
HETATM   15  N4  UNL     1      31.952   4.378  28.459  1.00  0.00    -0.199 N
HETATM   16  C19 UNL     1      32.687   5.240  27.739  1.00  0.00     0.676 A
ATOM     17  H4  UNL     1      32.164   3.387  28.582  1.00  0.00     0.183 HD
HETATM   18  N6  UNL     1      32.076   6.430  27.828  1.00  0.00    -0.183 N
ATOM     19  H6  UNL     1      32.398   7.289  27.383  1.00  0.00     0.185 HD
BRANCH  16  20
HETATM   20  N5  UNL     1      33.780   4.955  27.086  1.00  0.00    -0.234 N
ATOM     21  H52 UNL     1      34.627   4.521  27.452  1.00  0.00     0.174 HD
ATOM     22  H51 UNL     1      33.947   5.129  26.095  1.00  0.00     0.174 HD
ENDBRANCH  16  20
ENDBRANCH  12  13
ENDBRANCH  10  11
ENDBRANCH   9  10
ENDBRANCH   8   9
ENDBRANCH   7   8
BRANCH   3  23
HETATM   23  C4  UNL     1      21.775  12.173  28.686  1.00  0.00    -0.058 C
HETATM   24  C5  UNL     1      20.590  12.361  28.849  1.00  0.00    -0.042 C
BRANCH  24  25
HETATM   25  C6  UNL     1      19.180  12.581  29.026  1.00  0.00     0.106 A
HETATM   26  C7  UNL     1      18.270  12.700  28.004  1.00  0.00     0.132 A
HETATM   27  N1  UNL     1      17.043  12.898  28.519  1.00  0.00    -0.316 N
HETATM   28  C8  UNL     1      17.157  12.907  29.864  1.00  0.00     0.325 A
ATOM     29  H1  UNL     1      16.181  13.020  27.988  1.00  0.00     0.170 HD
HETATM   30  O1  UNL     1      16.260  13.062  30.707  1.00  0.00    -0.247 OA
HETATM   31  N2  UNL     1      18.469  12.712  30.159  1.00  0.00    -0.300 N
ATOM     32  H2  UNL     1      18.857  12.672  31.102  1.00  0.00     0.171 HD
ENDBRANCH  24  25
ENDBRANCH   3  23
TORSDOF 8
ENDMDL