MODEL 4
REMARK VINA RESULT: -7.107262309      6.719      8.275
REMARK  5 active torsions:
REMARK  status: ('A' for Active; 'I' for Inactive)
REMARK    1  A    between atoms: C6_7  and  C7_8
REMARK    2  A    between atoms: C7_8  and  C8_9
REMARK    3  A    between atoms: C14_16  and  C15_17
REMARK    4  A    between atoms: C16_18  and  C17_19
REMARK    5  A    between atoms: C18_24  and  O1_25
ROOT
HETATM    1  C8  UNL     1      21.544  13.257  29.414  1.00  0.00     0.065 A
HETATM    2  C9  UNL     1      21.531  12.293  28.411  1.00  0.00     0.023 A
HETATM    3  C10 UNL     1      20.755  12.152  27.265  1.00  0.00     0.033 A
HETATM    4  C11 UNL     1      21.124  11.028  26.630  1.00  0.00     0.092 A
HETATM    5  N2  UNL     1      22.129  10.409  27.320  1.00  0.00    -0.359 N
HETATM    6  C12 UNL     1      22.672   9.115  26.988  1.00  0.00     0.156 C
HETATM    7  C13 UNL     1      22.432  11.129  28.409  1.00  0.00     0.075 A
HETATM    8  C14 UNL     1      23.334  10.984  29.431  1.00  0.00     0.076 A
HETATM    9  N5  UNL     1      23.264  11.985  30.371  1.00  0.00    -0.296 N
ATOM     10  H5  UNL     1      23.913  11.915  31.154  1.00  0.00     0.187 HD
HETATM   11  N6  UNL     1      22.468  13.007  30.374  1.00  0.00    -0.295 N
HETATM   12  C19 UNL     1      22.615  13.936  31.500  1.00  0.00     0.178 C
ENDROOT
BRANCH   8  13
HETATM   13  C15 UNL     1      24.450  10.095  29.503  1.00  0.00     0.036 C
HETATM   14  C16 UNL     1      25.599   9.998  28.956  1.00  0.00     0.038 C
BRANCH  14  15
HETATM   15  C17 UNL     1      26.534   8.888  29.282  1.00  0.00     0.100 A
HETATM   16  N3  UNL     1      27.492   8.645  30.200  1.00  0.00    -0.295 N
HETATM   17  N4  UNL     1      27.783   7.432  29.715  1.00  0.00    -0.278 N
ATOM     18  H3  UNL     1      27.860   9.188  30.981  1.00  0.00     0.187 HD
HETATM   19  C18 UNL     1      26.833   7.638  28.779  1.00  0.00     0.183 A
ATOM     20  H4  UNL     1      28.436   6.683  29.949  1.00  0.00     0.189 HD
BRANCH  19  21
HETATM   21  O1  UNL     1      26.353   6.883  27.731  1.00  0.00    -0.343 OA
ATOM     22  H1  UNL     1      26.229   5.952  27.585  1.00  0.00     0.219 HD
ENDBRANCH  19  21
ENDBRANCH  14  15
ENDBRANCH   8  13
BRANCH   1  23
HETATM   23  C7  UNL     1      20.617  14.365  29.461  1.00  0.00     0.061 C
BRANCH  23  24
HETATM   24  C6  UNL     1      19.214  14.288  29.125  1.00  0.00     0.035 A
HETATM   25  N1  UNL     1      18.533  14.911  28.179  1.00  0.00    -0.361 N
HETATM   26  C1  UNL     1      19.141  15.835  27.252  1.00  0.00     0.155 C
HETATM   27  C2  UNL     1      17.181  14.736  28.030  1.00  0.00     0.090 A
HETATM   28  C3  UNL     1      16.424  13.929  28.819  1.00  0.00     0.017 A
HETATM   29  C4  UNL     1      17.086  13.256  29.825  1.00  0.00     0.004 A
HETATM   30  C5  UNL     1      18.425  13.449  29.949  1.00  0.00     0.029 A
ENDBRANCH  23  24
ENDBRANCH   1  23
TORSDOF 5
ENDMDL