MODEL 1
REMARK VINA RESULT: -7.597442710      0.000      0.000
REMARK  10 active torsions:
REMARK  status: ('A' for Active; 'I' for Inactive)
REMARK    1  A    between atoms: N1_1  and  C1_4
REMARK    2  A    between atoms: C2_7  and  N3_8
REMARK    3  A    between atoms: N4_15  and  C7_16
REMARK    4  A    between atoms: C7_16  and  C8_17
REMARK    5  A    between atoms: C8_17  and  C9_18
REMARK    6  A    between atoms: C10_19  and  C11_20
REMARK    7  A    between atoms: C11_20  and  C12_21
REMARK    8  A    between atoms: C13_22  and  C14_23
REMARK    9  A    between atoms: C14_23  and  C15_24
REMARK   10  A    between atoms: C15_24  and  N5_25
ROOT
HETATM    1  C1  UNL     1      19.708  11.366  25.313  1.00  0.00     0.679 A
HETATM    2  N2  UNL     1      18.747  12.013  25.982  1.00  0.00    -0.176 N
ATOM      3  H2  UNL     1      17.957  12.403  25.470  1.00  0.00     0.186 HD
HETATM    4  C2  UNL     1      18.806  12.161  27.339  1.00  0.00     0.128 A
HETATM    5  C3  UNL     1      19.900  11.614  27.980  1.00  0.00     0.053 A
HETATM    6  C4  UNL     1      19.979  11.762  29.358  1.00  0.00     0.020 A
HETATM    7  C5  UNL     1      21.065  11.228  30.015  1.00  0.00     0.018 A
HETATM    8  C6  UNL     1      22.003  10.580  29.253  1.00  0.00     0.092 A
HETATM    9  N4  UNL     1      21.928  10.435  27.912  1.00  0.00    -0.341 N
HETATM   10  C19 UNL     1      20.887  10.945  27.262  1.00  0.00     0.137 A
HETATM   11  N7  UNL     1      20.766  10.834  25.911  1.00  0.00    -0.176 N
ATOM     12  H7  UNL     1      21.479  10.349  25.366  1.00  0.00     0.186 HD
ENDROOT
BRANCH   9  13
HETATM   13  C7  UNL     1      22.963   9.716  27.213  1.00  0.00     0.142 C
BRANCH  13  14
HETATM   14  C8  UNL     1      24.122  10.595  26.791  1.00  0.00     0.114 C
BRANCH  14  15
HETATM   15  C9  UNL     1      25.273  10.206  27.607  1.00  0.00    -0.104 C
HETATM   16  C10 UNL     1      26.223   9.893  28.303  1.00  0.00    -0.095 C
BRANCH  16  17
HETATM   17  C11 UNL     1      27.353   9.528  29.159  1.00  0.00     0.187 C
BRANCH  17  18
HETATM   18  C12 UNL     1      27.834   8.181  28.877  1.00  0.00    -0.095 C
HETATM   19  C13 UNL     1      28.250   7.076  28.652  1.00  0.00    -0.104 C
BRANCH  19  20
HETATM   20  C14 UNL     1      28.775   5.742  28.393  1.00  0.00     0.114 C
BRANCH  20  21
HETATM   21  C15 UNL     1      29.988   5.449  29.279  1.00  0.00     0.141 C
BRANCH  21  22
HETATM   22  N5  UNL     1      31.184   5.336  28.497  1.00  0.00    -0.351 N
HETATM   23  C16 UNL     1      32.237   4.505  28.737  1.00  0.00     0.108 A
HETATM   24  C17 UNL     1      33.189   4.693  27.762  1.00  0.00     0.106 A
HETATM   25  N6  UNL     1      32.709   5.632  26.945  1.00  0.00    -0.361 N
HETATM   26  C18 UNL     1      31.510   6.018  27.380  1.00  0.00     0.182 A
ATOM     27  H6  UNL     1      33.183   5.995  26.118  1.00  0.00     0.166 HD
ENDBRANCH  21  22
ENDBRANCH  20  21
ENDBRANCH  19  20
ENDBRANCH  17  18
ENDBRANCH  16  17
ENDBRANCH  14  15
ENDBRANCH  13  14
ENDBRANCH   9  13
BRANCH   4  28
HETATM   28  N3  UNL     1      17.864  12.785  27.912  1.00  0.00    -0.384 N
ATOM     29  H32 UNL     1      17.505  13.696  27.625  1.00  0.00     0.157 HD
ATOM     30  H31 UNL     1      17.424  12.349  28.723  1.00  0.00     0.157 HD
ENDBRANCH   4  28
BRANCH   1  31
HETATM   31  N1  UNL     1      19.609  11.249  24.020  1.00  0.00    -0.234 N
ATOM     32  H12 UNL     1      20.076  11.944  23.438  1.00  0.00     0.174 HD
ATOM     33  H11 UNL     1      19.073  10.474  23.632  1.00  0.00     0.174 HD
ENDBRANCH   1  31
TORSDOF 10
ENDMDL