MODEL 4
REMARK VINA RESULT: -7.247157653      3.607      5.770
REMARK  5 active torsions:
REMARK  status: ('A' for Active; 'I' for Inactive)
REMARK    1  A    between atoms: C2_2  and  C3_3
REMARK    2  A    between atoms: C5_5  and  C6_6
REMARK    3  A    between atoms: C6_6  and  C7_7
REMARK    4  A    between atoms: C8_10  and  N2_11
REMARK    5  A    between atoms: C10_17  and  C11_18
ROOT
HETATM    1  C7  UNL     1      22.872  11.485  28.184  1.00  0.00     0.103 A
HETATM    2  N1  UNL     1      22.518  10.939  29.358  1.00  0.00    -0.188 N
ATOM      3  H1  UNL     1      21.605  11.142  29.765  1.00  0.00     0.184 HD
HETATM    4  C8  UNL     1      23.375  10.124  29.990  1.00  0.00     0.677 A
HETATM    5  N3  UNL     1      24.590   9.827  29.489  1.00  0.00    -0.188 N
ATOM      6  H3  UNL     1      25.206   9.201  30.007  1.00  0.00     0.184 HD
HETATM    7  C9  UNL     1      25.002  10.343  28.318  1.00  0.00     0.103 A
HETATM    8  C10 UNL     1      26.201  10.062  27.802  1.00  0.00     0.063 C
HETATM    9  C16 UNL     1      24.115  11.179  27.676  1.00  0.00     0.226 A
HETATM   10  O1  UNL     1      24.498  11.674  26.562  1.00  0.00    -0.283 OA
ENDROOT
BRANCH   1  11
HETATM   11  C6  UNL     1      22.029  12.290  27.557  1.00  0.00     0.064 C
BRANCH  11  12
HETATM   12  C5  UNL     1      20.655  12.488  27.991  1.00  0.00     0.036 A
HETATM   13  C4  UNL     1      20.414  13.150  29.187  1.00  0.00     0.041 A
HETATM   14  C3  UNL     1      19.171  13.388  29.684  1.00  0.00    -0.028 A
HETATM   15  C19 UNL     1      18.072  12.948  28.961  1.00  0.00    -0.036 A
HETATM   16  C18 UNL     1      18.316  12.295  27.781  1.00  0.00     0.098 A
HETATM   17  C20 UNL     1      16.678  13.182  29.457  1.00  0.00     0.050 C
HETATM   18  N5  UNL     1      19.577  12.071  27.308  1.00  0.00    -0.361 N
HETATM   19  C17 UNL     1      19.755  11.383  26.069  1.00  0.00     0.155 C
BRANCH  14  20
HETATM   20  C2  UNL     1      18.914  14.085  30.941  1.00  0.00     0.002 C
HETATM   21  C1  UNL     1      19.840  14.467  31.788  1.00  0.00     0.012 C
ENDBRANCH  14  20
ENDBRANCH  11  12
ENDBRANCH   1  11
BRANCH   4  22
HETATM   22  N2  UNL     1      23.005   9.603  31.135  1.00  0.00    -0.234 N
ATOM     23  H22 UNL     1      22.542   8.694  31.146  1.00  0.00     0.174 HD
ATOM     24  H21 UNL     1      23.193  10.129  31.988  1.00  0.00     0.174 HD
ENDBRANCH   4  22
BRANCH   8  25
HETATM   25  C11 UNL     1      27.147   9.188  28.458  1.00  0.00     0.034 A
HETATM   26  C12 UNL     1      28.116   9.564  29.375  1.00  0.00     0.031 A
HETATM   27  C13 UNL     1      28.811   8.440  29.765  1.00  0.00     0.027 A
HETATM   28  C14 UNL     1      28.271   7.371  29.089  1.00  0.00     0.005 A
HETATM   29  C15 UNL     1      28.699   5.928  29.185  1.00  0.00     0.068 C
HETATM   30  N4  UNL     1      27.284   7.858  28.322  1.00  0.00    -0.360 N
ATOM     31  H4  UNL     1      26.706   7.286  27.707  1.00  0.00     0.166 HD
ENDBRANCH   8  25
TORSDOF 5
ENDMDL