MODEL 4
REMARK VINA RESULT: -7.656279355      0.758      1.149
REMARK  7 active torsions:
REMARK  status: ('A' for Active; 'I' for Inactive)
REMARK    1  A    between atoms: C5_5  and  C6_6
REMARK    2  A    between atoms: C6_6  and  C7_7
REMARK    3  A    between atoms: C11_13  and  C12_14
REMARK    4  A    between atoms: C13_15  and  C14_16
REMARK    5  A    between atoms: C15_19  and  C16_20
REMARK    6  A    between atoms: C16_20  and  C17_21
REMARK    7  A    between atoms: C22_28  and  O1_29
ROOT
HETATM    1  C1  UNL     1      27.370  12.093  28.908  1.00  0.00     0.102 C
HETATM    2  C2  UNL     1      26.624  11.197  28.526  1.00  0.00    -0.154 C
HETATM    3  C3  UNL     1      25.753  10.177  28.058  1.00  0.00    -0.025 C
HETATM    4  C4  UNL     1      24.852  10.406  26.874  1.00  0.00     0.057 C
HETATM    5  C5  UNL     1      25.712   9.008  28.646  1.00  0.00    -0.007 C
ENDROOT
BRANCH   5   6
HETATM    6  C6  UNL     1      26.592   8.755  29.817  1.00  0.00     0.069 C
BRANCH   6   7
HETATM    7  C7  UNL     1      27.844   8.053  29.449  1.00  0.00    -0.026 A
HETATM    8  C8  UNL     1      27.796   6.784  28.843  1.00  0.00     0.038 A
HETATM    9  C9  UNL     1      29.079   6.371  28.651  1.00  0.00     0.023 A
HETATM   10  C10 UNL     1      29.457   5.201  28.097  1.00  0.00     0.043 C
HETATM   11  N1  UNL     1      29.867   7.327  29.111  1.00  0.00    -0.356 N
HETATM   12  C11 UNL     1      29.144   8.392  29.615  1.00  0.00     0.039 A
ATOM     13  H1  UNL     1      30.886   7.283  29.096  1.00  0.00     0.166 HD
BRANCH  12  14
HETATM   14  C12 UNL     1      29.719   9.467  30.103  1.00  0.00     0.032 C
HETATM   15  C13 UNL     1      31.088   9.847  30.166  1.00  0.00     0.035 C
BRANCH  15  16
HETATM   16  C14 UNL     1      31.444  11.032  30.723  1.00  0.00     0.066 A
HETATM   17  N2  UNL     1      30.845  12.223  30.652  1.00  0.00    -0.354 N
HETATM   18  C15 UNL     1      31.537  13.144  31.355  1.00  0.00     0.036 A
ATOM     19  H2  UNL     1      29.984  12.410  30.137  1.00  0.00     0.166 HD
HETATM   20  C21 UNL     1      32.631  12.525  31.908  1.00  0.00     0.068 A
HETATM   21  C22 UNL     1      32.560  11.214  31.506  1.00  0.00     0.094 A
BRANCH  18  22
HETATM   22  C16 UNL     1      31.198  14.410  31.475  1.00  0.00     0.042 C
BRANCH  22  23
HETATM   23  C17 UNL     1      30.345  14.891  32.547  1.00  0.00    -0.017 A
HETATM   24  C18 UNL     1      30.744  15.377  33.791  1.00  0.00     0.030 A
HETATM   25  C19 UNL     1      29.646  15.728  34.510  1.00  0.00     0.088 A
HETATM   26  N3  UNL     1      28.578  15.472  33.743  1.00  0.00    -0.374 N
HETATM   27  C20 UNL     1      28.957  14.968  32.556  1.00  0.00     0.099 A
ATOM     28  H3  UNL     1      27.610  15.636  34.022  1.00  0.00     0.164 HD
ENDBRANCH  22  23
ENDBRANCH  18  22
BRANCH  21  29
HETATM   29  O1  UNL     1      33.476  10.234  31.844  1.00  0.00    -0.358 OA
ATOM     30  H1  UNL     1      33.396   9.627  32.570  1.00  0.00     0.217 HD
ENDBRANCH  21  29
ENDBRANCH  15  16
ENDBRANCH  12  14
ENDBRANCH   6   7
ENDBRANCH   5   6
TORSDOF 7
ENDMDL