MODEL 2
REMARK VINA RESULT: -7.558591502      1.749      3.898
REMARK  5 active torsions:
REMARK  status: ('A' for Active; 'I' for Inactive)
REMARK    1  A    between atoms: C5_5  and  C6_6
REMARK    2  A    between atoms: C11_14  and  C12_15
REMARK    3  A    between atoms: C12_15  and  C13_16
REMARK    4  A    between atoms: C17_24  and  C18_25
REMARK    5  A    between atoms: N3_26  and  N4_28
ROOT
HETATM    1  C1  UNL     1      17.293  12.952  28.347  1.00  0.00     0.025 C
HETATM    2  C2  UNL     1      18.366  12.548  27.717  1.00  0.00    -0.026 A
HETATM    3  C3  UNL     1      18.300  12.511  26.333  1.00  0.00    -0.043 A
HETATM    4  C4  UNL     1      17.019  12.873  25.641  1.00  0.00     0.049 C
HETATM    5  C5  UNL     1      19.351  12.132  25.572  1.00  0.00    -0.024 A
HETATM    6  C8  UNL     1      20.510  11.774  26.226  1.00  0.00     0.053 A
HETATM    7  N1  UNL     1      21.672  11.370  25.703  1.00  0.00    -0.350 N
ATOM      8  H1  UNL     1      21.872  11.263  24.708  1.00  0.00     0.166 HD
HETATM    9  C9  UNL     1      22.524  11.131  26.695  1.00  0.00     0.112 A
HETATM   10  C10 UNL     1      23.827  10.701  26.702  1.00  0.00     0.208 A
HETATM   11  O1  UNL     1      24.401  10.467  25.589  1.00  0.00    -0.285 OA
HETATM   12  C11 UNL     1      24.504  10.526  27.880  1.00  0.00     0.020 A
HETATM   13  C14 UNL     1      23.887  10.777  29.074  1.00  0.00     0.100 A
HETATM   14  N2  UNL     1      22.589  11.204  29.044  1.00  0.00    -0.363 N
ATOM     15  H2  UNL     1      22.122  11.395  29.930  1.00  0.00     0.165 HD
HETATM   16  C15 UNL     1      21.905  11.384  27.917  1.00  0.00     0.076 A
HETATM   17  C16 UNL     1      20.629  11.794  27.627  1.00  0.00     0.033 A
HETATM   18  C17 UNL     1      19.547  12.186  28.423  1.00  0.00     0.005 A
ENDROOT
BRANCH  18  19
HETATM   19  C18 UNL     1      19.524  12.245  29.694  1.00  0.00     0.119 C
HETATM   20  N3  UNL     1      19.690  13.056  30.775  1.00  0.00    -0.318 N
ATOM     21  H3  UNL     1      19.004  13.781  30.985  1.00  0.00     0.185 HD
BRANCH  20  22
HETATM   22  N4  UNL     1      20.731  12.898  31.538  1.00  0.00    -0.345 N
ATOM     23  H42 UNL     1      21.609  12.584  31.125  1.00  0.00     0.176 HD
ATOM     24  H41 UNL     1      20.654  13.090  32.536  1.00  0.00     0.176 HD
ENDBRANCH  20  22
ENDBRANCH  18  19
BRANCH   5  25
HETATM   25  C6  UNL     1      19.287  12.112  24.104  1.00  0.00     0.037 C
HETATM   26  C7  UNL     1      19.874  13.351  23.477  1.00  0.00     0.010 C
ENDBRANCH   5  25
BRANCH  12  27
HETATM   27  C12 UNL     1      25.899  10.067  27.863  1.00  0.00     0.157 C
BRANCH  27  28
HETATM   28  C13 UNL     1      25.999   8.737  28.509  1.00  0.00     0.177 C
HETATM   29  O2  UNL     1      25.543   7.720  27.943  1.00  0.00    -0.648 OA
HETATM   30  O3  UNL     1      26.606   8.653  29.748  1.00  0.00    -0.648 OA
ENDBRANCH  27  28
ENDBRANCH  12  27
TORSDOF 5
ENDMDL