MODEL 5
REMARK VINA RESULT: -7.746600337      1.733      1.902
REMARK  4 active torsions:
REMARK  status: ('A' for Active; 'I' for Inactive)
REMARK    1  A    between atoms: C5_9  and  C6_10
REMARK    2  A    between atoms: C6_10  and  N3_11
REMARK    3  A    between atoms: N3_11  and  S1_13
REMARK    4  A    between atoms: S1_13  and  C7_16
ROOT
HETATM    1  N3  UNL     1      26.625   9.755  28.676  1.00  0.00    -0.290 N
ATOM      2  H3  UNL     1      27.191  10.535  28.339  1.00  0.00     0.178 HD
ENDROOT
BRANCH   1   3
HETATM    3  C6  UNL     1      27.216   8.839  29.574  1.00  0.00     0.111 C
BRANCH   3   4
HETATM    4  C5  UNL     1      28.024   7.893  29.153  1.00  0.00    -0.017 A
HETATM    5  C4  UNL     1      27.650   6.581  28.910  1.00  0.00     0.044 A
HETATM    6  C3  UNL     1      28.750   5.853  28.477  1.00  0.00     0.061 A
HETATM    7  N2  UNL     1      29.291   4.696  28.064  1.00  0.00    -0.299 N
HETATM    8  C15 UNL     1      29.839   6.822  28.472  1.00  0.00     0.020 A
HETATM    9  N1  UNL     1      30.579   4.869  27.815  1.00  0.00    -0.300 N
ATOM     10  H2  UNL     1      28.785   3.817  27.959  1.00  0.00     0.187 HD
HETATM   11  C2  UNL     1      30.960   6.131  28.043  1.00  0.00     0.051 A
ATOM     12  H1  UNL     1      31.203   4.132  27.490  1.00  0.00     0.187 HD
HETATM   13  C1  UNL     1      32.173   6.642  27.895  1.00  0.00     0.045 C
HETATM   14  C14 UNL     1      29.376   8.051  28.885  1.00  0.00     0.029 A
ENDBRANCH   3   4
ENDBRANCH   1   3
BRANCH   1  15
HETATM   15  S1  UNL     1      25.009   9.627  28.120  1.00  0.00     0.266 S
HETATM   16  O1  UNL     1      24.639   8.188  27.966  1.00  0.00    -0.200 OA
HETATM   17  O2  UNL     1      24.896  10.358  26.797  1.00  0.00    -0.200 OA
BRANCH  15  18
HETATM   18  C7  UNL     1      23.974  10.419  29.317  1.00  0.00     0.124 A
HETATM   19  C8  UNL     1      23.337   9.828  30.385  1.00  0.00     0.116 A
HETATM   20  N4  UNL     1      22.632  10.746  31.080  1.00  0.00    -0.362 N
HETATM   21  C9  UNL     1      22.815  11.925  30.460  1.00  0.00     0.062 A
ATOM     22  H4  UNL     1      22.069  10.578  31.913  1.00  0.00     0.165 HD
HETATM   23  C10 UNL     1      22.510  13.288  30.463  1.00  0.00     0.056 A
HETATM   24  C13 UNL     1      23.638  11.750  29.373  1.00  0.00     0.084 A
HETATM   25  C11 UNL     1      23.148  13.890  29.389  1.00  0.00     0.008 A
HETATM   26  C12 UNL     1      23.108  15.330  28.998  1.00  0.00     0.068 C
HETATM   27  N5  UNL     1      23.825  12.920  28.749  1.00  0.00    -0.357 N
ATOM     28  H5  UNL     1      24.396  13.055  27.914  1.00  0.00     0.166 HD
ENDBRANCH  15  18
ENDBRANCH   1  15
TORSDOF 4
ENDMDL