MODEL 2
REMARK VINA RESULT: -7.491739633      0.765      1.033
REMARK  9 active torsions:
REMARK  status: ('A' for Active; 'I' for Inactive)
REMARK    1  A    between atoms: C2_2  and  C3_3
REMARK    2  A    between atoms: C3_3  and  C4_4
REMARK    3  A    between atoms: C4_4  and  C5_5
REMARK    4  A    between atoms: C5_5  and  C6_6
REMARK    5  A    between atoms: C9_11  and  C10_12
REMARK    6  A    between atoms: C10_12  and  C11_13
REMARK    7  A    between atoms: C11_13  and  C12_14
REMARK    8  A    between atoms: C15_19  and  N3_20
REMARK    9  A    between atoms: N6_29  and  O1_30
ROOT
HETATM    1  C11 UNL     1      26.093   8.897  28.690  1.00  0.00    -0.057 C
ENDROOT
BRANCH   1   2
HETATM    2  C10 UNL     1      24.966   9.345  28.623  1.00  0.00    -0.022 C
BRANCH   2   3
HETATM    3  C9  UNL     1      23.642   9.889  28.525  1.00  0.00     0.189 A
HETATM    4  N1  UNL     1      22.940  10.216  27.411  1.00  0.00    -0.335 N
HETATM    5  C7  UNL     1      21.740  10.694  27.741  1.00  0.00     0.032 A
ATOM      6  H1  UNL     1      23.282  10.112  26.456  1.00  0.00     0.168 HD
HETATM    7  C6  UNL     1      21.657  10.679  29.115  1.00  0.00     0.065 A
HETATM    8  C8  UNL     1      20.676  11.161  26.817  1.00  0.00     0.070 C
HETATM    9  N6  UNL     1      22.846  10.177  29.545  1.00  0.00    -0.202 N
BRANCH   7  10
HETATM   10  C5  UNL     1      20.509  11.117  29.946  1.00  0.00     0.062 C
BRANCH  10  11
HETATM   11  C4  UNL     1      20.718  12.520  30.477  1.00  0.00     0.006 C
BRANCH  11  12
HETATM   12  C3  UNL     1      19.567  13.417  30.084  1.00  0.00     0.000 C
BRANCH  12  13
HETATM   13  C2  UNL     1      19.506  14.605  31.022  1.00  0.00    -0.005 C
HETATM   14  C1  UNL     1      19.610  14.150  32.462  1.00  0.00     0.005 C
ENDBRANCH  12  13
ENDBRANCH  11  12
ENDBRANCH  10  11
ENDBRANCH   7  10
BRANCH   9  15
HETATM   15  O1  UNL     1      23.173   9.997  30.868  1.00  0.00    -0.281 OA
ATOM     16  H1  UNL     1      23.261   9.147  31.283  1.00  0.00     0.245 HD
ENDBRANCH   9  15
ENDBRANCH   2   3
ENDBRANCH   1   2
BRANCH   1  17
HETATM   17  C12 UNL     1      27.434   8.383  28.751  1.00  0.00     0.036 A
HETATM   18  C13 UNL     1      27.717   7.117  28.268  1.00  0.00     0.056 A
HETATM   19  C14 UNL     1      29.012   6.606  28.320  1.00  0.00     0.095 A
HETATM   20  N2  UNL     1      29.593   5.451  27.948  1.00  0.00    -0.188 N
HETATM   21  C16 UNL     1      30.007   7.377  28.860  1.00  0.00     0.150 A
HETATM   22  C15 UNL     1      30.918   5.496  28.245  1.00  0.00     0.678 A
ATOM     23  H2  UNL     1      29.113   4.665  27.510  1.00  0.00     0.184 HD
HETATM   24  N4  UNL     1      31.177   6.687  28.809  1.00  0.00    -0.174 N
ATOM     25  H4  UNL     1      32.085   7.014  29.140  1.00  0.00     0.186 HD
HETATM   26  N5  UNL     1      29.746   8.594  29.327  1.00  0.00    -0.344 N
HETATM   27  C17 UNL     1      30.827   9.391  29.896  1.00  0.00     0.157 C
HETATM   28  C18 UNL     1      28.497   9.087  29.276  1.00  0.00     0.112 A
BRANCH  22  29
HETATM   29  N3  UNL     1      31.793   4.550  28.023  1.00  0.00    -0.234 N
ATOM     30  H32 UNL     1      32.344   4.436  27.172  1.00  0.00     0.174 HD
ATOM     31  H31 UNL     1      32.047   3.799  28.666  1.00  0.00     0.174 HD
ENDBRANCH  22  29
ENDBRANCH   1  17
TORSDOF 9
ENDMDL