MODEL 4
REMARK VINA RESULT: -6.699114965      3.035      7.816
REMARK  8 active torsions:
REMARK  status: ('A' for Active; 'I' for Inactive)
REMARK    1  A    between atoms: C4_4  and  C5_5
REMARK    2  A    between atoms: C5_5  and  C6_6
REMARK    3  A    between atoms: C6_6  and  C7_7
REMARK    4  A    between atoms: C7_7  and  N1_8
REMARK    5  A    between atoms: C11_12  and  C12_13
REMARK    6  A    between atoms: C12_13  and  C13_14
REMARK    7  A    between atoms: C13_14  and  C14_15
REMARK    8  A    between atoms: C15_18  and  C16_19
ROOT
HETATM    1  C13 UNL     1      26.045   9.480  28.135  1.00  0.00     0.014 C
ENDROOT
BRANCH   1   2
HETATM    2  C12 UNL     1      25.608  10.755  28.721  1.00  0.00     0.088 C
BRANCH   2   3
HETATM    3  C11 UNL     1      26.093  11.932  27.983  1.00  0.00     0.032 A
HETATM    4  C4  UNL     1      27.287  12.583  28.206  1.00  0.00     0.042 A
HETATM    5  C3  UNL     1      27.333  13.635  27.285  1.00  0.00     0.047 A
HETATM    6  C2  UNL     1      26.170  13.592  26.531  1.00  0.00     0.006 A
HETATM    7  C1  UNL     1      25.761  14.504  25.427  1.00  0.00     0.068 C
HETATM    8  N5  UNL     1      25.455  12.555  26.984  1.00  0.00    -0.362 N
ATOM      9  H5  UNL     1      24.545  12.276  26.618  1.00  0.00     0.165 HD
BRANCH   4  10
HETATM   10  C5  UNL     1      28.306  12.284  29.173  1.00  0.00    -0.063 C
BRANCH  10  11
HETATM   11  C6  UNL     1      29.157  12.045  30.000  1.00  0.00    -0.073 C
BRANCH  11  12
HETATM   12  C7  UNL     1      30.189  11.777  31.016  1.00  0.00     0.329 C
BRANCH  12  13
HETATM   13  N1  UNL     1      31.336  11.097  30.445  1.00  0.00    -0.069 N
HETATM   14  C8  UNL     1      31.904  11.859  29.379  1.00  0.00     0.272 C
HETATM   15  C9  UNL     1      32.318  10.884  31.502  1.00  0.00     0.272 C
HETATM   16  C10 UNL     1      30.899   9.777  30.019  1.00  0.00     0.272 C
ENDBRANCH  12  13
ENDBRANCH  11  12
ENDBRANCH  10  11
ENDBRANCH   4  10
ENDBRANCH   2   3
ENDBRANCH   1   2
BRANCH   1  17
HETATM   17  C14 UNL     1      26.933   8.661  28.616  1.00  0.00     0.099 A
HETATM   18  N2  UNL     1      27.945   8.102  27.900  1.00  0.00    -0.338 N
HETATM   19  C15 UNL     1      28.687   7.302  28.683  1.00  0.00     0.112 A
ATOM     20  H2  UNL     1      28.116   8.267  26.908  1.00  0.00     0.167 HD
HETATM   21  N4  UNL     1      28.126   7.369  29.894  1.00  0.00    -0.307 N
HETATM   22  C20 UNL     1      27.061   8.178  29.911  1.00  0.00     0.273 A
ATOM     23  H4  UNL     1      28.470   6.862  30.710  1.00  0.00     0.170 HD
HETATM   24  O1  UNL     1      26.354   8.416  30.920  1.00  0.00    -0.266 OA
BRANCH  19  25
HETATM   25  C16 UNL     1      29.748   6.605  28.307  1.00  0.00    -0.009 C
HETATM   26  C17 UNL     1      30.814   7.117  27.409  1.00  0.00     0.067 C
HETATM   27  C18 UNL     1      31.963   6.153  27.656  1.00  0.00     0.237 C
HETATM   28  N3  UNL     1      31.235   4.915  27.849  1.00  0.00    -0.071 N
HETATM   29  C19 UNL     1      30.103   5.215  28.675  1.00  0.00     0.270 C
ATOM     30  H32 UNL     1      30.982   4.459  26.973  1.00  0.00     0.277 HD
ATOM     31  H31 UNL     1      31.815   4.164  28.224  1.00  0.00     0.277 HD
ENDBRANCH  19  25
ENDBRANCH   1  17
TORSDOF 8
ENDMDL