MODEL 3
REMARK VINA RESULT: -7.411294952      1.950      3.526
REMARK  8 active torsions:
REMARK  status: ('A' for Active; 'I' for Inactive)
REMARK    1  A    between atoms: C3_3  and  C4_4
REMARK    2  A    between atoms: C4_4  and  C5_5
REMARK    3  A    between atoms: C8_8  and  C9_9
REMARK    4  A    between atoms: C9_9  and  C10_10
REMARK    5  A    between atoms: C10_10  and  C11_11
REMARK    6  A    between atoms: C14_16  and  C15_17
REMARK    7  A    between atoms: C15_17  and  C16_18
REMARK    8  A    between atoms: C16_18  and  O1_19
ROOT
HETATM    1  C1  UNL     1      33.505   4.719  27.791  1.00  0.00     0.012 C
HETATM    2  C2  UNL     1      32.373   4.769  28.219  1.00  0.00    -0.117 C
HETATM    3  C3  UNL     1      31.012   4.849  28.754  1.00  0.00     0.097 C
ENDROOT
BRANCH   3   4
HETATM    4  C4  UNL     1      30.313   6.060  28.147  1.00  0.00     0.040 C
BRANCH   4   5
HETATM    5  C5  UNL     1      30.646   7.295  28.879  1.00  0.00    -0.012 C
HETATM    6  C6  UNL     1      29.763   8.220  29.216  1.00  0.00    -0.011 A
HETATM    7  C7  UNL     1      28.419   8.146  28.926  1.00  0.00     0.052 A
HETATM    8  C20 UNL     1      29.976   9.398  29.895  1.00  0.00     0.033 A
HETATM    9  C8  UNL     1      27.811   9.277  29.428  1.00  0.00     0.088 A
HETATM   10  N3  UNL     1      28.780  10.005  30.003  1.00  0.00    -0.349 N
ATOM     11  H3  UNL     1      28.630  10.902  30.463  1.00  0.00     0.166 HD
HETATM   12  C21 UNL     1      31.125   9.835  30.345  1.00  0.00     0.044 C
BRANCH   9  13
HETATM   13  C9  UNL     1      26.403   9.607  29.346  1.00  0.00    -0.043 C
BRANCH  13  14
HETATM   14  C10 UNL     1      25.217   9.881  29.299  1.00  0.00    -0.058 C
BRANCH  14  15
HETATM   15  C11 UNL     1      23.825  10.212  29.266  1.00  0.00     0.051 A
HETATM   16  C12 UNL     1      22.966  10.274  30.341  1.00  0.00     0.110 A
HETATM   17  N1  UNL     1      21.740  10.620  29.892  1.00  0.00    -0.363 N
HETATM   18  C13 UNL     1      21.774  10.784  28.577  1.00  0.00     0.057 A
ATOM     19  H1  UNL     1      20.913  10.738  30.476  1.00  0.00     0.165 HD
HETATM   20  C14 UNL     1      20.814  11.131  27.638  1.00  0.00    -0.013 A
HETATM   21  C19 UNL     1      23.060  10.535  28.170  1.00  0.00     0.079 A
HETATM   22  C17 UNL     1      21.221  11.205  26.330  1.00  0.00     0.101 A
HETATM   23  N2  UNL     1      22.478  10.962  25.926  1.00  0.00    -0.332 N
HETATM   24  C18 UNL     1      23.396  10.628  26.842  1.00  0.00     0.259 A
ATOM     25  H2  UNL     1      22.730  11.031  24.940  1.00  0.00     0.168 HD
HETATM   26  O2  UNL     1      24.588  10.397  26.477  1.00  0.00    -0.267 OA
BRANCH  20  27
HETATM   27  C15 UNL     1      19.428  11.401  28.094  1.00  0.00     0.068 C
BRANCH  27  28
HETATM   28  C16 UNL     1      19.403  12.714  28.808  1.00  0.00     0.168 C
BRANCH  28  29
HETATM   29  O1  UNL     1      19.236  12.583  30.181  1.00  0.00    -0.401 OA
ATOM     30  H1  UNL     1      18.378  12.861  30.480  1.00  0.00     0.209 HD
ENDBRANCH  28  29
ENDBRANCH  27  28
ENDBRANCH  20  27
ENDBRANCH  14  15
ENDBRANCH  13  14
ENDBRANCH   9  13
ENDBRANCH   4   5
ENDBRANCH   3   4
TORSDOF 8
ENDMDL