MODEL 5
REMARK VINA RESULT: -6.055476119      4.933      7.242
REMARK  11 active torsions:
REMARK  status: ('A' for Active; 'I' for Inactive)
REMARK    1  A    between atoms: C4_6  and  N2_7
REMARK    2  A    between atoms: N2_7  and  C5_9
REMARK    3  A    between atoms: C5_9  and  C6_10
REMARK    4  A    between atoms: C6_10  and  C7_11
REMARK    5  A    between atoms: N4_21  and  C14_23
REMARK    6  A    between atoms: C14_23  and  C15_24
REMARK    7  A    between atoms: C15_24  and  N5_25
REMARK       I    between atoms: N5_25  and  C16_27
REMARK       I    between atoms: C16_27  and  N6_29
REMARK    8  A    between atoms: N6_29  and  C17_30
REMARK    9  A    between atoms: N6_29  and  C19_33
REMARK   10  A    between atoms: C17_30  and  C18_31
REMARK   11  A    between atoms: C19_33  and  C20_34
ROOT
HETATM    1  C1  UNL     1      41.617  18.986  38.828  1.00  0.00     0.054 C
HETATM    2  C2  UNL     1      40.146  19.031  38.607  1.00  0.00    -0.002 A
HETATM    3  C3  UNL     1      39.394  17.881  38.856  1.00  0.00     0.116 A
HETATM    4  N1  UNL     1      38.062  17.825  38.685  1.00  0.00    -0.201 N
ATOM      5  H1  UNL     1      37.552  16.963  38.879  1.00  0.00     0.183 HD
HETATM    6  C4  UNL     1      37.411  18.919  38.255  1.00  0.00     0.679 A
HETATM    7  N3  UNL     1      38.099  20.024  38.012  1.00  0.00    -0.176 N
ATOM      8  H3  UNL     1      37.585  20.843  37.687  1.00  0.00     0.186 HD
HETATM    9  C13 UNL     1      39.464  20.139  38.169  1.00  0.00     0.124 A
HETATM   10  N4  UNL     1      39.996  21.235  37.908  1.00  0.00    -0.374 N
ATOM     11  H4  UNL     1      39.292  21.906  37.601  1.00  0.00     0.161 HD
ENDROOT
BRANCH  10  12
HETATM   12  C14 UNL     1      41.254  21.821  37.906  1.00  0.00     0.141 C
BRANCH  12  13
HETATM   13  C15 UNL     1      41.621  22.452  36.558  1.00  0.00     0.144 C
BRANCH  13  14
HETATM   14  N5  UNL     1      42.616  21.709  35.842  1.00  0.00    -0.341 N
HETATM   15  C16 UNL     1      43.872  22.154  35.414  1.00  0.00     0.318 C
HETATM   16  O1  UNL     1      44.212  23.348  35.669  1.00  0.00    -0.247 OA
HETATM   17  N6  UNL     1      44.812  21.355  34.699  1.00  0.00    -0.332 N
ATOM     18  H5  UNL     1      42.381  20.742  35.618  1.00  0.00     0.164 HD
BRANCH  17  19
HETATM   19  C17 UNL     1      44.566  19.973  34.345  1.00  0.00     0.142 C
BRANCH  19  20
HETATM   20  C18 UNL     1      45.615  19.060  34.984  1.00  0.00     0.134 C
HETATM   21 CL1  UNL     1      44.814  17.643  35.698  1.00  0.00    -0.129 Cl
ENDBRANCH  19  20
ENDBRANCH  17  19
BRANCH  17  22
HETATM   22  C19 UNL     1      46.068  21.918  34.282  1.00  0.00     0.142 C
BRANCH  22  23
HETATM   23  C20 UNL     1      46.209  22.153  32.816  1.00  0.00     0.134 C
HETATM   24 CL2  UNL     1      45.269  23.512  32.194  1.00  0.00    -0.129 Cl
ENDBRANCH  22  23
ENDBRANCH  17  22
ENDBRANCH  13  14
ENDBRANCH  12  13
ENDBRANCH  10  12
BRANCH   6  25
HETATM   25  N2  UNL     1      36.114  18.918  38.072  1.00  0.00    -0.226 N
ATOM     26  H2  UNL     1      35.707  19.613  37.447  1.00  0.00     0.177 HD
BRANCH  25  27
HETATM   27  C5  UNL     1      35.247  17.982  38.715  1.00  0.00     0.142 C
BRANCH  27  28
HETATM   28  C6  UNL     1      35.005  18.345  40.185  1.00  0.00     0.058 C
BRANCH  28  29
HETATM   29  C7  UNL     1      33.602  17.994  40.519  1.00  0.00    -0.057 A
HETATM   30  C8  UNL     1      32.569  18.475  39.709  1.00  0.00     0.010 A
HETATM   31  C9  UNL     1      31.267  18.152  40.016  1.00  0.00     0.043 A
HETATM   32  C10 UNL     1      30.925  17.368  41.096  1.00  0.00     0.116 A
HETATM   33  F1  UNL     1      29.641  17.052  41.393  1.00  0.00    -0.206 F
HETATM   34  C11 UNL     1      31.949  16.898  41.888  1.00  0.00     0.043 A
HETATM   35  C12 UNL     1      33.259  17.208  41.600  1.00  0.00     0.010 A
ENDBRANCH  28  29
ENDBRANCH  27  28
ENDBRANCH  25  27
ENDBRANCH   6  25
TORSDOF 11
ENDMDL