MODEL 1
REMARK VINA RESULT: -7.126984703      0.000      0.000
REMARK  11 active torsions:
REMARK  status: ('A' for Active; 'I' for Inactive)
REMARK    1  A    between atoms: N1_1  and  N2_4
REMARK    2  A    between atoms: N2_4  and  N3_6
REMARK    3  A    between atoms: N3_6  and  C1_8
REMARK    4  A    between atoms: C1_8  and  C2_9
REMARK    5  A    between atoms: C4_12  and  O1_13
REMARK    6  A    between atoms: O1_13  and  C5_14
REMARK    7  A    between atoms: C5_14  and  C6_15
REMARK    8  A    between atoms: C12_21  and  O2_22
REMARK    9  A    between atoms: O2_22  and  C13_23
REMARK   10  A    between atoms: C13_23  and  C14_24
REMARK   11  A    between atoms: C20_31  and  O3_32
ROOT
HETATM    1  C1  UNL     1      40.829  19.645  37.886  1.00  0.00     0.081 C
HETATM    2  C3  UNL     1      39.595  18.924  38.383  1.00  0.00     0.070 C
HETATM    3  C4  UNL     1      38.321  19.653  37.990  1.00  0.00     0.155 C
HETATM    4  C12 UNL     1      38.330  19.808  36.501  1.00  0.00     0.181 C
HETATM    5  C20 UNL     1      39.469  20.709  36.061  1.00  0.00     0.170 C
HETATM    6  C21 UNL     1      40.744  19.972  36.420  1.00  0.00     0.144 C
HETATM    7 CL2  UNL     1      40.757  18.463  35.486  1.00  0.00    -0.119 Cl
ENDROOT
BRANCH   1   8
HETATM    8  N3  UNL     1      41.139  20.805  38.689  1.00  0.00    -0.310 N
ATOM      9  H3  UNL     1      40.881  20.806  39.676  1.00  0.00     0.182 HD
BRANCH   8  10
HETATM   10  N2  UNL     1      41.777  21.919  38.159  1.00  0.00    -0.253 N
ATOM     11  H2  UNL     1      42.543  21.784  37.499  1.00  0.00     0.207 HD
BRANCH  10  12
HETATM   12  N1  UNL     1      41.430  23.119  38.477  1.00  0.00    -0.331 N
ATOM     13  H12 UNL     1      41.515  23.400  39.454  1.00  0.00     0.178 HD
ATOM     14  H11 UNL     1      41.080  23.781  37.784  1.00  0.00     0.178 HD
ENDBRANCH  10  12
ENDBRANCH   8  10
ENDBRANCH   1   8
BRANCH   1  15
HETATM   15  C2  UNL     1      41.989  18.670  38.050  1.00  0.00     0.148 C
HETATM   16 CL1  UNL     1      41.932  17.834  39.616  1.00  0.00    -0.128 Cl
ENDBRANCH   1  15
BRANCH   3  17
HETATM   17  O1  UNL     1      37.245  18.837  38.322  1.00  0.00    -0.379 OA
BRANCH  17  18
HETATM   18  C5  UNL     1      37.428  18.171  39.528  1.00  0.00     0.207 C
BRANCH  18  19
HETATM   19  C6  UNL     1      36.084  18.008  40.143  1.00  0.00    -0.035 A
HETATM   20  C7  UNL     1      34.959  18.213  39.371  1.00  0.00     0.009 A
HETATM   21  C8  UNL     1      33.698  18.059  39.953  1.00  0.00     0.001 A
HETATM   22  C9  UNL     1      33.531  17.710  41.270  1.00  0.00     0.000 A
HETATM   23  C10 UNL     1      34.668  17.504  42.045  1.00  0.00     0.001 A
HETATM   24  C11 UNL     1      35.902  17.658  41.461  1.00  0.00     0.009 A
ENDBRANCH  18  19
ENDBRANCH  17  18
ENDBRANCH   3  17
BRANCH   5  25
HETATM   25  O3  UNL     1      39.398  21.970  36.582  1.00  0.00    -0.391 OA
ATOM     26  H3  UNL     1      39.991  22.585  36.167  1.00  0.00     0.210 HD
ENDBRANCH   5  25
BRANCH   4  27
HETATM   27  O2  UNL     1      37.132  20.125  35.939  1.00  0.00    -0.376 OA
BRANCH  27  28
HETATM   28  C13 UNL     1      36.821  19.440  34.781  1.00  0.00     0.210 C
BRANCH  28  29
HETATM   29  C14 UNL     1      36.821  20.362  33.615  1.00  0.00     0.004 A
HETATM   30  C15 UNL     1      35.812  21.299  33.476  1.00  0.00     0.012 A
HETATM   31  C16 UNL     1      35.758  22.182  32.415  1.00  0.00     0.001 A
HETATM   32  C17 UNL     1      36.736  22.149  31.441  1.00  0.00     0.003 A
HETATM   33  C18 UNL     1      37.741  21.213  31.584  1.00  0.00     0.043 A
HETATM   34  C19 UNL     1      37.793  20.332  32.644  1.00  0.00     0.124 A
HETATM   35  F1  UNL     1      38.779  19.414  32.782  1.00  0.00    -0.205 F
ENDBRANCH  28  29
ENDBRANCH  27  28
ENDBRANCH   4  27
TORSDOF 11
ENDMDL