MODEL 5
REMARK VINA RESULT: -5.890857883      1.844      2.050
REMARK  8 active torsions:
REMARK  status: ('A' for Active; 'I' for Inactive)
REMARK    1  A    between atoms: N1_2  and  S1_4
REMARK    2  A    between atoms: S1_4  and  N2_7
REMARK    3  A    between atoms: N2_7  and  C2_9
REMARK    4  A    between atoms: C2_9  and  C3_10
REMARK    5  A    between atoms: C3_10  and  C4_12
REMARK    6  A    between atoms: C4_12  and  N3_13
REMARK    7  A    between atoms: N3_13  and  C5_16
REMARK    8  A    between atoms: C5_16  and  C6_17
ROOT
HETATM    1  C4  UNL     1      39.674  17.829  38.151  1.00  0.00     0.250 C
ENDROOT
BRANCH   1   2
HETATM    2  C3  UNL     1      40.687  18.279  39.155  1.00  0.00     0.102 C
HETATM    3 BR1  UNL     1      42.147  16.950  39.214  1.00  0.00    -0.088 Br
BRANCH   2   4
HETATM    4  C2  UNL     1      41.340  19.551  38.741  1.00  0.00     0.151 C
BRANCH   4   5
HETATM    5  N2  UNL     1      40.398  20.645  38.502  1.00  0.00    -0.302 N
ATOM      6  H2  UNL     1      39.420  20.680  38.787  1.00  0.00     0.173 HD
BRANCH   5   7
HETATM    7  S1  UNL     1      41.272  21.872  37.639  1.00  0.00     0.314 S
HETATM    8  O1  UNL     1      40.491  22.267  36.379  1.00  0.00    -0.183 OA
HETATM    9  O2  UNL     1      42.575  21.326  37.203  1.00  0.00    -0.183 OA
BRANCH   7  10
HETATM   10  N1  UNL     1      41.387  23.320  38.576  1.00  0.00    -0.307 N
HETATM   11  C1  UNL     1      40.664  24.331  37.808  1.00  0.00     0.161 C
ATOM     12  H1  UNL     1      41.859  23.443  39.472  1.00  0.00     0.173 HD
ENDBRANCH   7  10
ENDBRANCH   5   7
ENDBRANCH   4   5
ENDBRANCH   2   4
ENDBRANCH   1   2
BRANCH   1  13
HETATM   13  N3  UNL     1      38.541  17.219  38.819  1.00  0.00    -0.070 N
ATOM     14  H32 UNL     1      38.074  16.526  38.235  1.00  0.00     0.277 HD
ATOM     15  H31 UNL     1      38.827  16.600  39.577  1.00  0.00     0.277 HD
BRANCH  13  16
HETATM   16  C5  UNL     1      37.629  18.269  39.273  1.00  0.00     0.270 C
BRANCH  16  17
HETATM   17  C6  UNL     1      36.551  17.702  40.125  1.00  0.00    -0.031 A
HETATM   18  C7  UNL     1      35.636  18.407  40.815  1.00  0.00     0.010 A
HETATM   19  C8  UNL     1      34.616  17.781  41.531  1.00  0.00     0.026 A
HETATM   20  C9  UNL     1      34.570  16.411  41.513  1.00  0.00     0.051 A
HETATM   21 CL1  UNL     1      33.311  15.553  42.372  1.00  0.00    -0.083 Cl
HETATM   22  C10 UNL     1      35.482  15.668  40.823  1.00  0.00     0.033 A
HETATM   23 BR2  UNL     1      35.431  13.762  40.785  1.00  0.00    -0.049 Br
HETATM   24  C11 UNL     1      36.474  16.310  40.128  1.00  0.00     0.029 A
ENDBRANCH  16  17
ENDBRANCH  13  16
ENDBRANCH   1  13
TORSDOF 8
ENDMDL