MODEL 3
REMARK VINA RESULT: -5.389276266      1.119      1.856
REMARK  10 active torsions:
REMARK  status: ('A' for Active; 'I' for Inactive)
REMARK    1  A    between atoms: C2_2  and  C3_3
REMARK    2  A    between atoms: C3_3  and  C4_4
REMARK    3  A    between atoms: C4_4  and  N1_5
REMARK    4  A    between atoms: C4_4  and  C7_12
REMARK    5  A    between atoms: C5_7  and  C6_8
REMARK    6  A    between atoms: C7_12  and  O1_13
REMARK    7  A    between atoms: C7_12  and  N2_15
REMARK    8  A    between atoms: N2_15  and  C8_18
REMARK    9  A    between atoms: C8_18  and  C9_19
REMARK   10  A    between atoms: C8_18  and  C11_21
ROOT
HETATM    1  C7  UNL     1      39.490  20.765  37.638  1.00  0.00     0.342 C
ENDROOT
BRANCH   1   2
HETATM    2  C4  UNL     1      39.765  19.308  37.974  1.00  0.00     0.137 C
BRANCH   2   3
HETATM    3  C3  UNL     1      40.675  19.152  39.143  1.00  0.00     0.029 C
BRANCH   3   4
HETATM    4  C2  UNL     1      41.917  18.386  38.746  1.00  0.00    -0.002 C
HETATM    5  C1  UNL     1      41.942  17.009  39.422  1.00  0.00     0.005 C
ENDBRANCH   3   4
ENDBRANCH   2   3
BRANCH   2   6
HETATM    6  N1  UNL     1      38.504  18.655  38.122  1.00  0.00    -0.390 N
HETATM    7  C5  UNL     1      38.222  17.924  39.117  1.00  0.00     0.100 C
ATOM      8  H1  UNL     1      37.799  18.784  37.396  1.00  0.00     0.159 HD
BRANCH   7   9
HETATM    9  C6  UNL     1      36.955  17.228  39.345  1.00  0.00     0.164 C
HETATM   10 BR1  UNL     1      35.799  17.745  37.848  1.00  0.00    -0.054 Br
HETATM   11 BR2  UNL     1      36.045  17.807  40.953  1.00  0.00    -0.054 Br
HETATM   12 BR3  UNL     1      37.132  15.319  39.280  1.00  0.00    -0.054 Br
ENDBRANCH   7   9
ENDBRANCH   2   6
ENDBRANCH   1   2
BRANCH   1  13
HETATM   13  O1  UNL     1      38.278  21.195  38.140  1.00  0.00    -0.368 OA
ATOM     14  H1  UNL     1      37.580  21.126  37.499  1.00  0.00     0.212 HD
ENDBRANCH   1  13
BRANCH   1  15
HETATM   15  N2  UNL     1      40.554  21.608  37.976  1.00  0.00    -0.035 N
ATOM     16  H22 UNL     1      40.339  22.163  38.804  1.00  0.00     0.281 HD
ATOM     17  H21 UNL     1      41.346  21.078  38.340  1.00  0.00     0.281 HD
BRANCH  15  18
HETATM   18  C8  UNL     1      40.957  22.462  36.852  1.00  0.00     0.277 C
BRANCH  18  19
HETATM   19  C9  UNL     1      40.735  23.902  37.163  1.00  0.00     0.038 C
HETATM   20  C10 UNL     1      40.810  24.168  38.631  1.00  0.00     0.007 C
ENDBRANCH  18  19
BRANCH  18  21
HETATM   21  C11 UNL     1      42.323  22.122  36.425  1.00  0.00     0.262 C
HETATM   22  N3  UNL     1      42.820  20.780  36.426  1.00  0.00    -0.060 NA
HETATM   23  O2  UNL     1      43.103  23.022  36.047  1.00  0.00    -0.275 OA
ENDBRANCH  18  21
ENDBRANCH  15  18
ENDBRANCH   1  15
TORSDOF 10
ENDMDL