MODEL 2
REMARK VINA RESULT: -5.835605182      1.702      1.979
REMARK  10 active torsions:
REMARK  status: ('A' for Active; 'I' for Inactive)
REMARK    1  A    between atoms: N1_2  and  S1_4
REMARK    2  A    between atoms: S1_4  and  N2_6
REMARK    3  A    between atoms: S1_4  and  C9_19
REMARK    4  A    between atoms: N2_6  and  C2_8
REMARK    5  A    between atoms: C2_8  and  C3_9
REMARK    6  A    between atoms: C3_9  and  C4_10
REMARK    7  A    between atoms: C4_10  and  C5_11
REMARK    8  A    between atoms: C5_11  and  C6_12
REMARK    9  A    between atoms: C6_12  and  C7_13
REMARK   10  A    between atoms: C7_13  and  N3_14
ROOT
HETATM    1  S1  UNL     1      40.356  20.975  37.003  1.00  0.00     0.137 S
HETATM    2  O1  UNL     1      40.019  21.065  35.496  1.00  0.00    -0.223 OA
ENDROOT
BRANCH   1   3
HETATM    3  N1  UNL     1      39.767  22.299  37.605  1.00  0.00    -0.336 N
HETATM    4  C1  UNL     1      40.639  23.364  37.973  1.00  0.00     0.158 C
ATOM      5  H1  UNL     1      38.759  22.397  37.733  1.00  0.00     0.170 HD
ENDBRANCH   1   3
BRANCH   1   6
HETATM    6  N2  UNL     1      42.027  21.055  37.102  1.00  0.00    -0.332 N
ATOM      7  H2  UNL     1      42.498  21.137  38.003  1.00  0.00     0.170 HD
BRANCH   6   8
HETATM    8  C2  UNL     1      42.779  21.005  35.869  1.00  0.00     0.131 C
BRANCH   8   9
HETATM    9  C3  UNL     1      43.303  22.366  35.535  1.00  0.00     0.020 C
BRANCH   9  10
HETATM   10  C4  UNL     1      44.697  22.570  35.198  1.00  0.00     0.002 C
BRANCH  10  11
HETATM   11  C5  UNL     1      45.555  21.306  35.294  1.00  0.00     0.005 C
BRANCH  11  12
HETATM   12  C6  UNL     1      46.590  21.400  34.184  1.00  0.00     0.044 C
BRANCH  12  13
HETATM   13  C7  UNL     1      46.185  21.941  32.902  1.00  0.00     0.063 C
BRANCH  13  14
HETATM   14  N3  UNL     1      47.005  22.955  32.267  1.00  0.00    -0.347 N
HETATM   15  C8  UNL     1      46.390  23.983  31.726  1.00  0.00     0.200 C
HETATM   16  N4  UNL     1      47.098  25.005  31.091  1.00  0.00    -0.067 NA
HETATM   17  N5  UNL     1      44.958  23.985  31.819  1.00  0.00    -0.067 NA
ATOM     18  H3  UNL     1      48.021  22.874  32.241  1.00  0.00     0.167 HD
ENDBRANCH  13  14
ENDBRANCH  12  13
ENDBRANCH  11  12
ENDBRANCH  10  11
ENDBRANCH   9  10
ENDBRANCH   8   9
ENDBRANCH   6   8
ENDBRANCH   1   6
BRANCH   1  19
HETATM   19  C9  UNL     1      39.485  19.651  37.631  1.00  0.00     0.097 A
HETATM   20  C10 UNL     1      40.061  18.739  38.529  1.00  0.00     0.058 A
HETATM   21 CL1  UNL     1      41.731  18.935  38.999  1.00  0.00    -0.083 Cl
HETATM   22  C11 UNL     1      39.321  17.714  39.056  1.00  0.00     0.049 A
HETATM   23  C12 UNL     1      37.990  17.512  38.745  1.00  0.00     0.037 A
HETATM   24 CL2  UNL     1      37.055  16.193  39.433  1.00  0.00    -0.084 Cl
HETATM   25  C13 UNL     1      37.418  18.383  37.883  1.00  0.00     0.044 A
HETATM   26  C14 UNL     1      38.162  19.440  37.335  1.00  0.00     0.036 A
HETATM   27 BR1  UNL     1      37.172  20.614  36.173  1.00  0.00    -0.049 Br
ENDBRANCH   1  19
TORSDOF 10
ENDMDL