MODEL 5
REMARK VINA RESULT: -6.237529359      6.690     10.003
REMARK  12 active torsions:
REMARK  status: ('A' for Active; 'I' for Inactive)
REMARK    1  A    between atoms: N1_2  and  C4_5
REMARK    2  A    between atoms: C4_5  and  C5_6
REMARK    3  A    between atoms: C5_6  and  C6_7
REMARK    4  A    between atoms: C6_7  and  N2_8
REMARK    5  A    between atoms: N2_8  and  C7_10
REMARK    6  A    between atoms: C8_13  and  N4_14
REMARK    7  A    between atoms: N4_14  and  C9_16
REMARK    8  A    between atoms: C9_16  and  C10_17
REMARK    9  A    between atoms: C10_17  and  C11_18
REMARK   10  A    between atoms: C12_22  and  N6_23
REMARK   11  A    between atoms: N6_23  and  C13_24
REMARK   12  A    between atoms: C13_24  and  C14_25
ROOT
HETATM    1  C7  UNL     1      46.877  21.398  34.460  1.00  0.00     0.696 A
HETATM    2  N3  UNL     1      46.967  22.070  33.284  1.00  0.00    -0.022 N
ATOM      3  H3  UNL     1      47.783  21.982  32.677  1.00  0.00     0.203 HD
HETATM    4  C8  UNL     1      45.909  22.870  32.957  1.00  0.00     0.696 A
HETATM    5  N5  UNL     1      44.809  23.087  33.702  1.00  0.00    -0.148 N
ATOM      6  H5  UNL     1      44.038  23.691  33.416  1.00  0.00     0.188 HD
HETATM    7  C12 UNL     1      44.845  22.374  34.935  1.00  0.00     0.287 A
HETATM    8  N7  UNL     1      45.865  21.565  35.254  1.00  0.00    -0.148 N
ATOM      9  H7  UNL     1      45.845  21.067  36.144  1.00  0.00     0.188 HD
ENDROOT
BRANCH   7  10
HETATM   10  N6  UNL     1      43.775  22.344  35.501  1.00  0.00    -0.382 NA
BRANCH  10  11
HETATM   11  C13 UNL     1      42.606  22.292  36.023  1.00  0.00     0.199 C
BRANCH  11  12
HETATM   12  C14 UNL     1      42.030  21.097  36.670  1.00  0.00     0.015 A
HETATM   13  C15 UNL     1      42.539  19.866  36.469  1.00  0.00     0.017 A
HETATM   14  C16 UNL     1      42.167  18.713  37.194  1.00  0.00     0.025 A
HETATM   15  C17 UNL     1      41.199  18.840  38.164  1.00  0.00     0.035 A
HETATM   16 CL2  UNL     1      40.683  17.531  39.206  1.00  0.00    -0.084 Cl
HETATM   17  C18 UNL     1      40.623  20.164  38.368  1.00  0.00     0.048 A
HETATM   18  C19 UNL     1      41.014  21.331  37.648  1.00  0.00     0.048 A
HETATM   19 CL3  UNL     1      40.337  22.817  38.067  1.00  0.00    -0.083 Cl
ENDBRANCH  11  12
ENDBRANCH  10  11
ENDBRANCH   7  10
BRANCH   4  20
HETATM   20  N4  UNL     1      45.874  23.024  31.683  1.00  0.00    -0.225 N
ATOM     21  H4  UNL     1      46.565  22.601  31.065  1.00  0.00     0.177 HD
BRANCH  20  22
HETATM   22  C9  UNL     1      44.810  23.822  31.193  1.00  0.00     0.139 C
BRANCH  22  23
HETATM   23  C10 UNL     1      45.337  25.169  30.821  1.00  0.00     0.035 C
BRANCH  23  24
HETATM   24  C11 UNL     1      45.500  25.296  29.340  1.00  0.00     0.116 C
HETATM   25 CL1  UNL     1      47.297  25.387  28.908  1.00  0.00    -0.130 Cl
ENDBRANCH  23  24
ENDBRANCH  22  23
ENDBRANCH  20  22
ENDBRANCH   4  20
BRANCH   1  26
HETATM   26  N2  UNL     1      47.840  20.501  34.492  1.00  0.00    -0.225 N
ATOM     27  H2  UNL     1      48.752  20.592  34.044  1.00  0.00     0.177 HD
BRANCH  26  28
HETATM   28  C6  UNL     1      47.374  19.327  35.295  1.00  0.00     0.139 C
BRANCH  28  29
HETATM   29  C5  UNL     1      46.641  18.252  34.620  1.00  0.00     0.048 C
BRANCH  29  30
HETATM   30  C4  UNL     1      45.461  17.756  35.418  1.00  0.00     0.237 C
BRANCH  30  31
HETATM   31  N1  UNL     1      45.230  16.354  35.513  1.00  0.00    -0.079 N
HETATM   32  C1  UNL     1      44.934  16.066  36.870  1.00  0.00     0.271 C
HETATM   33  C2  UNL     1      44.270  15.881  34.540  1.00  0.00     0.271 C
HETATM   34  C3  UNL     1      46.538  15.659  35.187  1.00  0.00     0.271 C
ENDBRANCH  30  31
ENDBRANCH  29  30
ENDBRANCH  28  29
ENDBRANCH  26  28
ENDBRANCH   1  26
TORSDOF 12
ENDMDL