MODEL 2
REMARK VINA RESULT: -7.185443093      2.902      3.894
REMARK  10 active torsions:
REMARK  status: ('A' for Active; 'I' for Inactive)
REMARK    1  A    between atoms: C2_2  and  N1_3
REMARK    2  A    between atoms: N1_3  and  C3_6
REMARK    3  A    between atoms: C3_6  and  C4_7
REMARK    4  A    between atoms: C4_7  and  N2_8
REMARK    5  A    between atoms: N2_8  and  C5_10
REMARK    6  A    between atoms: C7_12  and  C8_13
REMARK    7  A    between atoms: C9_14  and  C10_15
REMARK       I    between atoms: C10_15  and  N3_17
REMARK    8  A    between atoms: N3_17  and  C11_19
REMARK    9  A    between atoms: C11_19  and  C12_20
REMARK   10  A    between atoms: C12_20  and  C13_21
ROOT
HETATM    1  C5  UNL     1      40.698  20.724  38.273  1.00  0.00     0.103 A
HETATM    2  C6  UNL     1      39.482  20.568  37.691  1.00  0.00     0.059 A
HETATM    3  C7  UNL     1      38.673  19.403  37.749  1.00  0.00    -0.028 A
HETATM    4  C19 UNL     1      39.225  18.377  38.471  1.00  0.00     0.073 A
HETATM    5  C20 UNL     1      40.477  18.543  39.070  1.00  0.00     0.190 A
HETATM    6  F2  UNL     1      40.961  17.487  39.771  1.00  0.00    -0.186 F
HETATM    7  N4  UNL     1      41.175  19.671  38.970  1.00  0.00    -0.319 N
ATOM      8  H4  UNL     1      42.084  19.741  39.426  1.00  0.00     0.169 HD
ENDROOT
BRANCH   3   9
HETATM    9  C8  UNL     1      37.462  19.387  37.006  1.00  0.00     0.017 C
HETATM   10  C9  UNL     1      36.289  18.950  37.150  1.00  0.00     0.075 C
BRANCH  10  11
HETATM   11  C10 UNL     1      35.620  18.239  38.203  1.00  0.00     0.241 C
HETATM   12  O1  UNL     1      35.032  17.153  38.134  1.00  0.00    -0.269 OA
HETATM   13  N3  UNL     1      35.645  18.888  39.505  1.00  0.00    -0.357 N
ATOM     14  H3  UNL     1      36.115  19.787  39.613  1.00  0.00     0.162 HD
BRANCH  13  15
HETATM   15  C11 UNL     1      35.023  18.281  40.626  1.00  0.00     0.127 C
BRANCH  15  16
HETATM   16  C12 UNL     1      35.993  17.618  41.565  1.00  0.00     0.061 C
BRANCH  16  17
HETATM   17  C13 UNL     1      35.663  16.154  41.618  1.00  0.00    -0.018 A
HETATM   18  C14 UNL     1      34.739  15.654  42.510  1.00  0.00     0.011 A
HETATM   19  C15 UNL     1      34.437  14.307  42.580  1.00  0.00     0.020 A
HETATM   20  C16 UNL     1      35.070  13.427  41.740  1.00  0.00     0.013 A
HETATM   21 BR1  UNL     1      34.682  11.559  41.808  1.00  0.00    -0.051 Br
HETATM   22  C17 UNL     1      35.993  13.905  40.843  1.00  0.00     0.061 A
HETATM   23  C18 UNL     1      36.279  15.250  40.790  1.00  0.00     0.124 A
HETATM   24  F1  UNL     1      37.194  15.719  39.900  1.00  0.00    -0.206 F
ENDBRANCH  16  17
ENDBRANCH  15  16
ENDBRANCH  13  15
ENDBRANCH  10  11
ENDBRANCH   3   9
BRANCH   1  25
HETATM   25  N2  UNL     1      41.393  21.823  38.188  1.00  0.00    -0.375 N
ATOM     26  H2  UNL     1      41.984  22.134  38.959  1.00  0.00     0.161 HD
BRANCH  25  27
HETATM   27  C4  UNL     1      41.297  22.580  36.977  1.00  0.00     0.148 C
BRANCH  27  28
HETATM   28  C3  UNL     1      40.954  24.029  37.174  1.00  0.00     0.251 C
BRANCH  28  29
HETATM   29  N1  UNL     1      42.057  24.870  37.516  1.00  0.00    -0.074 N
ATOM     30  H12 UNL     1      42.398  25.398  36.714  1.00  0.00     0.277 HD
ATOM     31  H11 UNL     1      42.903  24.334  37.710  1.00  0.00     0.277 HD
BRANCH  29  32
HETATM   32  C2  UNL     1      41.698  25.726  38.611  1.00  0.00     0.228 C
HETATM   33  C1  UNL     1      40.462  25.288  39.336  1.00  0.00     0.034 C
ENDBRANCH  29  32
ENDBRANCH  28  29
ENDBRANCH  27  28
ENDBRANCH  25  27
ENDBRANCH   1  25
TORSDOF 10
ENDMDL