MODEL 1
REMARK VINA RESULT: -6.684687521      0.000      0.000
REMARK  10 active torsions:
REMARK  status: ('A' for Active; 'I' for Inactive)
REMARK    1  A    between atoms: C2_2  and  C3_3
REMARK    2  A    between atoms: C3_3  and  N1_4
REMARK    3  A    between atoms: N1_4  and  C4_6
REMARK    4  A    between atoms: C6_10  and  C7_11
REMARK    5  A    between atoms: C7_11  and  C8_12
REMARK    6  A    between atoms: C8_12  and  C9_13
REMARK    7  A    between atoms: C8_12  and  N3_22
REMARK    8  A    between atoms: C9_13  and  C10_14
REMARK    9  A    between atoms: N3_22  and  S1_24
REMARK   10  A    between atoms: S1_24  and  N4_25
ROOT
HETATM    1  C8  UNL     1      41.222  19.648  36.334  1.00  0.00     0.103 C
ENDROOT
BRANCH   1   2
HETATM    2  C7  UNL     1      39.934  18.996  35.923  1.00  0.00     0.066 C
BRANCH   2   3
HETATM    3  C6  UNL     1      38.986  18.837  37.047  1.00  0.00    -0.039 A
HETATM    4  C5  UNL     1      38.405  19.920  37.678  1.00  0.00     0.097 A
HETATM    5  N2  UNL     1      37.548  19.789  38.696  1.00  0.00    -0.351 N
HETATM    6  C4  UNL     1      37.176  18.562  39.193  1.00  0.00     0.122 A
ATOM      7  H2  UNL     1      37.155  20.630  39.119  1.00  0.00     0.166 HD
HETATM    8  C17 UNL     1      37.730  17.466  38.592  1.00  0.00     0.055 A
HETATM    9  C16 UNL     1      38.626  17.586  37.530  1.00  0.00     0.031 A
HETATM   10 BR1  UNL     1      37.315  15.702  39.166  1.00  0.00    -0.047 Br
BRANCH   6  11
HETATM   11  N1  UNL     1      36.370  18.534  40.144  1.00  0.00    -0.351 N
ATOM     12  H1  UNL     1      36.849  18.616  41.041  1.00  0.00     0.166 HD
BRANCH  11  13
HETATM   13  C3  UNL     1      34.988  18.421  40.312  1.00  0.00     0.089 C
BRANCH  13  14
HETATM   14  C2  UNL     1      34.634  17.770  41.626  1.00  0.00     0.007 C
HETATM   15  C1  UNL     1      35.596  17.261  42.356  1.00  0.00     0.012 C
ENDBRANCH  13  14
ENDBRANCH  11  13
ENDBRANCH   6  11
ENDBRANCH   2   3
ENDBRANCH   1   2
BRANCH   1  16
HETATM   16  C9  UNL     1      42.359  18.719  36.133  1.00  0.00     0.064 C
BRANCH  16  17
HETATM   17  C10 UNL     1      42.514  17.718  37.215  1.00  0.00    -0.053 A
HETATM   18  C11 UNL     1      42.126  18.057  38.492  1.00  0.00     0.010 A
HETATM   19  C12 UNL     1      42.237  17.177  39.560  1.00  0.00     0.046 A
HETATM   20  C13 UNL     1      42.760  15.930  39.287  1.00  0.00     0.154 A
HETATM   21  F1  UNL     1      42.903  15.000  40.289  1.00  0.00    -0.203 F
HETATM   22  C14 UNL     1      43.148  15.591  38.007  1.00  0.00     0.155 A
HETATM   23  F2  UNL     1      43.671  14.351  37.727  1.00  0.00    -0.203 F
HETATM   24  C15 UNL     1      43.035  16.470  36.947  1.00  0.00     0.052 A
ENDBRANCH  16  17
ENDBRANCH   1  16
BRANCH   1  25
HETATM   25  N3  UNL     1      41.369  20.909  35.638  1.00  0.00    -0.298 N
ATOM     26  H3  UNL     1      41.398  20.993  34.621  1.00  0.00     0.174 HD
BRANCH  25  27
HETATM   27  S1  UNL     1      41.488  22.255  36.708  1.00  0.00     0.313 S
HETATM   28  O1  UNL     1      42.639  23.140  36.409  1.00  0.00    -0.183 OA
HETATM   29  O2  UNL     1      40.218  23.078  36.630  1.00  0.00    -0.183 OA
BRANCH  27  30
HETATM   30  N4  UNL     1      41.613  21.717  38.363  1.00  0.00    -0.312 N
ATOM     31  H42 UNL     1      42.484  21.414  38.799  1.00  0.00     0.170 HD
ATOM     32  H41 UNL     1      40.703  21.749  38.822  1.00  0.00     0.170 HD
ENDBRANCH  27  30
ENDBRANCH  25  27
ENDBRANCH   1  25
TORSDOF 10
ENDMDL