MODEL 4
REMARK VINA RESULT: -6.438205601      2.764      6.416
REMARK  11 active torsions:
REMARK  status: ('A' for Active; 'I' for Inactive)
REMARK    1  A    between atoms: C1_2  and  C2_3
REMARK       I    between atoms: C1_2  and  N1_12
REMARK    2  A    between atoms: C2_3  and  C3_4
REMARK    3  A    between atoms: N1_12  and  C9_14
REMARK    4  A    between atoms: C9_14  and  C10_15
REMARK    5  A    between atoms: C10_15  and  N2_16
REMARK    6  A    between atoms: N2_16  and  C11_18
REMARK    7  A    between atoms: C15_28  and  N5_29
REMARK    8  A    between atoms: N5_29  and  C16_31
REMARK    9  A    between atoms: C16_31  and  C17_32
REMARK   10  A    between atoms: C17_32  and  C18_33
REMARK   11  A    between atoms: C18_33  and  C19_34
ROOT
HETATM    1  C11 UNL     1      41.632  20.852  37.463  1.00  0.00     0.148 C
HETATM    2  N3  UNL     1      42.428  21.844  36.993  1.00  0.00    -0.304 N
ATOM      3  H3  UNL     1      42.374  22.730  37.494  1.00  0.00     0.171 HD
HETATM    4  C12 UNL     1      43.275  21.813  35.960  1.00  0.00     0.287 C
HETATM    5  O2  UNL     1      43.693  22.957  35.619  1.00  0.00    -0.265 OA
HETATM    6  C13 UNL     1      43.752  20.733  35.225  1.00  0.00     0.199 C
HETATM    7  F3  UNL     1      44.603  21.025  34.231  1.00  0.00    -0.199 F
HETATM    8  C14 UNL     1      43.447  19.403  35.405  1.00  0.00     0.138 C
HETATM    9  N4  UNL     1      42.539  18.911  36.267  1.00  0.00    -0.346 N
ATOM     10  H4  UNL     1      42.306  17.930  36.116  1.00  0.00     0.167 HD
HETATM   11  C15 UNL     1      41.885  19.484  37.292  1.00  0.00     0.145 C
ENDROOT
BRANCH   1  12
HETATM   12  N2  UNL     1      40.566  21.157  38.113  1.00  0.00    -0.372 N
ATOM     13  H2  UNL     1      40.455  20.765  39.048  1.00  0.00     0.161 HD
BRANCH  12  14
HETATM   14  C10 UNL     1      39.523  22.008  37.620  1.00  0.00     0.141 C
BRANCH  14  15
HETATM   15  C9  UNL     1      38.334  21.176  37.210  1.00  0.00     0.142 C
BRANCH  15  16
HETATM   16  N1  UNL     1      38.183  20.030  38.080  1.00  0.00    -0.359 N
HETATM   17  C1  UNL     1      37.768  18.765  37.605  1.00  0.00     0.221 C
HETATM   18  O1  UNL     1      37.515  18.610  36.370  1.00  0.00    -0.273 OA
ATOM     19  H1  UNL     1      38.383  20.139  39.074  1.00  0.00     0.162 HD
BRANCH  17  20
HETATM   20  C2  UNL     1      37.641  17.646  38.571  1.00  0.00     0.141 C
BRANCH  20  21
HETATM   21  C3  UNL     1      36.454  17.815  39.448  1.00  0.00    -0.044 A
HETATM   22  C4  UNL     1      35.223  18.233  38.995  1.00  0.00     0.050 A
HETATM   23  C5  UNL     1      34.166  18.367  39.873  1.00  0.00     0.119 A
HETATM   24  F1  UNL     1      32.937  18.785  39.419  1.00  0.00    -0.206 F
HETATM   25  C6  UNL     1      34.317  18.086  41.223  1.00  0.00     0.084 A
HETATM   26  C7  UNL     1      35.541  17.668  41.676  1.00  0.00     0.119 A
HETATM   27  F2  UNL     1      35.678  17.396  42.995  1.00  0.00    -0.206 F
HETATM   28  C8  UNL     1      36.595  17.537  40.795  1.00  0.00     0.050 A
ENDBRANCH  20  21
ENDBRANCH  17  20
ENDBRANCH  15  16
ENDBRANCH  14  15
ENDBRANCH  12  14
ENDBRANCH   1  12
BRANCH  11  29
HETATM   29  N5  UNL     1      41.433  18.744  38.217  1.00  0.00    -0.373 N
ATOM     30  H5  UNL     1      40.424  18.764  38.363  1.00  0.00     0.161 HD
BRANCH  29  31
HETATM   31  C16 UNL     1      42.185  17.888  39.073  1.00  0.00     0.121 C
BRANCH  31  32
HETATM   32  C17 UNL     1      41.678  16.473  39.148  1.00  0.00     0.024 C
BRANCH  32  33
HETATM   33  C18 UNL     1      42.869  15.582  39.417  1.00  0.00     0.040 C
BRANCH  33  34
HETATM   34  C19 UNL     1      43.375  14.932  38.191  1.00  0.00    -0.058 A
HETATM   35  C20 UNL     1      42.643  13.993  37.489  1.00  0.00     0.007 A
HETATM   36  C21 UNL     1      43.096  13.380  36.350  1.00  0.00     0.001 A
HETATM   37  C22 UNL     1      44.354  13.718  35.876  1.00  0.00     0.000 A
HETATM   38  C23 UNL     1      45.123  14.653  36.544  1.00  0.00     0.001 A
HETATM   39  C24 UNL     1      44.625  15.257  37.705  1.00  0.00     0.007 A
ENDBRANCH  33  34
ENDBRANCH  32  33
ENDBRANCH  31  32
ENDBRANCH  29  31
ENDBRANCH  11  29
TORSDOF 11
ENDMDL