MODEL 4
REMARK VINA RESULT: -6.101816292      4.876      7.349
REMARK  9 active torsions:
REMARK  status: ('A' for Active; 'I' for Inactive)
REMARK    1  A    between atoms: C1_2  and  C2_3
REMARK       I    between atoms: C1_2  and  N2_10
REMARK    2  A    between atoms: C2_3  and  C3_4
REMARK    3  A    between atoms: N2_10  and  C6_12
REMARK    4  A    between atoms: C6_12  and  C7_13
REMARK    5  A    between atoms: C7_13  and  O2_14
REMARK    6  A    between atoms: O2_14  and  C8_15
REMARK    7  A    between atoms: C8_15  and  C9_16
REMARK    8  A    between atoms: C9_16  and  N3_17
REMARK       I    between atoms: N3_17  and  C10_19
REMARK    9  A    between atoms: C10_19  and  C11_21
ROOT
HETATM    1  O2  UNL     1      38.895  21.561  36.481  1.00  0.00    -0.388 OA
ENDROOT
BRANCH   1   2
HETATM    2  C7  UNL     1      39.383  21.630  37.758  1.00  0.00     0.187 C
BRANCH   2   3
HETATM    3  C6  UNL     1      40.860  21.335  37.732  1.00  0.00     0.148 C
BRANCH   3   4
HETATM    4  N2  UNL     1      41.227  20.328  38.707  1.00  0.00    -0.359 N
HETATM    5  C1  UNL     1      41.520  18.989  38.355  1.00  0.00     0.219 C
HETATM    6  O1  UNL     1      41.464  18.640  37.146  1.00  0.00    -0.274 OA
ATOM      7  H2  UNL     1      41.276  20.596  39.690  1.00  0.00     0.162 HD
BRANCH   5   8
HETATM    8  C2  UNL     1      41.887  18.002  39.387  1.00  0.00     0.128 C
BRANCH   8   9
HETATM    9  C3  UNL     1      41.813  16.610  38.827  1.00  0.00     0.100 A
HETATM   10  C4  UNL     1      42.477  15.577  39.662  1.00  0.00     0.115 A
HETATM   11  C5  UNL     1      43.490  15.466  38.608  1.00  0.00     0.163 A
HETATM   12  F1  UNL     1      44.615  14.727  38.420  1.00  0.00    -0.191 F
HETATM   13  N1  UNL     1      42.880  16.357  37.931  1.00  0.00    -0.365 N
ATOM     14  H1  UNL     1      43.095  16.764  37.022  1.00  0.00     0.162 HD
ENDBRANCH   8   9
ENDBRANCH   5   8
ENDBRANCH   3   4
ENDBRANCH   2   3
ENDBRANCH   1   2
BRANCH   1  15
HETATM   15  C8  UNL     1      38.507  20.283  36.101  1.00  0.00     0.187 C
BRANCH  15  16
HETATM   16  C9  UNL     1      37.012  20.179  35.898  1.00  0.00     0.149 C
BRANCH  16  17
HETATM   17  N3  UNL     1      36.405  19.820  37.164  1.00  0.00    -0.354 N
HETATM   18  C10 UNL     1      36.036  18.473  37.411  1.00  0.00     0.268 C
HETATM   19  O3  UNL     1      36.225  17.564  36.548  1.00  0.00    -0.266 OA
ATOM     20  H3  UNL     1      36.242  20.533  37.875  1.00  0.00     0.162 HD
BRANCH  18  21
HETATM   21  C11 UNL     1      35.423  18.073  38.671  1.00  0.00     0.102 A
HETATM   22  C12 UNL     1      34.111  17.840  38.950  1.00  0.00     0.057 A
HETATM   23  C13 UNL     1      33.984  17.483  40.273  1.00  0.00     0.047 A
HETATM   24 BR1  UNL     1      32.376  17.045  41.205  1.00  0.00    -0.048 Br
HETATM   25  C14 UNL     1      35.259  17.505  40.793  1.00  0.00     0.098 A
HETATM   26 BR2  UNL     1      35.760  17.104  42.584  1.00  0.00    -0.030 Br
HETATM   27  N4  UNL     1      36.112  17.861  39.818  1.00  0.00    -0.345 N
ATOM     28  H4  UNL     1      37.122  17.957  39.926  1.00  0.00     0.167 HD
ENDBRANCH  18  21
ENDBRANCH  16  17
ENDBRANCH  15  16
ENDBRANCH   1  15
TORSDOF 9
ENDMDL