MODEL 5
REMARK VINA RESULT: -6.591388606      2.468      6.379
REMARK  12 active torsions:
REMARK  status: ('A' for Active; 'I' for Inactive)
REMARK    1  A    between atoms: N3_4  and  C2_6
REMARK    2  A    between atoms: C2_6  and  C3_7
REMARK    3  A    between atoms: C3_7  and  C4_8
REMARK    4  A    between atoms: C4_8  and  C5_9
REMARK    5  A    between atoms: C5_9  and  C6_10
REMARK    6  A    between atoms: C9_14  and  C10_15
REMARK    7  A    between atoms: C10_15  and  C11_16
REMARK    8  A    between atoms: C11_16  and  N4_17
REMARK       I    between atoms: N4_17  and  C12_19
REMARK    9  A    between atoms: C12_19  and  C13_21
REMARK   10  A    between atoms: C13_21  and  C14_22
REMARK   11  A    between atoms: C14_22  and  N5_23
REMARK       I    between atoms: N5_23  and  C15_25
REMARK   12  A    between atoms: C15_25  and  C16_27
ROOT
HETATM    1  C6  UNL     1      44.047  15.867  36.202  1.00  0.00    -0.032 A
HETATM    2  C7  UNL     1      43.152  16.815  35.678  1.00  0.00     0.051 A
HETATM    3  C8  UNL     1      42.120  17.300  36.442  1.00  0.00     0.125 A
HETATM    4  F1  UNL     1      41.305  18.223  35.878  1.00  0.00    -0.205 F
HETATM    5  C9  UNL     1      41.884  16.902  37.764  1.00  0.00     0.005 A
HETATM    6  C20 UNL     1      42.761  15.982  38.264  1.00  0.00     0.065 A
HETATM    7 CL1  UNL     1      42.661  15.425  39.931  1.00  0.00    -0.082 Cl
HETATM    8  C21 UNL     1      43.818  15.478  37.490  1.00  0.00     0.062 A
HETATM    9 CL2  UNL     1      44.858  14.235  38.195  1.00  0.00    -0.082 Cl
ENDROOT
BRANCH   5  10
HETATM   10  C10 UNL     1      40.767  17.494  38.514  1.00  0.00     0.063 C
BRANCH  10  11
HETATM   11  C11 UNL     1      41.108  18.640  39.391  1.00  0.00     0.127 C
BRANCH  11  12
HETATM   12  N4  UNL     1      41.533  19.833  38.720  1.00  0.00    -0.360 N
HETATM   13  C12 UNL     1      40.631  20.764  38.164  1.00  0.00     0.222 C
HETATM   14  O1  UNL     1      39.376  20.540  38.276  1.00  0.00    -0.273 OA
ATOM     15  H4  UNL     1      42.534  20.017  38.641  1.00  0.00     0.162 HD
BRANCH  13  16
HETATM   16  C13 UNL     1      41.094  21.949  37.483  1.00  0.00     0.147 C
BRANCH  16  17
HETATM   17  C14 UNL     1      41.350  21.790  36.030  1.00  0.00     0.073 C
BRANCH  17  18
HETATM   18  N5  UNL     1      42.657  21.497  35.592  1.00  0.00    -0.340 N
HETATM   19  C15 UNL     1      43.873  22.133  35.462  1.00  0.00     0.225 C
HETATM   20  O2  UNL     1      44.118  23.315  35.758  1.00  0.00    -0.273 OA
ATOM     21  H5  UNL     1      42.723  20.528  35.277  1.00  0.00     0.167 HD
BRANCH  19  22
HETATM   22  C16 UNL     1      45.092  21.405  34.919  1.00  0.00     0.078 C
HETATM   23  C17 UNL     1      44.864  19.931  35.157  1.00  0.00     0.014 C
HETATM   24  C18 UNL     1      45.224  19.677  33.711  1.00  0.00     0.002 C
HETATM   25  C19 UNL     1      45.074  21.151  33.454  1.00  0.00     0.014 C
ENDBRANCH  19  22
ENDBRANCH  17  18
ENDBRANCH  16  17
ENDBRANCH  13  16
ENDBRANCH  11  12
ENDBRANCH  10  11
ENDBRANCH   5  10
BRANCH   1  26
HETATM   26  C5  UNL     1      45.157  15.440  35.330  1.00  0.00     0.040 C
BRANCH  26  27
HETATM   27  C4  UNL     1      46.332  16.341  35.278  1.00  0.00     0.006 C
BRANCH  27  28
HETATM   28  C3  UNL     1      47.320  16.164  34.189  1.00  0.00     0.020 C
BRANCH  28  29
HETATM   29  C2  UNL     1      48.613  16.897  34.613  1.00  0.00     0.122 C
BRANCH  29  30
HETATM   30  N3  UNL     1      48.298  18.226  35.039  1.00  0.00    -0.367 N
HETATM   31  C1  UNL     1      48.955  19.234  34.611  1.00  0.00     0.196 C
HETATM   32  N1  UNL     1      50.025  19.030  33.690  1.00  0.00    -0.067 NA
HETATM   33  N2  UNL     1      48.603  20.534  35.061  1.00  0.00    -0.067 NA
ATOM     34  H3  UNL     1      47.533  18.371  35.698  1.00  0.00     0.161 HD
ENDBRANCH  29  30
ENDBRANCH  28  29
ENDBRANCH  27  28
ENDBRANCH  26  27
ENDBRANCH   1  26
TORSDOF 12
ENDMDL