MODEL 5
REMARK VINA RESULT: -6.521933784      6.906      8.529
REMARK  11 active torsions:
REMARK  status: ('A' for Active; 'I' for Inactive)
REMARK    1  A    between atoms: O1_2  and  C2_3
REMARK    2  A    between atoms: C7_10  and  C8_11
REMARK    3  A    between atoms: C8_11  and  C9_12
REMARK    4  A    between atoms: C9_12  and  C10_13
REMARK    5  A    between atoms: C10_13  and  N1_14
REMARK       I    between atoms: N1_14  and  C11_16
REMARK       I    between atoms: C11_16  and  N5_24
REMARK       I    between atoms: N2_17  and  C12_19
REMARK    6  A    between atoms: N5_24  and  C13_26
REMARK    7  A    between atoms: C13_26  and  C14_27
REMARK    8  A    between atoms: C14_27  and  C15_28
REMARK    9  A    between atoms: C15_28  and  O2_29
REMARK   10  A    between atoms: O2_29  and  C16_30
REMARK   11  A    between atoms: C16_30  and  C17_31
ROOT
HETATM    1  N1  UNL     1      41.784  20.384  38.200  1.00  0.00    -0.226 N
ATOM      2  H1  UNL     1      42.722  19.987  38.236  1.00  0.00     0.177 HD
HETATM    3  C11 UNL     1      41.563  21.673  37.606  1.00  0.00     0.676 C
HETATM    4  N2  UNL     1      41.150  22.638  38.345  1.00  0.00    -0.164 N
ATOM      5  H2  UNL     1      41.002  22.420  39.330  1.00  0.00     0.187 HD
HETATM    6  C12 UNL     1      40.881  23.949  37.957  1.00  0.00     0.200 C
HETATM    7  N3  UNL     1      41.229  24.934  38.722  1.00  0.00    -0.373 N
ATOM      8  H31 UNL     1      41.032  25.894  38.439  1.00  0.00     0.158 HD
ATOM      9  H32 UNL     1      41.692  24.658  39.588  1.00  0.00     0.158 HD
HETATM   10  N4  UNL     1      40.233  24.335  36.744  1.00  0.00    -0.063 NA
HETATM   11  N5  UNL     1      41.758  21.886  36.223  1.00  0.00    -0.226 N
ATOM     12  H5  UNL     1      40.917  22.120  35.696  1.00  0.00     0.177 HD
ENDROOT
BRANCH   1  13
HETATM   13  C10 UNL     1      40.665  19.661  38.744  1.00  0.00     0.138 C
BRANCH  13  14
HETATM   14  C9  UNL     1      40.984  18.236  39.099  1.00  0.00     0.025 C
BRANCH  14  15
HETATM   15  C8  UNL     1      40.841  17.348  37.878  1.00  0.00     0.045 C
BRANCH  15  16
HETATM   16  C7  UNL     1      42.114  17.177  37.142  1.00  0.00    -0.002 A
HETATM   17  C2  UNL     1      42.364  17.903  35.982  1.00  0.00     0.076 A
HETATM   18  C3  UNL     1      43.530  17.776  35.259  1.00  0.00     0.039 A
HETATM   19  C4  UNL     1      44.486  16.893  35.704  1.00  0.00     0.024 A
HETATM   20  C5  UNL     1      44.279  16.152  36.849  1.00  0.00     0.033 A
HETATM   21 BR1  UNL     1      45.650  14.946  37.406  1.00  0.00    -0.049 Br
HETATM   22  C6  UNL     1      43.090  16.301  37.560  1.00  0.00     0.060 A
HETATM   23 CL1  UNL     1      42.902  15.323  39.002  1.00  0.00    -0.082 Cl
BRANCH  17  24
HETATM   24  O1  UNL     1      41.405  18.784  35.544  1.00  0.00    -0.355 OA
HETATM   25  C1  UNL     1      40.954  18.723  34.212  1.00  0.00     0.210 C
ENDBRANCH  17  24
ENDBRANCH  15  16
ENDBRANCH  14  15
ENDBRANCH  13  14
ENDBRANCH   1  13
BRANCH  11  26
HETATM   26  C13 UNL     1      42.950  21.822  35.462  1.00  0.00     0.140 C
BRANCH  26  27
HETATM   27  C14 UNL     1      43.988  22.858  35.658  1.00  0.00     0.046 C
BRANCH  27  28
HETATM   28  C15 UNL     1      45.392  22.501  35.301  1.00  0.00     0.169 C
BRANCH  28  29
HETATM   29  O2  UNL     1      45.600  21.164  35.718  1.00  0.00    -0.389 OA
BRANCH  29  30
HETATM   30  C16 UNL     1      46.290  20.416  34.797  1.00  0.00     0.199 C
BRANCH  30  31
HETATM   31  C17 UNL     1      47.439  19.629  35.386  1.00  0.00     0.248 C
HETATM   32  F1  UNL     1      48.608  20.333  35.265  1.00  0.00    -0.253 F
ENDBRANCH  30  31
ENDBRANCH  29  30
ENDBRANCH  28  29
ENDBRANCH  27  28
ENDBRANCH  26  27
ENDBRANCH  11  26
TORSDOF 11
ENDMDL