MODEL 4
REMARK VINA RESULT: -5.916609621      3.240      3.783
REMARK  13 active torsions:
REMARK  status: ('A' for Active; 'I' for Inactive)
REMARK    1  A    between atoms: C1_2  and  N2_4
REMARK    2  A    between atoms: N2_4  and  C2_6
REMARK    3  A    between atoms: C2_6  and  C3_7
REMARK    4  A    between atoms: C3_7  and  C4_8
REMARK    5  A    between atoms: C4_8  and  C5_9
REMARK    6  A    between atoms: C5_9  and  C6_10
REMARK    7  A    between atoms: C6_10  and  C7_11
REMARK    8  A    between atoms: C7_11  and  N3_12
REMARK    9  A    between atoms: C7_11  and  C18_29
REMARK   10  A    between atoms: N4_17  and  C11_18
REMARK   11  A    between atoms: C11_18  and  C12_19
REMARK   12  A    between atoms: C12_19  and  C13_20
REMARK   13  A    between atoms: C18_29  and  C19_31
ROOT
HETATM    1  N3  UNL     1      41.640  21.884  37.850  1.00  0.00    -0.357 N
ATOM      2  H3  UNL     1      42.164  21.658  38.695  1.00  0.00     0.165 HD
HETATM    3  C8  UNL     1      42.310  21.559  36.738  1.00  0.00     0.079 C
HETATM    4  C9  UNL     1      41.787  20.595  35.705  1.00  0.00     0.082 C
HETATM    5  C10 UNL     1      42.900  20.538  34.693  1.00  0.00     0.132 C
HETATM    6  N4  UNL     1      43.757  21.703  34.921  1.00  0.00    -0.343 N
HETATM    7  C17 UNL     1      43.144  22.474  35.940  1.00  0.00     0.266 C
HETATM    8  O1  UNL     1      43.337  23.699  36.057  1.00  0.00    -0.266 OA
ENDROOT
BRANCH   1   9
HETATM    9  C7  UNL     1      40.409  22.451  38.133  1.00  0.00     0.028 C
BRANCH   9  10
HETATM   10  C6  UNL     1      39.230  21.848  37.406  1.00  0.00     0.058 C
BRANCH  10  11
HETATM   11  C5  UNL     1      38.783  20.495  37.864  1.00  0.00     0.006 C
BRANCH  11  12
HETATM   12  C4  UNL     1      37.621  19.925  37.114  1.00  0.00     0.002 C
BRANCH  12  13
HETATM   13  C3  UNL     1      36.932  21.080  36.365  1.00  0.00     0.020 C
BRANCH  13  14
HETATM   14  C2  UNL     1      36.584  20.558  35.003  1.00  0.00     0.121 C
BRANCH  14  15
HETATM   15  N2  UNL     1      35.658  21.373  34.265  1.00  0.00    -0.369 N
ATOM     16  H2  UNL     1      34.773  21.626  34.704  1.00  0.00     0.161 HD
BRANCH  15  17
HETATM   17  C1  UNL     1      35.923  21.840  32.953  1.00  0.00     0.180 C
HETATM   18  N1  UNL     1      37.116  21.473  32.249  1.00  0.00    -0.070 NA
HETATM   19  S1  UNL     1      34.864  22.818  32.229  1.00  0.00    -0.044 SA
ENDBRANCH  15  17
ENDBRANCH  14  15
ENDBRANCH  13  14
ENDBRANCH  12  13
ENDBRANCH  11  12
ENDBRANCH  10  11
ENDBRANCH   9  10
BRANCH   9  20
HETATM   20  C18 UNL     1      40.244  23.926  38.211  1.00  0.00     0.048 C
HETATM   21 CL2  UNL     1      39.956  24.756  36.675  1.00  0.00    -0.086 Cl
BRANCH  20  22
HETATM   22  C19 UNL     1      41.241  24.638  39.102  1.00  0.00     0.167 C
HETATM   23 CL3  UNL     1      40.887  26.385  39.012  1.00  0.00    -0.125 Cl
ENDBRANCH  20  22
ENDBRANCH   9  20
ENDBRANCH   1   9
BRANCH   6  24
HETATM   24  C11 UNL     1      44.992  21.971  34.248  1.00  0.00     0.155 C
BRANCH  24  25
HETATM   25  C12 UNL     1      46.238  21.654  34.922  1.00  0.00     0.022 C
BRANCH  25  26
HETATM   26  C13 UNL     1      46.909  20.380  34.797  1.00  0.00     0.031 A
HETATM   27  C14 UNL     1      46.486  19.099  34.579  1.00  0.00     0.054 A
HETATM   28  C15 UNL     1      47.633  18.303  34.544  1.00  0.00     0.051 A
HETATM   29 CL1  UNL     1      47.681  16.581  34.294  1.00  0.00    -0.083 Cl
HETATM   30  C16 UNL     1      48.715  19.092  34.738  1.00  0.00     0.112 A
HETATM   31  N5  UNL     1      48.293  20.335  34.889  1.00  0.00    -0.364 N
ATOM     32  H5  UNL     1      48.895  21.142  35.050  1.00  0.00     0.165 HD
ENDBRANCH  25  26
ENDBRANCH  24  25
ENDBRANCH   6  24
TORSDOF 13
ENDMDL