MODEL 1
REMARK VINA RESULT: -6.032403558      0.000      0.000
REMARK  12 active torsions:
REMARK  status: ('A' for Active; 'I' for Inactive)
REMARK    1  A    between atoms: N3_4  and  C2_6
REMARK    2  A    between atoms: C2_6  and  C3_7
REMARK    3  A    between atoms: C3_7  and  C4_8
REMARK    4  A    between atoms: C4_8  and  N4_9
REMARK       I    between atoms: N4_9  and  C5_11
REMARK    5  A    between atoms: C5_11  and  C6_13
REMARK    6  A    between atoms: C6_13  and  C7_14
REMARK    7  A    between atoms: C7_14  and  C8_15
REMARK    8  A    between atoms: C8_15  and  C9_16
REMARK    9  A    between atoms: C9_16  and  C10_17
REMARK   10  A    between atoms: C10_17  and  N5_18
REMARK   11  A    between atoms: N5_18  and  S1_20
REMARK   12  A    between atoms: S1_20  and  C11_23
ROOT
HETATM    1  C9  UNL     1      45.387  16.687  35.558  1.00  0.00     0.020 C
ENDROOT
BRANCH   1   2
HETATM    2  C8  UNL     1      44.293  17.525  35.011  1.00  0.00     0.002 C
BRANCH   2   3
HETATM    3  C7  UNL     1      43.451  18.181  36.035  1.00  0.00     0.009 C
BRANCH   3   4
HETATM    4  C6  UNL     1      43.179  19.661  35.638  1.00  0.00     0.103 C
BRANCH   4   5
HETATM    5  C5  UNL     1      42.456  20.272  36.771  1.00  0.00     0.217 C
HETATM    6  N4  UNL     1      41.392  19.551  37.367  1.00  0.00    -0.361 N
ATOM      7  H4  UNL     1      41.161  18.632  36.990  1.00  0.00     0.162 HD
HETATM    8  O1  UNL     1      42.804  21.408  37.169  1.00  0.00    -0.274 OA
BRANCH   6   9
HETATM    9  C4  UNL     1      40.620  20.047  38.480  1.00  0.00     0.124 C
BRANCH   9  10
HETATM   10  C3  UNL     1      39.299  20.544  37.989  1.00  0.00     0.039 C
BRANCH  10  11
HETATM   11  C2  UNL     1      39.389  21.984  37.495  1.00  0.00     0.123 C
BRANCH  11  12
HETATM   12  N3  UNL     1      40.264  22.781  38.297  1.00  0.00    -0.367 N
HETATM   13  C1  UNL     1      40.623  23.988  38.016  1.00  0.00     0.196 C
HETATM   14  N1  UNL     1      40.120  24.573  36.836  1.00  0.00    -0.067 NA
HETATM   15  N2  UNL     1      41.501  24.643  38.921  1.00  0.00    -0.067 NA
ATOM     16  H3  UNL     1      40.632  22.366  39.153  1.00  0.00     0.161 HD
ENDBRANCH  11  12
ENDBRANCH  10  11
ENDBRANCH   9  10
ENDBRANCH   6   9
ENDBRANCH   4   5
ENDBRANCH   3   4
ENDBRANCH   2   3
ENDBRANCH   1   2
BRANCH   1  17
HETATM   17  C10 UNL     1      46.663  16.738  34.831  1.00  0.00     0.132 C
BRANCH  17  18
HETATM   18  N5  UNL     1      47.459  17.916  34.929  1.00  0.00    -0.315 N
ATOM     19  H5  UNL     1      47.890  18.271  35.783  1.00  0.00     0.172 HD
BRANCH  18  20
HETATM   20  S1  UNL     1      47.574  18.641  33.374  1.00  0.00     0.260 S
HETATM   21  O2  UNL     1      47.227  17.600  32.348  1.00  0.00    -0.200 OA
HETATM   22  O3  UNL     1      48.988  19.120  33.207  1.00  0.00    -0.200 OA
BRANCH  20  23
HETATM   23  C11 UNL     1      46.446  19.974  33.306  1.00  0.00     0.104 A
HETATM   24  C12 UNL     1      45.598  20.162  32.229  1.00  0.00     0.050 A
HETATM   25  C13 UNL     1      44.719  21.217  32.181  1.00  0.00     0.037 A
HETATM   26 CL1  UNL     1      43.638  21.453  30.805  1.00  0.00    -0.084 Cl
HETATM   27  C14 UNL     1      44.664  22.116  33.218  1.00  0.00     0.049 A
HETATM   28  C15 UNL     1      45.509  21.924  34.284  1.00  0.00     0.059 A
HETATM   29 CL2  UNL     1      45.476  23.049  35.632  1.00  0.00    -0.082 Cl
HETATM   30  C16 UNL     1      46.411  20.863  34.357  1.00  0.00     0.079 A
HETATM   31 CL3  UNL     1      47.438  20.714  35.776  1.00  0.00    -0.081 Cl
ENDBRANCH  20  23
ENDBRANCH  18  20
ENDBRANCH  17  18
ENDBRANCH   1  17
TORSDOF 12
ENDMDL