MODEL 2
REMARK VINA RESULT: -6.687722831      0.533      2.261
REMARK  13 active torsions:
REMARK  status: ('A' for Active; 'I' for Inactive)
REMARK       I    between atoms: C1_4  and  N3_6
REMARK    1  A    between atoms: N3_6  and  C2_8
REMARK    2  A    between atoms: C2_8  and  C3_9
REMARK    3  A    between atoms: C3_9  and  N4_10
REMARK    4  A    between atoms: N4_10  and  C4_12
REMARK    5  A    between atoms: N6_16  and  C6_18
REMARK    6  A    between atoms: C6_18  and  C7_19
REMARK    7  A    between atoms: C7_19  and  C8_20
REMARK    8  A    between atoms: C8_20  and  C9_21
REMARK    9  A    between atoms: C12_24  and  N7_25
REMARK   10  A    between atoms: N7_25  and  C13_26
REMARK   11  A    between atoms: N7_25  and  C15_29
REMARK   12  A    between atoms: C13_26  and  C14_27
REMARK   13  A    between atoms: C15_29  and  C16_30
ROOT
HETATM    1  C4  UNL     1      43.207  20.124  35.732  1.00  0.00     0.140 A
HETATM    2  N5  UNL     1      42.505  19.648  36.789  1.00  0.00    -0.175 N
ATOM      3  H5  UNL     1      42.499  18.639  36.937  1.00  0.00     0.186 HD
HETATM    4  C5  UNL     1      41.817  20.406  37.654  1.00  0.00     0.683 A
HETATM    5  N6  UNL     1      41.139  19.991  38.658  1.00  0.00    -0.205 N
ATOM      6  H6  UNL     1      40.668  20.695  39.226  1.00  0.00     0.183 HD
HETATM    7  N8  UNL     1      41.863  21.760  37.401  1.00  0.00    -0.200 N
ATOM      8  H8  UNL     1      41.358  22.387  38.027  1.00  0.00     0.183 HD
HETATM    9  C19 UNL     1      42.536  22.290  36.378  1.00  0.00     0.133 A
HETATM   10  C20 UNL     1      43.228  21.481  35.514  1.00  0.00     0.094 A
HETATM   11 CL3  UNL     1      44.132  22.113  34.152  1.00  0.00    -0.079 Cl
ENDROOT
BRANCH   5  12
HETATM   12  C6  UNL     1      40.992  18.653  39.042  1.00  0.00     0.079 C
BRANCH  12  13
HETATM   13  C7  UNL     1      39.751  17.955  38.516  1.00  0.00     0.049 C
BRANCH  13  14
HETATM   14  C8  UNL     1      38.554  18.845  38.684  1.00  0.00     0.043 C
BRANCH  14  15
HETATM   15  C9  UNL     1      37.407  18.131  39.262  1.00  0.00    -0.058 A
HETATM   16  C10 UNL     1      36.676  17.223  38.540  1.00  0.00     0.009 A
HETATM   17  C11 UNL     1      35.604  16.555  39.089  1.00  0.00     0.030 A
HETATM   18  C12 UNL     1      35.231  16.787  40.405  1.00  0.00     0.030 A
HETATM   19  C17 UNL     1      35.957  17.695  41.137  1.00  0.00     0.030 A
HETATM   20  C18 UNL     1      37.032  18.356  40.563  1.00  0.00     0.009 A
BRANCH  18  21
HETATM   21  N7  UNL     1      34.142  16.112  40.966  1.00  0.00    -0.379 N
BRANCH  21  22
HETATM   22  C13 UNL     1      32.932  16.756  41.367  1.00  0.00     0.138 C
BRANCH  22  23
HETATM   23  C14 UNL     1      32.067  17.260  40.270  1.00  0.00     0.134 C
HETATM   24 CL1  UNL     1      32.423  18.933  39.821  1.00  0.00    -0.129 Cl
ENDBRANCH  22  23
ENDBRANCH  21  22
BRANCH  21  25
HETATM   25  C15 UNL     1      34.240  14.671  41.134  1.00  0.00     0.138 C
BRANCH  25  26
HETATM   26  C16 UNL     1      34.901  14.260  42.414  1.00  0.00     0.134 C
HETATM   27 CL2  UNL     1      36.622  13.891  42.221  1.00  0.00    -0.129 Cl
ENDBRANCH  25  26
ENDBRANCH  21  25
ENDBRANCH  18  21
ENDBRANCH  14  15
ENDBRANCH  13  14
ENDBRANCH  12  13
ENDBRANCH   5  12
BRANCH   1  28
HETATM   28  N4  UNL     1      43.827  19.316  34.936  1.00  0.00    -0.373 N
ATOM     29  H4  UNL     1      43.518  19.301  33.965  1.00  0.00     0.161 HD
BRANCH  28  30
HETATM   30  C3  UNL     1      44.901  18.444  35.282  1.00  0.00     0.141 C
BRANCH  30  31
HETATM   31  C2  UNL     1      46.258  19.045  35.001  1.00  0.00     0.142 C
BRANCH  31  32
HETATM   32  N3  UNL     1      47.359  18.152  35.184  1.00  0.00    -0.363 N
HETATM   33  C1  UNL     1      48.605  18.259  34.522  1.00  0.00     0.181 C
HETATM   34  N1  UNL     1      49.632  17.566  34.954  1.00  0.00    -0.374 N
HETATM   35  N2  UNL     1      48.757  19.107  33.397  1.00  0.00    -0.064 NA
ATOM     36  H12 UNL     1      50.531  17.644  34.477  1.00  0.00     0.158 HD
ATOM     37  H11 UNL     1      49.523  16.956  35.764  1.00  0.00     0.158 HD
ATOM     38  H3  UNL     1      47.237  17.380  35.839  1.00  0.00     0.162 HD
ENDBRANCH  31  32
ENDBRANCH  30  31
ENDBRANCH  28  30
ENDBRANCH   1  28
TORSDOF 13
ENDMDL