MODEL 1
REMARK VINA RESULT: -7.431947335      0.000      0.000
REMARK  14 active torsions:
REMARK  status: ('A' for Active; 'I' for Inactive)
REMARK    1  A    between atoms: C4_4  and  C5_5
REMARK    2  A    between atoms: C5_5  and  N1_6
REMARK    3  A    between atoms: N1_6  and  C6_9
REMARK    4  A    between atoms: C6_9  and  C7_10
REMARK    5  A    between atoms: C7_10  and  C8_11
REMARK    6  A    between atoms: C8_11  and  N2_12
REMARK    7  A    between atoms: N2_12  and  C9_14
REMARK    8  A    between atoms: N4_18  and  C11_20
REMARK    9  A    between atoms: C11_20  and  C12_21
REMARK   10  A    between atoms: C12_21  and  C13_22
REMARK   11  A    between atoms: C14_26  and  N6_27
REMARK   12  A    between atoms: N6_27  and  C15_29
REMARK   13  A    between atoms: C15_29  and  C16_30
REMARK   14  A    between atoms: C16_30  and  C17_31
ROOT
HETATM    1  C9  UNL     1      40.692  19.624  38.639  1.00  0.00     0.707 A
HETATM    2  N3  UNL     1      40.680  20.935  38.246  1.00  0.00    -0.022 N
ATOM      3  H3  UNL     1      41.559  21.452  38.246  1.00  0.00     0.203 HD
HETATM    4  C10 UNL     1      39.570  21.567  37.864  1.00  0.00     0.707 A
HETATM    5  N4  UNL     1      39.546  22.789  37.499  1.00  0.00    -0.225 N
ATOM      6  H4  UNL     1      38.654  23.199  37.221  1.00  0.00     0.177 HD
HETATM    7  N5  UNL     1      38.398  20.848  37.874  1.00  0.00    -0.022 N
ATOM      8  H5  UNL     1      37.533  21.305  37.587  1.00  0.00     0.203 HD
HETATM    9  C14 UNL     1      38.366  19.569  38.249  1.00  0.00     0.707 A
HETATM   10  N7  UNL     1      39.514  18.987  38.624  1.00  0.00    -0.022 N
ATOM     11  H7  UNL     1      39.489  18.009  38.913  1.00  0.00     0.203 HD
ENDROOT
BRANCH   1  12
HETATM   12  N2  UNL     1      41.808  19.097  38.990  1.00  0.00    -0.225 N
ATOM     13  H2  UNL     1      42.275  19.468  39.817  1.00  0.00     0.177 HD
BRANCH  12  14
HETATM   14  C8  UNL     1      42.440  18.012  38.282  1.00  0.00     0.139 C
BRANCH  14  15
HETATM   15  C7  UNL     1      42.579  16.875  39.277  1.00  0.00     0.048 C
BRANCH  15  16
HETATM   16  C6  UNL     1      42.437  15.526  38.653  1.00  0.00     0.234 C
BRANCH  16  17
HETATM   17  N1  UNL     1      43.542  14.686  39.047  1.00  0.00    -0.075 N
ATOM     18  H12 UNL     1      43.219  13.940  39.663  1.00  0.00     0.277 HD
ATOM     19  H11 UNL     1      44.158  15.187  39.687  1.00  0.00     0.277 HD
BRANCH  17  20
HETATM   20  C5  UNL     1      44.288  14.144  37.957  1.00  0.00     0.237 C
BRANCH  20  21
HETATM   21  C4  UNL     1      45.373  15.091  37.524  1.00  0.00     0.015 A
HETATM   22  C2  UNL     1      45.219  15.603  36.069  1.00  0.00    -0.013 A
HETATM   23  C1  UNL     1      45.412  17.091  35.919  1.00  0.00     0.010 C
HETATM   24  C3  UNL     1      46.345  14.742  36.454  1.00  0.00     0.011 A
ENDBRANCH  20  21
ENDBRANCH  17  20
ENDBRANCH  16  17
ENDBRANCH  15  16
ENDBRANCH  14  15
ENDBRANCH  12  14
ENDBRANCH   1  12
BRANCH   9  25
HETATM   25  N6  UNL     1      37.237  18.913  38.256  1.00  0.00    -0.225 N
ATOM     26  H6  UNL     1      36.528  19.150  37.563  1.00  0.00     0.177 HD
BRANCH  25  27
HETATM   27  C15 UNL     1      36.953  17.862  39.210  1.00  0.00     0.142 C
BRANCH  27  28
HETATM   28  C16 UNL     1      36.385  18.542  40.445  1.00  0.00     0.060 C
BRANCH  28  29
HETATM   29  C17 UNL     1      34.965  18.220  40.652  1.00  0.00    -0.035 A
HETATM   30  C18 UNL     1      34.012  18.808  39.861  1.00  0.00     0.010 A
HETATM   31  C19 UNL     1      32.661  18.516  40.035  1.00  0.00     0.024 A
HETATM   32  C20 UNL     1      32.263  17.629  41.005  1.00  0.00     0.035 A
HETATM   33 CL1  UNL     1      30.565  17.262  41.220  1.00  0.00    -0.084 Cl
HETATM   34  C21 UNL     1      33.212  17.032  41.806  1.00  0.00     0.048 A
HETATM   35  C22 UNL     1      34.565  17.333  41.623  1.00  0.00     0.042 A
HETATM   36 CL2  UNL     1      35.694  16.526  42.687  1.00  0.00    -0.084 Cl
ENDBRANCH  28  29
ENDBRANCH  27  28
ENDBRANCH  25  27
ENDBRANCH   9  25
BRANCH   5  37
HETATM   37  C11 UNL     1      40.713  23.607  37.462  1.00  0.00     0.140 C
BRANCH  37  38
HETATM   38  C12 UNL     1      40.435  25.021  37.936  1.00  0.00     0.051 C
BRANCH  38  39
HETATM   39  C13 UNL     1      41.017  25.120  39.349  1.00  0.00     0.224 C
HETATM   40  F1  UNL     1      40.206  25.893  40.157  1.00  0.00    -0.255 F
ENDBRANCH  38  39
ENDBRANCH  37  38
ENDBRANCH   5  37
TORSDOF 14
ENDMDL