MODEL 3
REMARK VINA RESULT: -5.318169142      3.806      6.970
REMARK  12 active torsions:
REMARK  status: ('A' for Active; 'I' for Inactive)
REMARK    1  A    between atoms: C2_2  and  C3_3
REMARK    2  A    between atoms: C3_3  and  C4_4
REMARK    3  A    between atoms: C4_4  and  N1_5
REMARK    4  A    between atoms: N1_5  and  C5_8
REMARK    5  A    between atoms: C5_8  and  C6_9
REMARK    6  A    between atoms: C6_9  and  C7_10
REMARK    7  A    between atoms: C7_10  and  C8_11
REMARK    8  A    between atoms: C8_11  and  N2_12
REMARK    9  A    between atoms: N2_12  and  C9_14
REMARK   10  A    between atoms: C9_14  and  C10_15
REMARK   11  A    between atoms: C10_15  and  N3_16
REMARK       I    between atoms: N3_16  and  C11_18
REMARK   12  A    between atoms: C11_18  and  C12_20
ROOT
HETATM    1  C9  UNL     1      43.284  22.539  35.799  1.00  0.00     0.133 C
ENDROOT
BRANCH   1   2
HETATM    2  N2  UNL     1      42.155  22.444  36.652  1.00  0.00    -0.420 N
ATOM      3  H2  UNL     1      41.966  21.594  37.183  1.00  0.00     0.153 HD
BRANCH   2   4
HETATM    4  C8  UNL     1      41.295  23.578  36.743  1.00  0.00     0.113 C
BRANCH   4   5
HETATM    5  C7  UNL     1      40.125  23.281  37.631  1.00  0.00     0.021 C
BRANCH   5   6
HETATM    6  C6  UNL     1      39.926  21.819  37.906  1.00  0.00     0.029 C
BRANCH   6   7
HETATM    7  C5  UNL     1      38.614  21.320  37.324  1.00  0.00     0.232 C
BRANCH   7   8
HETATM    8  N1  UNL     1      37.940  20.509  38.265  1.00  0.00    -0.075 N
ATOM      9  H12 UNL     1      36.956  20.771  38.328  1.00  0.00     0.277 HD
ATOM     10  H11 UNL     1      38.236  20.735  39.215  1.00  0.00     0.277 HD
BRANCH   8  11
HETATM   11  C4  UNL     1      38.073  19.113  38.016  1.00  0.00     0.232 C
BRANCH  11  12
HETATM   12  C3  UNL     1      37.921  18.312  39.289  1.00  0.00     0.027 C
BRANCH  12  13
HETATM   13  C2  UNL     1      36.516  18.499  39.812  1.00  0.00    -0.003 C
HETATM   14  C1  UNL     1      36.496  17.914  41.213  1.00  0.00     0.005 C
ENDBRANCH  12  13
ENDBRANCH  11  12
ENDBRANCH   8  11
ENDBRANCH   7   8
ENDBRANCH   6   7
ENDBRANCH   5   6
ENDBRANCH   4   5
ENDBRANCH   2   4
ENDBRANCH   1   2
BRANCH   1  15
HETATM   15  C10 UNL     1      43.379  21.402  34.833  1.00  0.00     0.142 C
BRANCH  15  16
HETATM   16  N3  UNL     1      43.653  20.166  35.538  1.00  0.00    -0.354 N
HETATM   17  C11 UNL     1      42.637  19.254  35.931  1.00  0.00     0.270 C
HETATM   18  O1  UNL     1      41.445  19.486  35.692  1.00  0.00    -0.266 OA
ATOM     19  H3  UNL     1      44.622  19.941  35.763  1.00  0.00     0.162 HD
BRANCH  17  20
HETATM   20  C12 UNL     1      43.033  18.026  36.626  1.00  0.00     0.125 A
HETATM   21  N4  UNL     1      43.859  17.070  36.155  1.00  0.00    -0.343 N
HETATM   22  C13 UNL     1      43.995  16.087  37.049  1.00  0.00     0.099 A
ATOM     23  H4  UNL     1      44.316  17.094  35.244  1.00  0.00     0.167 HD
HETATM   24 BR1  UNL     1      45.031  14.499  36.905  1.00  0.00    -0.030 Br
HETATM   25  C14 UNL     1      43.228  16.427  38.132  1.00  0.00     0.069 A
HETATM   26 BR2  UNL     1      43.057  15.351  39.718  1.00  0.00    -0.046 Br
HETATM   27  C15 UNL     1      42.618  17.647  37.875  1.00  0.00     0.086 A
HETATM   28 CL1  UNL     1      41.552  18.502  38.938  1.00  0.00    -0.080 Cl
ENDBRANCH  17  20
ENDBRANCH  15  16
ENDBRANCH   1  15
TORSDOF 12
ENDMDL