MODEL 1
REMARK VINA RESULT: -5.464075377      0.000      0.000
REMARK  13 active torsions:
REMARK  status: ('A' for Active; 'I' for Inactive)
REMARK    1  A    between atoms: C2_2  and  C3_3
REMARK    2  A    between atoms: C3_3  and  C4_4
REMARK    3  A    between atoms: C3_3  and  C5_6
REMARK    4  A    between atoms: C3_3  and  N1_9
REMARK    5  A    between atoms: C5_6  and  C6_7
REMARK    6  A    between atoms: N1_9  and  C8_11
REMARK    7  A    between atoms: N1_9  and  C10_15
REMARK    8  A    between atoms: C8_11  and  C9_12
REMARK    9  A    between atoms: C9_12  and  O1_13
REMARK   10  A    between atoms: C10_15  and  C11_16
REMARK   11  A    between atoms: C11_16  and  O2_17
REMARK   12  A    between atoms: O2_17  and  C12_18
REMARK   13  A    between atoms: C12_18  and  C13_19
ROOT
HETATM    1  C11 UNL     1      42.809  20.746  36.139  1.00  0.00     0.196 C
ENDROOT
BRANCH   1   2
HETATM    2  C10 UNL     1      42.112  20.377  37.404  1.00  0.00     0.264 C
BRANCH   2   3
HETATM    3  N1  UNL     1      40.930  19.602  37.343  1.00  0.00    -0.056 N
HETATM    4  C7  UNL     1      40.379  19.785  35.980  1.00  0.00     0.273 C
BRANCH   3   5
HETATM    5  C3  UNL     1      41.138  18.166  37.599  1.00  0.00     0.155 C
BRANCH   5   6
HETATM    6  C2  UNL     1      39.843  17.683  38.334  1.00  0.00     0.037 C
HETATM    7  C1  UNL     1      39.265  16.424  37.877  1.00  0.00     0.007 C
ENDBRANCH   5   6
BRANCH   5   8
HETATM    8  C4  UNL     1      41.127  17.340  36.371  1.00  0.00     0.261 C
HETATM    9  F1  UNL     1      42.214  17.237  35.598  1.00  0.00    -0.253 F
ENDBRANCH   5   8
BRANCH   5  10
HETATM   10  C5  UNL     1      42.168  17.835  38.594  1.00  0.00     0.057 C
BRANCH  10  11
HETATM   11  C6  UNL     1      42.978  16.627  38.603  1.00  0.00     0.117 C
HETATM   12 CL1  UNL     1      42.622  15.324  39.714  1.00  0.00    -0.130 Cl
ENDBRANCH  10  11
ENDBRANCH   5  10
ENDBRANCH   3   5
BRANCH   3  13
HETATM   13  C8  UNL     1      39.869  20.184  38.137  1.00  0.00     0.264 C
BRANCH  13  14
HETATM   14  C9  UNL     1      39.455  21.585  37.867  1.00  0.00     0.192 C
BRANCH  14  15
HETATM   15  O1  UNL     1      38.033  21.601  37.870  1.00  0.00    -0.399 OA
ATOM     16  H1  UNL     1      37.759  21.849  36.995  1.00  0.00     0.209 HD
ENDBRANCH  14  15
ENDBRANCH  13  14
ENDBRANCH   3  13
ENDBRANCH   2   3
ENDBRANCH   1   2
BRANCH   1  17
HETATM   17  O2  UNL     1      43.880  19.900  35.932  1.00  0.00    -0.385 OA
BRANCH  17  18
HETATM   18  C12 UNL     1      44.348  19.763  34.665  1.00  0.00     0.209 C
BRANCH  18  19
HETATM   19  C13 UNL     1      45.830  19.603  34.610  1.00  0.00     0.007 A
HETATM   20  C14 UNL     1      46.618  20.728  34.666  1.00  0.00     0.017 A
HETATM   21  C15 UNL     1      45.970  22.045  34.777  1.00  0.00     0.069 C
HETATM   22  N2  UNL     1      47.981  20.628  34.619  1.00  0.00    -0.344 N
HETATM   23  C16 UNL     1      48.592  19.451  34.519  1.00  0.00     0.125 A
ATOM     24  H2  UNL     1      48.544  21.478  34.662  1.00  0.00     0.167 HD
HETATM   25  N3  UNL     1      49.886  19.328  34.473  1.00  0.00    -0.384 N
HETATM   26  C17 UNL     1      47.833  18.307  34.461  1.00  0.00     0.107 A
ATOM     27  H32 UNL     1      50.450  20.176  34.516  1.00  0.00     0.157 HD
ATOM     28  H31 UNL     1      50.355  18.425  34.396  1.00  0.00     0.157 HD
HETATM   29  N4  UNL     1      48.448  17.049  34.356  1.00  0.00    -0.097 NA
HETATM   30  C18 UNL     1      46.432  18.373  34.507  1.00  0.00     0.049 A
HETATM   31 BR1  UNL     1      45.379  16.810  34.429  1.00  0.00    -0.048 Br
ENDBRANCH  18  19
ENDBRANCH  17  18
ENDBRANCH   1  17
TORSDOF 13
ENDMDL