MODEL 4
REMARK VINA RESULT: -6.640631455      3.208      6.383
REMARK  13 active torsions:
REMARK  status: ('A' for Active; 'I' for Inactive)
REMARK    1  A    between atoms: C1_2  and  C2_3
REMARK    2  A    between atoms: C2_3  and  C3_4
REMARK    3  A    between atoms: C3_4  and  N2_5
REMARK       I    between atoms: N2_5  and  C4_7
REMARK    4  A    between atoms: C4_7  and  C5_9
REMARK    5  A    between atoms: N3_12  and  C8_13
REMARK    6  A    between atoms: C8_13  and  C9_14
REMARK    7  A    between atoms: C9_14  and  C10_15
REMARK    8  A    between atoms: C10_15  and  C11_16
REMARK    9  A    between atoms: C11_16  and  C12_17
REMARK   10  A    between atoms: C12_17  and  C13_18
REMARK   11  A    between atoms: C13_18  and  C14_19
REMARK   12  A    between atoms: C14_19  and  N4_20
REMARK   13  A    between atoms: N5_31  and  O2_33
ROOT
HETATM    1  C5  UNL     1      42.017  22.007  36.263  1.00  0.00     0.034 A
HETATM    2  C6  UNL     1      41.246  22.653  37.197  1.00  0.00     0.034 A
HETATM    3  C7  UNL     1      39.941  22.272  37.477  1.00  0.00     0.091 A
HETATM    4  N3  UNL     1      39.360  21.243  36.843  1.00  0.00    -0.366 N
HETATM    5  C20 UNL     1      40.105  20.601  35.924  1.00  0.00     0.091 A
HETATM    6  C21 UNL     1      41.392  20.937  35.613  1.00  0.00     0.034 A
ENDROOT
BRANCH   4   7
HETATM    7  C8  UNL     1      37.999  20.827  37.108  1.00  0.00     0.128 C
BRANCH   7   8
HETATM    8  C9  UNL     1      37.818  19.359  37.292  1.00  0.00     0.020 C
BRANCH   8   9
HETATM    9  C10 UNL     1      38.155  18.930  38.696  1.00  0.00     0.002 C
BRANCH   9  10
HETATM   10  C11 UNL     1      39.471  18.170  38.779  1.00  0.00     0.000 C
BRANCH  10  11
HETATM   11  C12 UNL     1      40.558  19.048  39.338  1.00  0.00     0.002 C
BRANCH  11  12
HETATM   12  C13 UNL     1      41.889  18.802  38.729  1.00  0.00     0.020 C
BRANCH  12  13
HETATM   13  C14 UNL     1      42.339  17.393  38.605  1.00  0.00     0.128 C
BRANCH  13  14
HETATM   14  N4  UNL     1      43.198  17.122  37.470  1.00  0.00    -0.363 N
HETATM   15  C15 UNL     1      44.187  16.234  37.533  1.00  0.00     0.117 A
HETATM   16  C16 UNL     1      45.043  15.944  36.476  1.00  0.00     0.089 A
HETATM   17 CL1  UNL     1      46.326  14.760  36.630  1.00  0.00    -0.080 Cl
HETATM   18  C17 UNL     1      44.852  16.623  35.295  1.00  0.00     0.162 A
HETATM   19  F1  UNL     1      45.642  16.404  34.211  1.00  0.00    -0.202 F
HETATM   20  C18 UNL     1      43.834  17.542  35.220  1.00  0.00     0.089 A
HETATM   21 CL2  UNL     1      43.587  18.411  33.709  1.00  0.00    -0.080 Cl
HETATM   22  C19 UNL     1      43.018  17.788  36.294  1.00  0.00     0.117 A
ENDBRANCH  13  14
ENDBRANCH  12  13
ENDBRANCH  11  12
ENDBRANCH  10  11
ENDBRANCH   9  10
ENDBRANCH   8   9
ENDBRANCH   7   8
ENDBRANCH   4   7
BRANCH   1  23
HETATM   23  C4  UNL     1      43.390  22.352  35.918  1.00  0.00     0.251 C
HETATM   24  N2  UNL     1      44.324  21.359  35.568  1.00  0.00    -0.356 N
ATOM     25  H2  UNL     1      44.020  20.385  35.565  1.00  0.00     0.162 HD
HETATM   26  O1  UNL     1      43.712  23.588  35.946  1.00  0.00    -0.268 OA
BRANCH  24  27
HETATM   27  C3  UNL     1      45.680  21.653  35.215  1.00  0.00     0.130 C
BRANCH  27  28
HETATM   28  C2  UNL     1      46.033  21.038  33.899  1.00  0.00     0.094 C
BRANCH  28  29
HETATM   29  C1  UNL     1      46.161  22.061  32.830  1.00  0.00     0.114 C
HETATM   30  N1  UNL     1      45.419  23.254  32.917  1.00  0.00    -0.086 NA
HETATM   31  N5  UNL     1      46.948  21.834  31.848  1.00  0.00    -0.259 N
ATOM     32  H5  UNL     1      47.029  22.543  31.119  1.00  0.00     0.195 HD
BRANCH  31  33
HETATM   33  O2  UNL     1      47.687  20.687  31.723  1.00  0.00    -0.289 OA
ATOM     34  H2  UNL     1      47.627  20.104  30.975  1.00  0.00     0.244 HD
ENDBRANCH  31  33
ENDBRANCH  28  29
ENDBRANCH  27  28
ENDBRANCH  24  27
ENDBRANCH   1  23
TORSDOF 13
ENDMDL