MODEL 2
REMARK VINA RESULT: -6.850162391      2.014      2.420
REMARK  15 active torsions:
REMARK  status: ('A' for Active; 'I' for Inactive)
REMARK    1  A    between atoms: O1_1  and  C1_3
REMARK    2  A    between atoms: C1_3  and  C2_4
REMARK    3  A    between atoms: C2_4  and  N1_5
REMARK    4  A    between atoms: N1_5  and  C3_7
REMARK    5  A    between atoms: C3_7  and  N2_9
REMARK    6  A    between atoms: N2_9  and  C4_11
REMARK    7  A    between atoms: C4_11  and  C5_12
REMARK    8  A    between atoms: C5_12  and  C6_13
REMARK    9  A    between atoms: C6_13  and  C7_14
REMARK   10  A    between atoms: C7_14  and  C8_15
REMARK   11  A    between atoms: C8_15  and  C9_16
REMARK   12  A    between atoms: C9_16  and  N3_17
REMARK       I    between atoms: N3_17  and  C10_19
REMARK       I    between atoms: C10_19  and  N5_33
REMARK   13  A    between atoms: N4_20  and  C11_22
REMARK   14  A    between atoms: C11_22  and  C12_23
REMARK   15  A    between atoms: C12_23  and  C13_24
ROOT
HETATM    1  N3  UNL     1      39.204  21.217  36.964  1.00  0.00    -0.226 N
ATOM      2  H3  UNL     1      39.067  21.312  35.958  1.00  0.00     0.177 HD
HETATM    3  C10 UNL     1      38.930  19.927  37.593  1.00  0.00     0.675 C
HETATM    4  N4  UNL     1      37.746  19.706  37.923  1.00  0.00    -0.205 N
ATOM      5  H4  UNL     1      37.132  20.487  37.694  1.00  0.00     0.183 HD
HETATM    6  N5  UNL     1      40.002  19.017  37.790  1.00  0.00    -0.218 N
HETATM    7  C19 UNL     1      40.532  18.607  39.072  1.00  0.00     0.141 C
HETATM    8  C20 UNL     1      42.032  18.710  38.764  1.00  0.00     0.022 C
HETATM    9  C21 UNL     1      42.100  17.983  37.443  1.00  0.00     0.022 C
HETATM   10  C22 UNL     1      40.794  18.322  36.786  1.00  0.00     0.141 C
ENDROOT
BRANCH   1  11
HETATM   11  C9  UNL     1      39.660  22.354  37.707  1.00  0.00     0.138 C
BRANCH  11  12
HETATM   12  C8  UNL     1      40.949  22.956  37.199  1.00  0.00     0.020 C
BRANCH  12  13
HETATM   13  C7  UNL     1      41.910  21.925  36.692  1.00  0.00     0.002 C
BRANCH  13  14
HETATM   14  C6  UNL     1      42.912  22.510  35.761  1.00  0.00     0.002 C
BRANCH  14  15
HETATM   15  C5  UNL     1      44.144  21.662  35.623  1.00  0.00     0.020 C
BRANCH  15  16
HETATM   16  C4  UNL     1      45.357  22.536  35.589  1.00  0.00     0.122 C
BRANCH  16  17
HETATM   17  N2  UNL     1      46.071  22.546  34.346  1.00  0.00    -0.367 N
ATOM     18  H2  UNL     1      46.144  23.417  33.820  1.00  0.00     0.161 HD
BRANCH  17  19
HETATM   19  C3  UNL     1      46.677  21.378  33.833  1.00  0.00     0.167 C
HETATM   20  S1  UNL     1      46.083  20.823  32.407  1.00  0.00    -0.041 SA
BRANCH  19  21
HETATM   21  N1  UNL     1      47.687  20.704  34.526  1.00  0.00    -0.365 N
ATOM     22  H1  UNL     1      48.499  21.260  34.795  1.00  0.00     0.161 HD
BRANCH  21  23
HETATM   23  C2  UNL     1      47.715  19.327  34.901  1.00  0.00     0.148 C
BRANCH  23  24
HETATM   24  C1  UNL     1      48.952  18.639  34.453  1.00  0.00     0.183 C
BRANCH  24  25
HETATM   25  O1  UNL     1      49.387  17.574  35.189  1.00  0.00    -0.399 OA
ATOM     26  H1  UNL     1      49.721  16.820  34.718  1.00  0.00     0.209 HD
ENDBRANCH  24  25
ENDBRANCH  23  24
ENDBRANCH  21  23
ENDBRANCH  19  21
ENDBRANCH  17  19
ENDBRANCH  16  17
ENDBRANCH  15  16
ENDBRANCH  14  15
ENDBRANCH  13  14
ENDBRANCH  12  13
ENDBRANCH  11  12
ENDBRANCH   1  11
BRANCH   4  27
HETATM   27  C11 UNL     1      37.051  18.651  38.530  1.00  0.00     0.083 C
BRANCH  27  28
HETATM   28  C12 UNL     1      36.927  18.767  40.026  1.00  0.00     0.087 C
BRANCH  28  29
HETATM   29  C13 UNL     1      35.557  18.383  40.481  1.00  0.00    -0.012 A
HETATM   30  C14 UNL     1      34.452  18.699  39.724  1.00  0.00     0.056 A
HETATM   31  C15 UNL     1      33.218  18.285  40.220  1.00  0.00     0.155 A
HETATM   32  F1  UNL     1      32.116  18.600  39.459  1.00  0.00    -0.203 F
HETATM   33  C16 UNL     1      33.093  17.596  41.407  1.00  0.00     0.157 A
HETATM   34  F2  UNL     1      31.871  17.214  41.847  1.00  0.00    -0.203 F
HETATM   35  C17 UNL     1      34.245  17.305  42.129  1.00  0.00     0.088 A
HETATM   36  C18 UNL     1      35.495  17.694  41.679  1.00  0.00     0.126 A
HETATM   37  F3  UNL     1      36.616  17.404  42.399  1.00  0.00    -0.205 F
ENDBRANCH  28  29
ENDBRANCH  27  28
ENDBRANCH   4  27
TORSDOF 15
ENDMDL