MODEL 2
REMARK VINA RESULT: -6.443570736      3.113      5.263
REMARK  14 active torsions:
REMARK  status: ('A' for Active; 'I' for Inactive)
REMARK    1  A    between atoms: N1_2  and  C2_3
REMARK    2  A    between atoms: N1_2  and  C16_25
REMARK    3  A    between atoms: C2_3  and  C3_4
REMARK    4  A    between atoms: C3_4  and  C4_5
REMARK    5  A    between atoms: C4_5  and  C5_6
REMARK    6  A    between atoms: C5_6  and  C6_7
REMARK    7  A    between atoms: C6_7  and  N2_8
REMARK    8  A    between atoms: N2_8  and  C7_10
REMARK    9  A    between atoms: C7_10  and  N3_12
REMARK   10  A    between atoms: N3_12  and  C8_14
REMARK   11  A    between atoms: C8_14  and  C9_15
REMARK   12  A    between atoms: C9_15  and  C10_16
REMARK   13  A    between atoms: C16_25  and  C17_26
REMARK       I    between atoms: C17_26  and  N4_28
REMARK   14  A    between atoms: N4_28  and  C18_30
ROOT
HETATM    1  C5  UNL     1      40.609  19.592  38.815  1.00  0.00     0.020 C
ENDROOT
BRANCH   1   2
HETATM    2  C4  UNL     1      41.317  18.316  38.871  1.00  0.00     0.003 C
BRANCH   2   3
HETATM    3  C3  UNL     1      42.016  17.711  37.746  1.00  0.00     0.030 C
BRANCH   3   4
HETATM    4  C2  UNL     1      42.557  16.361  37.897  1.00  0.00     0.272 C
BRANCH   4   5
HETATM    5  N1  UNL     1      43.099  15.788  36.630  1.00  0.00     0.092 N
HETATM    6  C1  UNL     1      42.725  14.356  36.661  1.00  0.00     0.310 C
BRANCH   5   7
HETATM    7  C16 UNL     1      44.507  15.862  36.526  1.00  0.00     0.373 C
BRANCH   7   8
HETATM    8  C17 UNL     1      44.917  16.884  35.540  1.00  0.00     0.246 C
HETATM    9  O1  UNL     1      44.022  17.407  34.781  1.00  0.00    -0.272 OA
HETATM   10  N4  UNL     1      46.238  17.327  35.376  1.00  0.00    -0.353 N
ATOM     11  H4  UNL     1      46.977  16.932  35.958  1.00  0.00     0.163 HD
BRANCH  10  12
HETATM   12  C18 UNL     1      46.570  18.353  34.376  1.00  0.00     0.111 C
HETATM   13  C19 UNL     1      46.881  19.680  35.007  1.00  0.00     0.148 C
HETATM   14  N5  UNL     1      48.287  19.913  34.788  1.00  0.00    -0.359 N
HETATM   15  C20 UNL     1      48.683  19.170  33.651  1.00  0.00     0.219 C
ATOM     16  H5  UNL     1      48.891  20.509  35.355  1.00  0.00     0.162 HD
HETATM   17  O2  UNL     1      49.583  19.462  32.846  1.00  0.00    -0.274 OA
HETATM   18  C21 UNL     1      47.816  17.973  33.606  1.00  0.00     0.129 C
ENDBRANCH  10  12
ENDBRANCH   7   8
ENDBRANCH   5   7
ENDBRANCH   4   5
ENDBRANCH   3   4
ENDBRANCH   2   3
ENDBRANCH   1   2
BRANCH   1  19
HETATM   19  C6  UNL     1      40.918  20.491  37.691  1.00  0.00     0.122 C
BRANCH  19  20
HETATM   20  N2  UNL     1      40.744  21.912  38.118  1.00  0.00    -0.367 N
ATOM     21  H2  UNL     1      41.319  22.320  38.854  1.00  0.00     0.161 HD
BRANCH  20  22
HETATM   22  C7  UNL     1      39.761  22.656  37.466  1.00  0.00     0.167 C
HETATM   23  S1  UNL     1      39.695  24.263  37.523  1.00  0.00    -0.041 SA
BRANCH  22  24
HETATM   24  N3  UNL     1      38.757  21.948  36.698  1.00  0.00    -0.367 N
ATOM     25  H3  UNL     1      38.951  21.704  35.727  1.00  0.00     0.161 HD
BRANCH  24  26
HETATM   26  C8  UNL     1      37.508  21.586  37.272  1.00  0.00     0.127 C
BRANCH  26  27
HETATM   27  C9  UNL     1      36.855  20.407  36.668  1.00  0.00     0.063 C
BRANCH  27  28
HETATM   28  C10 UNL     1      37.263  19.091  37.178  1.00  0.00     0.004 A
HETATM   29  C11 UNL     1      37.042  18.588  38.429  1.00  0.00     0.126 A
HETATM   30  F1  UNL     1      36.267  19.242  39.312  1.00  0.00    -0.205 F
HETATM   31  C12 UNL     1      37.556  17.360  38.816  1.00  0.00     0.066 A
HETATM   32  C13 UNL     1      38.301  16.595  37.977  1.00  0.00     0.038 A
HETATM   33 CL1  UNL     1      38.958  15.049  38.439  1.00  0.00    -0.084 Cl
HETATM   34  C14 UNL     1      38.536  17.073  36.714  1.00  0.00     0.048 A
HETATM   35  C15 UNL     1      38.034  18.283  36.327  1.00  0.00     0.045 A
HETATM   36 CL2  UNL     1      38.334  18.918  34.707  1.00  0.00    -0.084 Cl
ENDBRANCH  27  28
ENDBRANCH  26  27
ENDBRANCH  24  26
ENDBRANCH  22  24
ENDBRANCH  20  22
ENDBRANCH  19  20
ENDBRANCH   1  19
TORSDOF 14
ENDMDL