MODEL 3
REMARK VINA RESULT: -6.648874223      6.155      9.409
REMARK  12 active torsions:
REMARK  status: ('A' for Active; 'I' for Inactive)
REMARK    1  A    between atoms: C3_4  and  C4_5
REMARK    2  A    between atoms: C4_5  and  C5_6
REMARK    3  A    between atoms: C5_6  and  C6_7
REMARK       I    between atoms: C6_7  and  N2_9
REMARK    4  A    between atoms: N2_9  and  C7_11
REMARK    5  A    between atoms: C7_11  and  C8_12
REMARK    6  A    between atoms: C8_12  and  C9_13
REMARK    7  A    between atoms: C9_13  and  C10_14
REMARK    8  A    between atoms: C10_14  and  C11_15
REMARK    9  A    between atoms: C11_15  and  N3_16
REMARK       I    between atoms: N3_16  and  C12_18
REMARK       I    between atoms: C12_18  and  N4_20
REMARK   10  A    between atoms: N4_20  and  C13_22
REMARK   11  A    between atoms: C13_22  and  C14_23
REMARK   12  A    between atoms: C14_23  and  N5_24
ROOT
HETATM    1  N1  UNL     1      41.668  21.594  37.412  1.00  0.00    -0.191 NA
HETATM    2  C1  UNL     1      40.719  20.978  37.675  1.00  0.00     0.103 C
HETATM    3  C2  UNL     1      39.518  20.242  38.006  1.00  0.00     0.092 A
HETATM    4  C3  UNL     1      39.585  19.140  38.828  1.00  0.00    -0.032 A
HETATM    5  C19 UNL     1      38.378  18.505  39.115  1.00  0.00     0.031 A
HETATM    6  C20 UNL     1      37.174  18.934  38.617  1.00  0.00     0.053 A
HETATM    7 BR1  UNL     1      35.537  18.025  39.038  1.00  0.00    -0.048 Br
HETATM    8  C21 UNL     1      37.126  20.034  37.795  1.00  0.00     0.173 A
HETATM    9  F1  UNL     1      35.913  20.434  37.316  1.00  0.00    -0.201 F
HETATM   10  C22 UNL     1      38.293  20.679  37.497  1.00  0.00     0.177 A
HETATM   11  F2  UNL     1      38.277  21.761  36.695  1.00  0.00    -0.201 F
ENDROOT
BRANCH   4  12
HETATM   12  C4  UNL     1      40.847  18.658  39.397  1.00  0.00     0.049 C
BRANCH  12  13
HETATM   13  C5  UNL     1      41.030  17.193  39.349  1.00  0.00     0.107 C
BRANCH  13  14
HETATM   14  C6  UNL     1      42.132  16.707  38.513  1.00  0.00     0.217 C
HETATM   15  O1  UNL     1      42.810  15.681  38.713  1.00  0.00    -0.274 OA
HETATM   16  N2  UNL     1      42.464  17.487  37.358  1.00  0.00    -0.361 N
ATOM     17  H2  UNL     1      41.934  18.333  37.149  1.00  0.00     0.162 HD
BRANCH  16  18
HETATM   18  C7  UNL     1      43.525  17.091  36.499  1.00  0.00     0.122 C
BRANCH  18  19
HETATM   19  C8  UNL     1      44.178  18.219  35.755  1.00  0.00     0.020 C
BRANCH  19  20
HETATM   20  C9  UNL     1      45.252  17.664  34.842  1.00  0.00     0.003 C
BRANCH  20  21
HETATM   21  C10 UNL     1      46.462  18.535  34.736  1.00  0.00     0.020 C
BRANCH  21  22
HETATM   22  C11 UNL     1      46.159  19.864  35.353  1.00  0.00     0.124 C
BRANCH  22  23
HETATM   23  N3  UNL     1      46.610  20.907  34.430  1.00  0.00    -0.343 N
HETATM   24  C12 UNL     1      45.679  21.659  33.663  1.00  0.00     0.316 C
HETATM   25  O2  UNL     1      44.424  21.432  33.777  1.00  0.00    -0.247 OA
HETATM   26  N4  UNL     1      46.143  22.652  32.782  1.00  0.00    -0.341 N
ATOM     27  H4  UNL     1      47.144  22.831  32.694  1.00  0.00     0.164 HD
ATOM     28  H3  UNL     1      47.607  21.096  34.336  1.00  0.00     0.164 HD
BRANCH  26  29
HETATM   29  C13 UNL     1      45.203  23.416  32.005  1.00  0.00     0.154 C
BRANCH  29  30
HETATM   30  C14 UNL     1      45.902  24.295  30.992  1.00  0.00     0.292 C
BRANCH  30  31
HETATM   31  N5  UNL     1      45.116  25.419  30.587  1.00  0.00     0.090 N
HETATM   32  C15 UNL     1      43.696  25.207  30.681  1.00  0.00     0.272 C
HETATM   33  C16 UNL     1      43.165  24.947  29.304  1.00  0.00     0.032 C
HETATM   34  C17 UNL     1      44.356  25.019  28.379  1.00  0.00     0.032 C
HETATM   35  C18 UNL     1      45.422  25.693  29.204  1.00  0.00     0.272 C
ENDBRANCH  30  31
ENDBRANCH  29  30
ENDBRANCH  26  29
ENDBRANCH  22  23
ENDBRANCH  21  22
ENDBRANCH  20  21
ENDBRANCH  19  20
ENDBRANCH  18  19
ENDBRANCH  16  18
ENDBRANCH  13  14
ENDBRANCH  12  13
ENDBRANCH   4  12
TORSDOF 12
ENDMDL