MODEL 4
REMARK VINA RESULT: -7.061672309      5.318      7.458
REMARK  11 active torsions:
REMARK  status: ('A' for Active; 'I' for Inactive)
REMARK       I    between atoms: C1_2  and  N2_4
REMARK    1  A    between atoms: C3_7  and  C4_8
REMARK    2  A    between atoms: C4_8  and  C5_9
REMARK    3  A    between atoms: C5_9  and  C6_10
REMARK    4  A    between atoms: C6_10  and  N3_11
REMARK    5  A    between atoms: N7_22  and  C10_23
REMARK    6  A    between atoms: C10_23  and  C11_24
REMARK    7  A    between atoms: C11_24  and  C12_25
REMARK    8  A    between atoms: C12_25  and  C13_26
REMARK    9  A    between atoms: C13_26  and  C14_27
REMARK   10  A    between atoms: C14_27  and  C15_28
REMARK   11  A    between atoms: C15_28  and  C16_29
ROOT
HETATM    1  N1  UNL     1      39.424  24.488  38.783  1.00  0.00    -0.040 NA
HETATM    2  C1  UNL     1      39.669  24.105  37.441  1.00  0.00     0.334 C
HETATM    3  O1  UNL     1      39.162  24.846  36.549  1.00  0.00    -0.251 OA
HETATM    4  N2  UNL     1      40.407  23.004  37.100  1.00  0.00    -0.299 N
ATOM      5  H2  UNL     1      41.309  23.274  36.706  1.00  0.00     0.171 HD
HETATM    6  C2  UNL     1      40.285  21.764  37.138  1.00  0.00     0.121 C
HETATM    7  C3  UNL     1      39.247  20.860  37.581  1.00  0.00     0.254 C
HETATM    8  N6  UNL     1      39.786  20.186  38.782  1.00  0.00    -0.056 N
ATOM      9  H61 UNL     1      39.067  19.664  39.283  1.00  0.00     0.278 HD
ATOM     10  H62 UNL     1      40.028  20.851  39.517  1.00  0.00     0.278 HD
HETATM   11  C8  UNL     1      40.911  19.347  38.417  1.00  0.00     0.336 C
HETATM   12  C9  UNL     1      41.566  19.702  37.163  1.00  0.00     0.251 C
HETATM   13  O2  UNL     1      42.195  18.844  36.509  1.00  0.00    -0.271 OA
HETATM   14  N7  UNL     1      41.479  21.038  36.695  1.00  0.00    -0.304 N
ENDROOT
BRANCH  14  15
HETATM   15  C10 UNL     1      42.483  21.681  35.858  1.00  0.00     0.133 C
BRANCH  15  16
HETATM   16  C11 UNL     1      42.327  21.343  34.435  1.00  0.00     0.020 C
BRANCH  16  17
HETATM   17  C12 UNL     1      43.318  21.670  33.434  1.00  0.00     0.002 C
BRANCH  17  18
HETATM   18  C13 UNL     1      44.311  22.741  33.664  1.00  0.00     0.000 C
BRANCH  18  19
HETATM   19  C14 UNL     1      44.777  23.460  32.476  1.00  0.00     0.005 C
BRANCH  19  20
HETATM   20  C15 UNL     1      43.655  23.889  31.551  1.00  0.00     0.040 C
BRANCH  20  21
HETATM   21  C16 UNL     1      44.092  24.526  30.303  1.00  0.00    -0.035 A
HETATM   22  C17 UNL     1      45.448  24.857  30.116  1.00  0.00     0.011 A
HETATM   23  C18 UNL     1      45.893  25.528  29.015  1.00  0.00     0.026 A
HETATM   24  C19 UNL     1      45.036  25.929  28.007  1.00  0.00     0.057 A
HETATM   25 CL1  UNL     1      45.626  26.796  26.606  1.00  0.00    -0.082 Cl
HETATM   26  C20 UNL     1      43.706  25.617  28.165  1.00  0.00     0.078 A
HETATM   27 CL2  UNL     1      42.599  26.111  26.898  1.00  0.00    -0.081 Cl
HETATM   28  C21 UNL     1      43.254  24.924  29.300  1.00  0.00     0.063 A
HETATM   29 CL3  UNL     1      41.554  24.484  29.336  1.00  0.00    -0.082 Cl
ENDBRANCH  20  21
ENDBRANCH  19  20
ENDBRANCH  18  19
ENDBRANCH  17  18
ENDBRANCH  16  17
ENDBRANCH  15  16
ENDBRANCH  14  15
BRANCH   7  30
HETATM   30  C4  UNL     1      37.879  21.259  37.833  1.00  0.00     0.042 C
BRANCH  30  31
HETATM   31  C5  UNL     1      36.770  20.823  36.976  1.00  0.00     0.022 C
BRANCH  31  32
HETATM   32  C6  UNL     1      36.368  19.371  37.183  1.00  0.00     0.122 C
BRANCH  32  33
HETATM   33  N3  UNL     1      35.716  19.179  38.463  1.00  0.00    -0.367 N
HETATM   34  C7  UNL     1      36.286  18.482  39.399  1.00  0.00     0.196 C
HETATM   35  N4  UNL     1      35.667  18.279  40.664  1.00  0.00    -0.067 NA
HETATM   36  N5  UNL     1      37.568  17.884  39.197  1.00  0.00    -0.067 NA
ATOM     37  H3  UNL     1      34.800  19.595  38.631  1.00  0.00     0.161 HD
ENDBRANCH  32  33
ENDBRANCH  31  32
ENDBRANCH  30  31
ENDBRANCH   7  30
TORSDOF 11
ENDMDL