MODEL 4
REMARK VINA RESULT: -5.970664763      2.410      4.227
REMARK  13 active torsions:
REMARK  status: ('A' for Active; 'I' for Inactive)
REMARK       I    between atoms: C1_2  and  N2_3
REMARK       I    between atoms: C1_2  and  N5_23
REMARK    1  A    between atoms: N2_3  and  C2_4
REMARK    2  A    between atoms: C2_4  and  C3_5
REMARK    3  A    between atoms: C3_5  and  C4_6
REMARK    4  A    between atoms: C4_6  and  C5_7
REMARK    5  A    between atoms: C5_7  and  C6_8
REMARK    6  A    between atoms: C6_8  and  C7_9
REMARK       I    between atoms: C7_9  and  N3_11
REMARK    7  A    between atoms: N3_11  and  C8_13
REMARK    8  A    between atoms: C8_13  and  C9_14
REMARK    9  A    between atoms: C9_14  and  C10_15
REMARK   10  A    between atoms: C10_15  and  C11_16
REMARK   11  A    between atoms: C11_16  and  C12_17
REMARK   12  A    between atoms: C12_17  and  N4_18
REMARK       I    between atoms: N4_18  and  C13_20
REMARK   13  A    between atoms: N5_23  and  C14_24
ROOT
HETATM    1  C4  UNL     1      39.043  20.743  37.672  1.00  0.00     0.003 C
ENDROOT
BRANCH   1   2
HETATM    2  C3  UNL     1      40.021  21.273  36.659  1.00  0.00     0.033 C
BRANCH   2   3
HETATM    3  C2  UNL     1      41.434  21.047  37.280  1.00  0.00     0.222 C
BRANCH   3   4
HETATM    4  N2  UNL     1      42.413  21.399  36.504  1.00  0.00    -0.407 NA
HETATM    5  C1  UNL     1      43.228  21.935  35.790  1.00  0.00     0.340 C
HETATM    6  N1  UNL     1      43.047  23.357  35.529  1.00  0.00    -0.035 NA
HETATM    7  N5  UNL     1      44.253  21.314  35.214  1.00  0.00    -0.342 NA
BRANCH   7   8
HETATM    8  C14 UNL     1      45.162  20.761  34.705  1.00  0.00     0.207 A
HETATM    9  N6  UNL     1      46.075  20.108  35.514  1.00  0.00    -0.338 N
HETATM   10  C15 UNL     1      47.095  19.451  34.974  1.00  0.00     0.111 A
ATOM     11  H6  UNL     1      45.963  20.130  36.528  1.00  0.00     0.168 HD
HETATM   12  C16 UNL     1      47.276  19.402  33.600  1.00  0.00     0.050 A
HETATM   13 BR1  UNL     1      48.761  18.442  32.888  1.00  0.00    -0.048 Br
HETATM   14  C17 UNL     1      46.392  20.038  32.787  1.00  0.00     0.079 A
HETATM   15 CL1  UNL     1      46.619  19.986  31.045  1.00  0.00    -0.081 Cl
HETATM   16  C18 UNL     1      45.341  20.713  33.327  1.00  0.00     0.115 A
HETATM   17 CL2  UNL     1      44.237  21.512  32.230  1.00  0.00    -0.077 Cl
ENDBRANCH   7   8
ENDBRANCH   3   4
ENDBRANCH   2   3
ENDBRANCH   1   2
BRANCH   1  18
HETATM   18  C5  UNL     1      39.014  19.281  37.799  1.00  0.00     0.009 C
BRANCH  18  19
HETATM   19  C6  UNL     1      39.105  18.625  39.111  1.00  0.00     0.103 C
BRANCH  19  20
HETATM   20  C7  UNL     1      40.443  17.945  39.350  1.00  0.00     0.217 C
HETATM   21  O1  UNL     1      41.319  18.656  39.879  1.00  0.00    -0.274 OA
HETATM   22  N3  UNL     1      40.561  16.618  38.983  1.00  0.00    -0.361 N
ATOM     23  H3  UNL     1      39.770  16.169  38.522  1.00  0.00     0.162 HD
BRANCH  22  24
HETATM   24  C8  UNL     1      41.775  15.822  39.227  1.00  0.00     0.122 C
BRANCH  24  25
HETATM   25  C9  UNL     1      42.631  15.915  37.974  1.00  0.00     0.020 C
BRANCH  25  26
HETATM   26  C10 UNL     1      43.928  15.169  38.052  1.00  0.00     0.003 C
BRANCH  26  27
HETATM   27  C11 UNL     1      44.039  14.404  36.715  1.00  0.00     0.020 C
BRANCH  27  28
HETATM   28  C12 UNL     1      44.647  15.334  35.708  1.00  0.00     0.125 C
BRANCH  28  29
HETATM   29  N4  UNL     1      46.031  15.559  36.153  1.00  0.00    -0.335 N
HETATM   30  C13 UNL     1      47.053  15.674  35.199  1.00  0.00     0.283 C
HETATM   31  O2  UNL     1      46.724  15.544  33.933  1.00  0.00    -0.630 OA
HETATM   32  O3  UNL     1      48.384  15.913  35.378  1.00  0.00    -0.630 OA
ATOM     33  H4  UNL     1      46.246  15.630  37.147  1.00  0.00     0.165 HD
ENDBRANCH  28  29
ENDBRANCH  27  28
ENDBRANCH  26  27
ENDBRANCH  25  26
ENDBRANCH  24  25
ENDBRANCH  22  24
ENDBRANCH  19  20
ENDBRANCH  18  19
ENDBRANCH   1  18
TORSDOF 13
ENDMDL