MODEL 4
REMARK VINA RESULT: -6.399836832      5.274     10.566
REMARK  14 active torsions:
REMARK  status: ('A' for Active; 'I' for Inactive)
REMARK    1  A    between atoms: C2_7  and  N3_8
REMARK    2  A    between atoms: N3_8  and  C3_10
REMARK    3  A    between atoms: C3_10  and  C4_11
REMARK    4  A    between atoms: C11_22  and  C12_23
REMARK       I    between atoms: C12_23  and  N5_25
REMARK    5  A    between atoms: N5_25  and  C13_27
REMARK    6  A    between atoms: C13_27  and  C14_28
REMARK    7  A    between atoms: C14_28  and  C15_29
REMARK    8  A    between atoms: C15_29  and  S1_30
REMARK    9  A    between atoms: S1_30  and  C16_31
REMARK   10  A    between atoms: S1_30  and  C18_34
REMARK   11  A    between atoms: C16_31  and  C17_32
REMARK   12  A    between atoms: C18_34  and  C19_35
REMARK   13  A    between atoms: C19_35  and  C20_36
REMARK   14  A    between atoms: C20_36  and  O2_37
ROOT
HETATM    1  N1  UNL     1      43.738  14.679  39.083  1.00  0.00    -0.384 N
ATOM      2  H11 UNL     1      43.041  15.034  39.737  1.00  0.00     0.157 HD
ATOM      3  H12 UNL     1      44.303  13.866  39.331  1.00  0.00     0.157 HD
HETATM    4  C1  UNL     1      43.827  15.250  37.951  1.00  0.00     0.132 A
HETATM    5  N2  UNL     1      44.773  14.768  37.062  1.00  0.00    -0.176 N
ATOM      6  H2  UNL     1      45.334  13.954  37.315  1.00  0.00     0.186 HD
HETATM    7  C2  UNL     1      44.960  15.356  35.879  1.00  0.00     0.679 A
HETATM    8  N4  UNL     1      44.229  16.427  35.536  1.00  0.00    -0.201 N
ATOM      9  H4  UNL     1      44.387  16.865  34.629  1.00  0.00     0.183 HD
HETATM   10  C10 UNL     1      43.301  16.935  36.351  1.00  0.00     0.127 A
HETATM   11  C11 UNL     1      43.069  16.340  37.618  1.00  0.00     0.091 A
ENDROOT
BRANCH  11  12
HETATM   12  C12 UNL     1      41.989  16.880  38.423  1.00  0.00     0.256 C
HETATM   13  O1  UNL     1      41.271  16.012  39.051  1.00  0.00    -0.267 OA
HETATM   14  N5  UNL     1      41.625  18.210  38.615  1.00  0.00    -0.357 N
ATOM     15  H5  UNL     1      42.180  18.928  38.150  1.00  0.00     0.162 HD
BRANCH  14  16
HETATM   16  C13 UNL     1      40.509  18.640  39.432  1.00  0.00     0.123 C
BRANCH  16  17
HETATM   17  C14 UNL     1      39.664  19.712  38.816  1.00  0.00     0.029 C
BRANCH  17  18
HETATM   18  C15 UNL     1      39.930  19.676  37.317  1.00  0.00     0.065 C
BRANCH  18  19
HETATM   19  S1  UNL     1      40.389  21.320  36.713  1.00  0.00    -0.219 SA
BRANCH  19  20
HETATM   20  C16 UNL     1      42.066  21.190  36.229  1.00  0.00     0.078 C
BRANCH  20  21
HETATM   21  C17 UNL     1      42.574  22.426  35.481  1.00  0.00     0.124 C
HETATM   22 CL3  UNL     1      44.345  22.390  35.486  1.00  0.00    -0.130 Cl
ENDBRANCH  20  21
ENDBRANCH  19  20
BRANCH  19  23
HETATM   23  C18 UNL     1      39.997  22.449  37.962  1.00  0.00     0.065 C
BRANCH  23  24
HETATM   24  C19 UNL     1      39.552  23.807  37.604  1.00  0.00     0.035 C
BRANCH  24  25
HETATM   25  C20 UNL     1      39.772  24.931  38.529  1.00  0.00     0.165 C
BRANCH  25  26
HETATM   26  O2  UNL     1      40.526  24.509  39.623  1.00  0.00    -0.401 OA
ATOM     27  H2  UNL     1      41.302  24.050  39.325  1.00  0.00     0.209 HD
ENDBRANCH  25  26
ENDBRANCH  24  25
ENDBRANCH  23  24
ENDBRANCH  19  23
ENDBRANCH  18  19
ENDBRANCH  17  18
ENDBRANCH  16  17
ENDBRANCH  14  16
ENDBRANCH  11  12
BRANCH   7  28
HETATM   28  N3  UNL     1      45.846  14.875  35.082  1.00  0.00    -0.222 N
ATOM     29  H3  UNL     1      45.555  14.270  34.315  1.00  0.00     0.178 HD
BRANCH  28  30
HETATM   30  C3  UNL     1      47.247  15.179  35.254  1.00  0.00     0.176 C
BRANCH  30  31
HETATM   31  C4  UNL     1      47.642  16.170  34.226  1.00  0.00    -0.038 A
HETATM   32  C5  UNL     1      48.594  17.117  34.620  1.00  0.00     0.010 A
HETATM   33  C6  UNL     1      49.025  18.078  33.729  1.00  0.00     0.026 A
HETATM   34  C7  UNL     1      48.506  18.101  32.438  1.00  0.00     0.055 A
HETATM   35 CL1  UNL     1      49.086  19.345  31.338  1.00  0.00    -0.083 Cl
HETATM   36  C8  UNL     1      47.569  17.176  32.035  1.00  0.00     0.056 A
HETATM   37 CL2  UNL     1      46.959  17.256  30.406  1.00  0.00    -0.083 Cl
HETATM   38  C9  UNL     1      47.163  16.229  32.955  1.00  0.00     0.034 A
ENDBRANCH  30  31
ENDBRANCH  28  30
ENDBRANCH   7  28
TORSDOF 14
ENDMDL