MODEL 2
REMARK VINA RESULT: -7.206343362      4.148      6.519
REMARK  14 active torsions:
REMARK  status: ('A' for Active; 'I' for Inactive)
REMARK    1  A    between atoms: C2_2  and  C3_3
REMARK    2  A    between atoms: C3_3  and  C4_4
REMARK    3  A    between atoms: C4_4  and  N1_5
REMARK    4  A    between atoms: C4_4  and  C20_34
REMARK    5  A    between atoms: C6_10  and  N3_11
REMARK    6  A    between atoms: N3_11  and  C7_13
REMARK    7  A    between atoms: C7_13  and  C8_14
REMARK    8  A    between atoms: C8_14  and  C9_15
REMARK    9  A    between atoms: C9_15  and  C10_16
REMARK   10  A    between atoms: C12_20  and  N5_21
REMARK   11  A    between atoms: N5_21  and  C13_23
REMARK   12  A    between atoms: C13_23  and  C14_24
REMARK       I    between atoms: C20_34  and  N7_36
REMARK   13  A    between atoms: N7_36  and  C21_38
REMARK   14  A    between atoms: C21_38  and  C22_39
ROOT
HETATM    1  N1  UNL     1      38.326  22.278  37.026  1.00  0.00    -0.211 N
ATOM      2  H1  UNL     1      37.559  22.811  36.617  1.00  0.00     0.178 HD
HETATM    3  C5  UNL     1      37.988  21.138  37.484  1.00  0.00     0.708 A
HETATM    4  N2  UNL     1      36.691  20.712  37.408  1.00  0.00    -0.021 N
ATOM      5  H2  UNL     1      36.005  21.329  36.974  1.00  0.00     0.203 HD
HETATM    6  C6  UNL     1      36.273  19.530  37.870  1.00  0.00     0.707 A
HETATM    7  N4  UNL     1      37.150  18.694  38.446  1.00  0.00    -0.022 N
ATOM      8  H4  UNL     1      36.851  17.788  38.806  1.00  0.00     0.203 HD
HETATM    9  C12 UNL     1      38.446  19.088  38.537  1.00  0.00     0.707 A
HETATM   10  N6  UNL     1      38.856  20.301  38.057  1.00  0.00    -0.021 N
ATOM     11  H6  UNL     1      39.837  20.569  38.139  1.00  0.00     0.203 HD
ENDROOT
BRANCH   1  12
HETATM   12  C4  UNL     1      39.568  22.928  36.986  1.00  0.00     0.195 C
BRANCH  12  13
HETATM   13  C3  UNL     1      39.880  23.744  38.226  1.00  0.00     0.061 C
BRANCH  13  14
HETATM   14  C2  UNL     1      39.418  25.148  38.085  1.00  0.00    -0.034 C
HETATM   15  C1  UNL     1      39.766  26.115  38.912  1.00  0.00     0.007 C
ENDBRANCH  13  14
ENDBRANCH  12  13
BRANCH  12  16
HETATM   16  C20 UNL     1      40.650  21.939  36.713  1.00  0.00     0.241 C
HETATM   17  O1  UNL     1      41.421  21.653  37.666  1.00  0.00    -0.271 OA
HETATM   18  N7  UNL     1      40.846  21.326  35.474  1.00  0.00    -0.358 N
ATOM     19  H7  UNL     1      40.226  21.553  34.696  1.00  0.00     0.162 HD
BRANCH  18  20
HETATM   20  C21 UNL     1      41.911  20.378  35.278  1.00  0.00     0.137 C
BRANCH  20  21
HETATM   21  C22 UNL     1      43.058  20.983  34.479  1.00  0.00     0.134 C
HETATM   22 CL3  UNL     1      44.121  21.949  35.523  1.00  0.00    -0.129 Cl
ENDBRANCH  20  21
ENDBRANCH  18  20
ENDBRANCH  12  16
ENDBRANCH   1  12
BRANCH   6  23
HETATM   23  N3  UNL     1      35.011  19.191  37.761  1.00  0.00    -0.225 N
ATOM     24  H3  UNL     1      34.405  19.660  37.088  1.00  0.00     0.177 HD
BRANCH  23  25
HETATM   25  C7  UNL     1      34.490  18.139  38.615  1.00  0.00     0.138 C
BRANCH  25  26
HETATM   26  C8  UNL     1      33.349  18.725  39.397  1.00  0.00     0.020 C
BRANCH  26  27
HETATM   27  C9  UNL     1      33.724  18.756  40.850  1.00  0.00     0.001 C
BRANCH  27  28
HETATM   28  C10 UNL     1      34.984  17.949  41.077  1.00  0.00    -0.004 C
HETATM   29  C11 UNL     1      34.846  17.243  42.425  1.00  0.00     0.005 C
ENDBRANCH  27  28
ENDBRANCH  26  27
ENDBRANCH  25  26
ENDBRANCH  23  25
ENDBRANCH   6  23
BRANCH   9  30
HETATM   30  N5  UNL     1      39.320  18.321  39.082  1.00  0.00    -0.221 N
ATOM     31  H5  UNL     1      40.051  18.719  39.671  1.00  0.00     0.178 HD
BRANCH  30  32
HETATM   32  C13 UNL     1      39.267  16.899  38.861  1.00  0.00     0.178 C
BRANCH  32  33
HETATM   33  C14 UNL     1      40.648  16.436  38.551  1.00  0.00    -0.018 A
HETATM   34  C15 UNL     1      41.490  15.914  39.505  1.00  0.00     0.012 A
HETATM   35  C16 UNL     1      42.755  15.509  39.142  1.00  0.00     0.024 A
HETATM   36  C17 UNL     1      43.226  15.602  37.846  1.00  0.00     0.035 A
HETATM   37 CL1  UNL     1      44.838  15.080  37.405  1.00  0.00    -0.084 Cl
HETATM   38  C18 UNL     1      42.365  16.127  36.912  1.00  0.00     0.048 A
HETATM   39  C19 UNL     1      41.108  16.535  37.251  1.00  0.00     0.043 A
HETATM   40 CL2  UNL     1      40.047  17.200  36.007  1.00  0.00    -0.084 Cl
ENDBRANCH  32  33
ENDBRANCH  30  32
ENDBRANCH   9  30
TORSDOF 14
ENDMDL