MODEL 2
REMARK VINA RESULT: -6.867452786      5.239      9.740
REMARK  12 active torsions:
REMARK  status: ('A' for Active; 'I' for Inactive)
REMARK    1  A    between atoms: C2_2  and  C3_3
REMARK    2  A    between atoms: C3_3  and  C4_4
REMARK       I    between atoms: C4_4  and  N1_6
REMARK    3  A    between atoms: N1_6  and  C5_7
REMARK    4  A    between atoms: C5_7  and  C6_8
REMARK    5  A    between atoms: C6_8  and  C7_9
REMARK    6  A    between atoms: C7_9  and  C8_10
REMARK    7  A    between atoms: C8_10  and  N2_11
REMARK       I    between atoms: N2_11  and  C9_13
REMARK    8  A    between atoms: C9_13  and  C10_15
REMARK       I    between atoms: N3_17  and  C12_18
REMARK       I    between atoms: C12_18  and  N6_23
REMARK    9  A    between atoms: N6_23  and  C14_25
REMARK   10  A    between atoms: C14_25  and  C15_26
REMARK   11  A    between atoms: C15_26  and  C16_27
REMARK   12  A    between atoms: C16_27  and  C17_28
ROOT
HETATM    1  C10 UNL     1      46.694  18.805  33.686  1.00  0.00     0.212 A
HETATM    2  C11 UNL     1      47.719  19.498  34.446  1.00  0.00     0.177 A
HETATM    3  N3  UNL     1      46.395  20.102  34.260  1.00  0.00    -0.200 N
HETATM    4  C12 UNL     1      45.503  21.190  34.481  1.00  0.00     0.686 C
HETATM    5  N4  UNL     1      44.535  21.233  35.292  1.00  0.00    -0.126 N
ATOM      6  H4  UNL     1      44.338  20.419  35.873  1.00  0.00     0.197 HD
HETATM    7  C13 UNL     1      43.729  22.366  35.415  1.00  0.00     0.196 C
HETATM    8  N5  UNL     1      43.066  23.306  35.541  1.00  0.00    -0.171 NA
HETATM    9  N6  UNL     1      45.775  22.353  33.667  1.00  0.00    -0.226 N
ATOM     10  H6  UNL     1      46.013  23.250  34.089  1.00  0.00     0.177 HD
ENDROOT
BRANCH   9  11
HETATM   11  C14 UNL     1      45.697  22.198  32.231  1.00  0.00     0.138 C
BRANCH  11  12
HETATM   12  C15 UNL     1      44.299  22.498  31.767  1.00  0.00     0.025 C
BRANCH  12  13
HETATM   13  C16 UNL     1      44.104  23.979  31.701  1.00  0.00     0.042 C
BRANCH  13  14
HETATM   14  C17 UNL     1      43.552  24.397  30.365  1.00  0.00    -0.033 A
HETATM   15  C18 UNL     1      42.279  24.067  29.947  1.00  0.00     0.032 A
HETATM   16  C19 UNL     1      41.769  24.459  28.730  1.00  0.00     0.036 A
HETATM   17 CL1  UNL     1      40.150  24.021  28.228  1.00  0.00    -0.084 Cl
HETATM   18  C20 UNL     1      42.527  25.214  27.856  1.00  0.00     0.049 A
HETATM   19  C21 UNL     1      43.802  25.558  28.252  1.00  0.00     0.058 A
HETATM   20 CL2  UNL     1      44.802  26.521  27.180  1.00  0.00    -0.082 Cl
HETATM   21  C22 UNL     1      44.307  25.152  29.492  1.00  0.00     0.062 A
HETATM   22 CL3  UNL     1      45.944  25.594  29.969  1.00  0.00    -0.082 Cl
ENDBRANCH  13  14
ENDBRANCH  12  13
ENDBRANCH  11  12
ENDBRANCH   9  11
BRANCH   1  23
HETATM   23  C9  UNL     1      45.971  17.655  34.314  1.00  0.00     0.242 C
HETATM   24  N2  UNL     1      45.399  17.762  35.589  1.00  0.00    -0.359 N
ATOM     25  H2  UNL     1      45.457  18.656  36.077  1.00  0.00     0.162 HD
HETATM   26  O2  UNL     1      45.873  16.556  33.686  1.00  0.00    -0.271 OA
BRANCH  24  27
HETATM   27  C8  UNL     1      44.735  16.666  36.237  1.00  0.00     0.122 C
BRANCH  27  28
HETATM   28  C7  UNL     1      43.261  16.753  35.967  1.00  0.00     0.022 C
BRANCH  28  29
HETATM   29  C6  UNL     1      42.493  17.695  36.823  1.00  0.00     0.035 C
BRANCH  29  30
HETATM   30  C5  UNL     1      42.024  18.922  36.038  1.00  0.00     0.221 C
BRANCH  30  31
HETATM   31  N1  UNL     1      41.441  19.838  36.913  1.00  0.00    -0.415 NA
HETATM   32  C4  UNL     1      40.893  20.699  37.736  1.00  0.00     0.286 C
HETATM   33  O1  UNL     1      41.218  21.909  38.032  1.00  0.00    -0.258 OA
BRANCH  32  34
HETATM   34  C3  UNL     1      39.633  20.265  38.533  1.00  0.00     0.118 C
BRANCH  34  35
HETATM   35  C2  UNL     1      39.971  19.061  39.334  1.00  0.00     0.006 C
HETATM   36  C1  UNL     1      38.979  17.966  38.970  1.00  0.00     0.005 C
ENDBRANCH  34  35
ENDBRANCH  32  34
ENDBRANCH  30  31
ENDBRANCH  29  30
ENDBRANCH  28  29
ENDBRANCH  27  28
ENDBRANCH  24  27
ENDBRANCH   1  23
TORSDOF 12
ENDMDL