MODEL 5
REMARK VINA RESULT: -6.131866914      7.525      9.592
REMARK  11 active torsions:
REMARK  status: ('A' for Active; 'I' for Inactive)
REMARK    1  A    between atoms: C1_4  and  C2_5
REMARK    2  A    between atoms: C2_5  and  C3_6
REMARK    3  A    between atoms: C3_6  and  N2_7
REMARK       I    between atoms: N2_7  and  C4_9
REMARK       I    between atoms: C4_9  and  N3_11
REMARK       I    between atoms: N3_11  and  C5_12
REMARK    4  A    between atoms: N3_11  and  C6_15
REMARK    5  A    between atoms: C6_15  and  C7_16
REMARK    6  A    between atoms: C6_15  and  C11_22
REMARK    7  A    between atoms: C7_16  and  C8_17
REMARK       I    between atoms: C11_22  and  N4_24
REMARK    8  A    between atoms: N4_24  and  C12_26
REMARK    9  A    between atoms: C12_26  and  C13_27
REMARK   10  A    between atoms: C13_27  and  C14_28
REMARK   11  A    between atoms: C14_28  and  C15_29
ROOT
HETATM    1  C6  UNL     1      43.871  21.803  34.395  1.00  0.00     0.114 C
ENDROOT
BRANCH   1   2
HETATM    2  N3  UNL     1      43.310  21.930  33.065  1.00  0.00    -0.202 N
HETATM    3  C4  UNL     1      43.636  23.088  32.295  1.00  0.00     0.332 C
HETATM    4  N2  UNL     1      43.270  23.486  31.030  1.00  0.00    -0.342 N
HETATM    5  O1  UNL     1      44.426  23.910  32.918  1.00  0.00    -0.246 OA
ATOM      6  H2  UNL     1      42.652  22.876  30.494  1.00  0.00     0.164 HD
HETATM    7  C5  UNL     1      42.431  20.996  32.547  1.00  0.00     0.299 C
HETATM    8  O2  UNL     1      42.060  20.011  33.237  1.00  0.00    -0.629 OA
HETATM    9  O3  UNL     1      41.895  21.062  31.246  1.00  0.00    -0.629 OA
BRANCH   4  10
HETATM   10  C3  UNL     1      43.715  24.733  30.405  1.00  0.00     0.129 C
BRANCH  10  11
HETATM   11  C2  UNL     1      44.939  24.567  29.553  1.00  0.00     0.063 C
BRANCH  11  12
HETATM   12  C1  UNL     1      46.018  25.456  30.044  1.00  0.00     0.054 C
HETATM   13  N1  UNL     1      46.320  25.521  31.272  1.00  0.00    -0.411 N
ATOM     14  H12 UNL     1      45.797  24.939  31.927  1.00  0.00     0.155 HD
ATOM     15  H11 UNL     1      47.062  26.133  31.610  1.00  0.00     0.155 HD
ENDBRANCH  11  12
ENDBRANCH  10  11
ENDBRANCH   4  10
ENDBRANCH   1   2
BRANCH   1  16
HETATM   16  C7  UNL     1      44.689  20.632  34.706  1.00  0.00     0.016 C
BRANCH  16  17
HETATM   17  C8  UNL     1      45.982  20.289  34.135  1.00  0.00     0.043 A
HETATM   18  C9  UNL     1      46.259  20.043  32.673  1.00  0.00     0.044 A
HETATM   19  C10 UNL     1      46.274  18.908  33.675  1.00  0.00     0.083 A
HETATM   20 BR1  UNL     1      48.004  18.185  34.176  1.00  0.00    -0.072 Br
HETATM   21 BR2  UNL     1      44.863  17.621  33.447  1.00  0.00    -0.072 Br
ENDBRANCH  16  17
ENDBRANCH   1  16
BRANCH   1  22
HETATM   22  C11 UNL     1      42.902  22.182  35.429  1.00  0.00     0.268 C
HETATM   23  O4  UNL     1      42.719  23.388  35.813  1.00  0.00    -0.266 OA
HETATM   24  N4  UNL     1      42.077  21.232  36.103  1.00  0.00    -0.356 N
ATOM     25  H4  UNL     1      42.161  20.245  35.858  1.00  0.00     0.162 HD
BRANCH  24  26
HETATM   26  C12 UNL     1      41.123  21.620  37.125  1.00  0.00     0.123 C
BRANCH  26  27
HETATM   27  C13 UNL     1      39.719  21.683  36.572  1.00  0.00     0.021 C
BRANCH  27  28
HETATM   28  C14 UNL     1      38.863  22.689  37.263  1.00  0.00     0.017 C
BRANCH  28  29
HETATM   29  C15 UNL     1      39.494  24.053  37.079  1.00  0.00     0.114 C
HETATM   30 CL1  UNL     1      39.524  24.931  38.633  1.00  0.00    -0.130 Cl
ENDBRANCH  28  29
ENDBRANCH  27  28
ENDBRANCH  26  27
ENDBRANCH  24  26
ENDBRANCH   1  22
TORSDOF 11
ENDMDL