MODEL 2
REMARK VINA RESULT: -5.859611703      1.447      1.604
REMARK  12 active torsions:
REMARK  status: ('A' for Active; 'I' for Inactive)
REMARK    1  A    between atoms: N1_1  and  C1_5
REMARK    2  A    between atoms: C1_5  and  C2_6
REMARK    3  A    between atoms: C2_6  and  C3_7
REMARK    4  A    between atoms: C3_7  and  C4_8
REMARK    5  A    between atoms: C4_8  and  N2_9
REMARK    6  A    between atoms: N2_9  and  C5_10
REMARK       I    between atoms: N2_9  and  C14_29
REMARK    7  A    between atoms: C5_10  and  C6_11
REMARK    8  A    between atoms: C6_11  and  C7_12
REMARK    9  A    between atoms: C7_12  and  C8_13
REMARK   10  A    between atoms: C8_13  and  N3_14
REMARK       I    between atoms: N3_14  and  C9_16
REMARK       I    between atoms: C9_16  and  N5_20
REMARK   11  A    between atoms: N5_20  and  C10_22
REMARK   12  A    between atoms: C14_29  and  C15_31
ROOT
HETATM    1  C7  UNL     1      42.964  22.548  35.068  1.00  0.00     0.022 C
ENDROOT
BRANCH   1   2
HETATM    2  C6  UNL     1      42.644  21.426  35.970  1.00  0.00     0.021 C
BRANCH   2   3
HETATM    3  C5  UNL     1      41.206  21.067  35.985  1.00  0.00     0.126 C
BRANCH   3   4
HETATM    4  N2  UNL     1      40.719  20.825  37.306  1.00  0.00    -0.351 N
HETATM    5  C14 UNL     1      40.783  19.596  37.986  1.00  0.00     0.229 C
HETATM    6  O1  UNL     1      40.448  19.605  39.226  1.00  0.00    -0.273 OA
BRANCH   4   7
HETATM    7  C4  UNL     1      40.178  22.016  37.997  1.00  0.00     0.126 C
BRANCH   7   8
HETATM    8  C3  UNL     1      39.202  22.709  37.101  1.00  0.00     0.022 C
BRANCH   8   9
HETATM    9  C2  UNL     1      39.519  24.185  37.042  1.00  0.00     0.029 C
BRANCH   9  10
HETATM   10  C1  UNL     1      39.760  24.760  38.420  1.00  0.00     0.229 C
BRANCH  10  11
HETATM   11  N1  UNL     1      40.861  25.693  38.366  1.00  0.00    -0.079 N
ATOM     12  H13 UNL     1      41.155  25.887  37.409  1.00  0.00     0.274 HD
ATOM     13  H12 UNL     1      40.579  26.639  38.626  1.00  0.00     0.274 HD
ATOM     14  H11 UNL     1      41.628  25.348  38.943  1.00  0.00     0.274 HD
ENDBRANCH  10  11
ENDBRANCH   9  10
ENDBRANCH   8   9
ENDBRANCH   7   8
ENDBRANCH   4   7
BRANCH   5  15
HETATM   15  C15 UNL     1      41.192  18.342  37.360  1.00  0.00     0.188 C
HETATM   16 BR2  UNL     1      41.691  17.067  38.747  1.00  0.00    -0.087 Br
ENDBRANCH   5  15
ENDBRANCH   3   4
ENDBRANCH   2   3
ENDBRANCH   1   2
BRANCH   1  17
HETATM   17  C8  UNL     1      44.355  23.088  35.346  1.00  0.00     0.138 C
BRANCH  17  18
HETATM   18  N3  UNL     1      45.381  22.162  34.941  1.00  0.00    -0.226 N
HETATM   19  C9  UNL     1      45.531  21.864  33.568  1.00  0.00     0.684 C
HETATM   20  N4  UNL     1      45.499  20.659  33.146  1.00  0.00    -0.156 N
HETATM   21  N5  UNL     1      45.719  22.972  32.684  1.00  0.00    -0.188 N
HETATM   22 BR1  UNL     1      45.246  19.251  34.382  1.00  0.00     0.063 Br
ATOM     23  H4  UNL     1      45.608  20.458  32.152  1.00  0.00     0.192 HD
ATOM     24  H5  UNL     1      46.612  23.464  32.699  1.00  0.00     0.184 HD
ATOM     25  H3  UNL     1      45.990  21.728  35.635  1.00  0.00     0.177 HD
BRANCH  21  26
HETATM   26  C10 UNL     1      44.719  23.412  31.791  1.00  0.00     0.089 A
HETATM   27  C11 UNL     1      43.538  22.828  31.417  1.00  0.00     0.050 A
HETATM   28  C12 UNL     1      42.915  23.652  30.520  1.00  0.00     0.091 A
HETATM   29  N6  UNL     1      43.671  24.721  30.329  1.00  0.00    -0.355 N
HETATM   30  C13 UNL     1      44.767  24.594  31.089  1.00  0.00     0.130 A
ATOM     31  H6  UNL     1      43.458  25.505  29.711  1.00  0.00     0.166 HD
HETATM   32 CL1  UNL     1      46.072  25.784  31.165  1.00  0.00    -0.062 Cl
ENDBRANCH  21  26
ENDBRANCH  17  18
ENDBRANCH   1  17
TORSDOF 12
ENDMDL