MODEL 4
REMARK VINA RESULT: -6.763630630      7.834     13.182
REMARK  15 active torsions:
REMARK  status: ('A' for Active; 'I' for Inactive)
REMARK    1  A    between atoms: C2_2  and  C4_4
REMARK    2  A    between atoms: C4_4  and  C5_5
REMARK    3  A    between atoms: C4_4  and  N5_38
REMARK    4  A    between atoms: C5_5  and  C6_6
REMARK    5  A    between atoms: C6_6  and  C7_7
REMARK    6  A    between atoms: C7_7  and  C8_8
REMARK    7  A    between atoms: C7_7  and  C18_28
REMARK    8  A    between atoms: C9_9  and  C10_10
REMARK    9  A    between atoms: C12_15  and  C13_16
REMARK   10  A    between atoms: C13_16  and  C14_17
REMARK   11  A    between atoms: C14_17  and  C15_18
REMARK   12  A    between atoms: C15_18  and  C16_19
REMARK   13  A    between atoms: C16_19  and  N2_20
REMARK   14  A    between atoms: C18_28  and  C19_29
REMARK   15  A    between atoms: N5_38  and  N6_39
ROOT
HETATM    1  C7  UNL     1      44.665  21.522  34.934  1.00  0.00     0.012 C
ENDROOT
BRANCH   1   2
HETATM    2  C6  UNL     1      44.670  22.825  34.218  1.00  0.00     0.015 C
BRANCH   2   3
HETATM    3  C5  UNL     1      44.137  22.644  32.824  1.00  0.00     0.071 C
BRANCH   3   4
HETATM    4  C4  UNL     1      45.004  23.320  31.812  1.00  0.00     0.089 C
BRANCH   4   5
HETATM    5  C2  UNL     1      44.556  24.650  31.329  1.00  0.00     0.040 C
HETATM    6  C1  UNL     1      45.748  25.504  30.966  1.00  0.00     0.017 C
HETATM    7  C3  UNL     1      43.671  24.408  30.127  1.00  0.00     0.017 C
ENDBRANCH   4   5
BRANCH   4   8
HETATM    8  N5  UNL     1      46.044  22.775  31.409  1.00  0.00    -0.342 NA
BRANCH   8   9
HETATM    9  N6  UNL     1      47.084  22.287  30.945  1.00  0.00    -0.280 N
ATOM     10  H62 UNL     1      46.427  21.508  30.971  1.00  0.00     0.191 HD
ATOM     11  H61 UNL     1      47.969  21.947  30.569  1.00  0.00     0.191 HD
ENDBRANCH   8   9
ENDBRANCH   4   8
ENDBRANCH   3   4
ENDBRANCH   2   3
ENDBRANCH   1   2
BRANCH   1  12
HETATM   12  C8  UNL     1      45.932  20.815  34.750  1.00  0.00    -0.023 C
HETATM   13  C9  UNL     1      46.069  19.534  35.057  1.00  0.00     0.004 C
BRANCH  13  14
HETATM   14  C10 UNL     1      47.353  18.804  34.874  1.00  0.00     0.199 C
HETATM   15  N1  UNL     1      48.136  19.577  33.931  1.00  0.00    -0.343 N
HETATM   16  C11 UNL     1      48.468  19.057  32.651  1.00  0.00     0.241 C
ATOM     17  H1  UNL     1      48.454  20.512  34.191  1.00  0.00     0.163 HD
HETATM   18  O1  UNL     1      48.461  19.883  31.698  1.00  0.00    -0.271 OA
HETATM   19  C12 UNL     1      48.788  17.633  32.527  1.00  0.00     0.176 C
HETATM   20  N3  UNL     1      48.070  16.844  33.543  1.00  0.00    -0.346 N
HETATM   21  C17 UNL     1      47.196  17.412  34.472  1.00  0.00     0.244 C
ATOM     22  H3  UNL     1      48.219  15.836  33.569  1.00  0.00     0.163 HD
HETATM   23  O2  UNL     1      46.269  16.725  34.963  1.00  0.00    -0.271 OA
BRANCH  19  24
HETATM   24  C13 UNL     1      48.456  17.001  31.223  1.00  0.00     0.035 C
BRANCH  24  25
HETATM   25  C14 UNL     1      47.093  16.449  31.059  1.00  0.00     0.004 C
BRANCH  25  26
HETATM   26  C15 UNL     1      46.106  17.389  30.437  1.00  0.00     0.027 C
BRANCH  26  27
HETATM   27  C16 UNL     1      45.161  17.979  31.440  1.00  0.00     0.229 C
BRANCH  27  28
HETATM   28  N2  UNL     1      45.272  19.446  31.435  1.00  0.00    -0.079 N
ATOM     29  H23 UNL     1      46.241  19.755  31.358  1.00  0.00     0.274 HD
ATOM     30  H22 UNL     1      44.917  19.852  30.570  1.00  0.00     0.274 HD
ATOM     31  H21 UNL     1      44.811  19.835  32.257  1.00  0.00     0.274 HD
ENDBRANCH  27  28
ENDBRANCH  26  27
ENDBRANCH  25  26
ENDBRANCH  24  25
ENDBRANCH  19  24
ENDBRANCH  13  14
ENDBRANCH   1  12
BRANCH   1  32
HETATM   32  C18 UNL     1      43.467  20.664  34.558  1.00  0.00     0.048 C
BRANCH  32  33
HETATM   33  C19 UNL     1      42.564  20.439  35.686  1.00  0.00    -0.034 A
HETATM   34  C20 UNL     1      41.971  21.538  36.279  1.00  0.00     0.038 A
HETATM   35  C21 UNL     1      41.108  21.423  37.349  1.00  0.00     0.085 A
HETATM   36  N4  UNL     1      40.499  22.548  37.961  1.00  0.00    -0.099 NA
HETATM   37  C22 UNL     1      40.864  20.133  37.804  1.00  0.00     0.142 A
HETATM   38  F1  UNL     1      40.016  19.998  38.859  1.00  0.00    -0.204 F
HETATM   39  C23 UNL     1      41.454  19.034  37.216  1.00  0.00     0.068 A
HETATM   40  C24 UNL     1      42.319  19.164  36.141  1.00  0.00     0.043 A
HETATM   41 CL1  UNL     1      43.047  17.744  35.417  1.00  0.00    -0.084 Cl
ENDBRANCH  32  33
ENDBRANCH   1  32
TORSDOF 15
ENDMDL