MODEL 5
REMARK VINA RESULT: -6.364819982      4.744      7.504
REMARK  11 active torsions:
REMARK  status: ('A' for Active; 'I' for Inactive)
REMARK    1  A    between atoms: N1_1  and  C1_5
REMARK    2  A    between atoms: C1_5  and  C2_6
REMARK    3  A    between atoms: C2_6  and  C3_7
REMARK    4  A    between atoms: C3_7  and  C4_8
REMARK    5  A    between atoms: C6_10  and  C7_11
REMARK    6  A    between atoms: C7_11  and  O1_12
REMARK    7  A    between atoms: C7_11  and  N2_14
REMARK    8  A    between atoms: N2_14  and  C8_15
REMARK    9  A    between atoms: C9_18  and  C10_19
REMARK   10  A    between atoms: C10_19  and  C11_20
REMARK   11  A    between atoms: C19_34  and  C20_35
ROOT
HETATM    1  C8  UNL     1      38.969  18.609  38.349  1.00  0.00     0.199 A
HETATM    2  N3  UNL     1      37.754  17.960  38.288  1.00  0.00    -0.332 N
ATOM      3  H3  UNL     1      36.923  18.513  38.080  1.00  0.00     0.168 HD
HETATM    4  C9  UNL     1      37.607  16.644  38.489  1.00  0.00     0.038 A
HETATM    5  C17 UNL     1      38.739  15.937  38.763  1.00  0.00     0.058 A
HETATM    6 CL1  UNL     1      38.675  14.203  39.040  1.00  0.00    -0.082 Cl
HETATM    7  C18 UNL     1      39.991  16.516  38.840  1.00  0.00     0.049 A
HETATM    8  C19 UNL     1      40.131  17.866  38.634  1.00  0.00     0.100 A
ENDROOT
BRANCH   1   9
HETATM    9  N2  UNL     1      39.032  19.790  38.159  1.00  0.00    -0.365 NA
BRANCH   9  10
HETATM   10  C7  UNL     1      39.047  21.087  37.937  1.00  0.00     0.197 C
BRANCH  10  11
HETATM   11  C6  UNL     1      40.236  22.002  38.074  1.00  0.00     0.080 A
HETATM   12  C4  UNL     1      41.259  22.123  36.962  1.00  0.00    -0.001 A
HETATM   13  C5  UNL     1      40.243  23.184  37.202  1.00  0.00     0.020 A
BRANCH  12  14
HETATM   14  C3  UNL     1      41.224  21.248  35.762  1.00  0.00     0.007 C
BRANCH  14  15
HETATM   15  C2  UNL     1      42.677  21.082  35.279  1.00  0.00     0.027 C
BRANCH  15  16
HETATM   16  C1  UNL     1      43.323  22.448  35.289  1.00  0.00     0.229 C
BRANCH  16  17
HETATM   17  N1  UNL     1      44.704  22.289  35.704  1.00  0.00    -0.079 N
ATOM     18  H13 UNL     1      45.146  23.175  35.951  1.00  0.00     0.274 HD
ATOM     19  H12 UNL     1      44.793  21.834  36.613  1.00  0.00     0.274 HD
ATOM     20  H11 UNL     1      45.202  21.794  34.964  1.00  0.00     0.274 HD
ENDBRANCH  16  17
ENDBRANCH  15  16
ENDBRANCH  14  15
ENDBRANCH  12  14
ENDBRANCH  10  11
BRANCH  10  21
HETATM   21  O1  UNL     1      37.937  21.656  37.561  1.00  0.00    -0.339 OA
ATOM     22  H1  UNL     1      37.262  21.723  38.227  1.00  0.00     0.220 HD
ENDBRANCH  10  21
ENDBRANCH   9  10
ENDBRANCH   1   9
BRANCH   8  23
HETATM   23  C20 UNL     1      41.442  18.498  38.711  1.00  0.00     0.214 C
HETATM   24  O2  UNL     1      42.253  18.661  37.795  1.00  0.00    -0.644 OA
HETATM   25  O3  UNL     1      41.849  18.991  39.968  1.00  0.00    -0.644 OA
ENDBRANCH   8  23
BRANCH   4  26
HETATM   26  C10 UNL     1      36.247  16.044  38.377  1.00  0.00     0.104 C
BRANCH  26  27
HETATM   27  C11 UNL     1      35.270  16.427  39.381  1.00  0.00     0.031 A
HETATM   28  C12 UNL     1      34.527  17.584  39.251  1.00  0.00     0.167 A
HETATM   29  F1  UNL     1      34.722  18.454  38.202  1.00  0.00    -0.202 F
HETATM   30  C13 UNL     1      33.557  17.913  40.171  1.00  0.00     0.197 A
HETATM   31  F2  UNL     1      32.830  19.051  40.037  1.00  0.00    -0.199 F
HETATM   32  C14 UNL     1      33.305  17.076  41.261  1.00  0.00     0.199 A
HETATM   33  F3  UNL     1      32.343  17.450  42.133  1.00  0.00    -0.199 F
HETATM   34  C15 UNL     1      34.039  15.926  41.394  1.00  0.00     0.197 A
HETATM   35  F4  UNL     1      33.820  15.106  42.430  1.00  0.00    -0.199 F
HETATM   36  C16 UNL     1      35.006  15.604  40.470  1.00  0.00     0.167 A
HETATM   37  F5  UNL     1      35.662  14.396  40.628  1.00  0.00    -0.202 F
ENDBRANCH  26  27
ENDBRANCH   4  26
TORSDOF 11
ENDMDL