MODEL 4
REMARK VINA RESULT: -5.724994727      2.278      3.036
REMARK  8 active torsions:
REMARK  status: ('A' for Active; 'I' for Inactive)
REMARK    1  A    between atoms: C1_2  and  C2_3
REMARK       I    between atoms: C1_2  and  N2_23
REMARK    2  A    between atoms: C2_3  and  C3_4
REMARK    3  A    between atoms: C3_4  and  C4_5
REMARK    4  A    between atoms: C3_4  and  C5_8
REMARK    5  A    between atoms: C3_4  and  N1_10
REMARK    6  A    between atoms: C4_5  and  O2_6
REMARK       I    between atoms: N1_10  and  C6_12
REMARK    7  A    between atoms: C6_12  and  C7_14
REMARK    8  A    between atoms: N2_23  and  C13_25
ROOT
HETATM    1  C3  UNL     1      37.999  19.690  36.297  1.00  0.00     0.088 C
ENDROOT
BRANCH   1   2
HETATM    2  C2  UNL     1      38.019  20.019  37.762  1.00  0.00     0.138 C
BRANCH   2   3
HETATM    3  C1  UNL     1      37.610  19.042  38.725  1.00  0.00     0.220 C
HETATM    4  O1  UNL     1      38.304  18.235  39.402  1.00  0.00    -0.274 OA
HETATM    5  N2  UNL     1      36.202  18.924  39.000  1.00  0.00    -0.356 N
ATOM      6  H2  UNL     1      35.565  19.539  38.494  1.00  0.00     0.162 HD
BRANCH   5   7
HETATM    7  C13 UNL     1      35.636  18.001  39.933  1.00  0.00     0.090 C
HETATM    8  C14 UNL     1      34.557  18.657  40.781  1.00  0.00     0.067 C
HETATM    9  C15 UNL     1      33.614  17.511  40.478  1.00  0.00     0.117 C
HETATM   10 CL4  UNL     1      32.083  18.075  39.802  1.00  0.00    -0.102 Cl
HETATM   11 CL5  UNL     1      33.442  16.365  41.804  1.00  0.00    -0.102 Cl
HETATM   12  C16 UNL     1      34.558  17.095  39.373  1.00  0.00     0.067 C
ENDBRANCH   5   7
ENDBRANCH   2   3
ENDBRANCH   1   2
BRANCH   1  13
HETATM   13  C4  UNL     1      36.883  20.393  35.576  1.00  0.00     0.198 C
BRANCH  13  14
HETATM   14  O2  UNL     1      35.829  20.730  36.421  1.00  0.00    -0.398 OA
ATOM     15  H2  UNL     1      36.023  21.485  36.964  1.00  0.00     0.209 HD
ENDBRANCH  13  14
ENDBRANCH   1  13
BRANCH   1  16
HETATM   16  C5  UNL     1      37.977  18.239  35.982  1.00  0.00     0.255 C
HETATM   17  F1  UNL     1      36.712  17.749  35.802  1.00  0.00    -0.253 F
ENDBRANCH   1  16
BRANCH   1  18
HETATM   18  N1  UNL     1      39.240  20.324  35.789  1.00  0.00    -0.343 N
HETATM   19  C6  UNL     1      40.523  20.144  36.283  1.00  0.00     0.255 C
HETATM   20  O3  UNL     1      40.670  19.346  37.273  1.00  0.00    -0.268 OA
ATOM     21  H1  UNL     1      39.139  20.957  34.996  1.00  0.00     0.163 HD
BRANCH  19  22
HETATM   22  C7  UNL     1      41.758  20.743  35.825  1.00  0.00     0.075 A
HETATM   23  C8  UNL     1      42.706  19.932  35.178  1.00  0.00     0.053 A
HETATM   24 CL1  UNL     1      42.337  18.257  34.927  1.00  0.00    -0.083 Cl
HETATM   25  C9  UNL     1      43.910  20.392  34.731  1.00  0.00     0.048 A
HETATM   26  C10 UNL     1      44.246  21.697  34.900  1.00  0.00     0.037 A
HETATM   27 CL2  UNL     1      45.798  22.301  34.324  1.00  0.00    -0.084 Cl
HETATM   28  C11 UNL     1      43.363  22.543  35.527  1.00  0.00     0.048 A
HETATM   29  C12 UNL     1      42.131  22.054  35.981  1.00  0.00     0.053 A
HETATM   30 CL3  UNL     1      41.122  23.228  36.810  1.00  0.00    -0.083 Cl
ENDBRANCH  19  22
ENDBRANCH   1  18
TORSDOF 8
ENDMDL