MODEL 2
REMARK VINA RESULT: -6.567474204      5.482      9.350
REMARK  8 active torsions:
REMARK  status: ('A' for Active; 'I' for Inactive)
REMARK    1  A    between atoms: C1_2  and  C2_4
REMARK    2  A    between atoms: C2_4  and  C3_5
REMARK    3  A    between atoms: C3_5  and  C4_6
REMARK       I    between atoms: C4_6  and  N2_8
REMARK    4  A    between atoms: N2_8  and  C5_10
REMARK    5  A    between atoms: C5_10  and  C6_11
REMARK    6  A    between atoms: C13_21  and  C14_22
REMARK    7  A    between atoms: C13_21  and  C15_25
REMARK    8  A    between atoms: C14_22  and  O3_23
ROOT
HETATM    1  C3  UNL     1      45.170  21.758  33.960  1.00  0.00     0.051 C
HETATM    2  C12 UNL     1      45.435  22.668  32.822  1.00  0.00     0.034 C
HETATM    3  C13 UNL     1      45.041  22.030  31.529  1.00  0.00     0.016 C
HETATM    4  C16 UNL     1      44.138  20.928  31.915  1.00  0.00    -0.027 C
HETATM    5  C17 UNL     1      42.706  21.443  31.902  1.00  0.00     0.016 C
HETATM    6  C18 UNL     1      41.718  20.286  32.034  1.00  0.00     0.080 C
HETATM    7  C19 UNL     1      41.678  19.542  30.719  1.00  0.00     0.243 C
HETATM    8  F5  UNL     1      41.404  18.213  30.859  1.00  0.00    -0.206 F
HETATM    9  F6  UNL     1      40.693  20.147  29.951  1.00  0.00    -0.206 F
HETATM   10  C20 UNL     1      42.990  19.751  30.005  1.00  0.00     0.080 C
HETATM   11  C21 UNL     1      44.162  19.770  30.967  1.00  0.00     0.016 C
HETATM   12  C22 UNL     1      44.571  20.540  33.308  1.00  0.00     0.030 C
ENDROOT
BRANCH   1  13
HETATM   13  C2  UNL     1      46.445  21.396  34.728  1.00  0.00     0.118 C
BRANCH  13  14
HETATM   14  C1  UNL     1      47.050  20.150  34.257  1.00  0.00     0.232 C
HETATM   15  N1  UNL     1      46.906  18.899  34.936  1.00  0.00    -0.062 NA
HETATM   16  O1  UNL     1      47.739  20.112  33.211  1.00  0.00    -0.277 OA
ENDBRANCH  13  14
ENDBRANCH   1  13
BRANCH   1  17
HETATM   17  C4  UNL     1      44.241  22.356  34.966  1.00  0.00     0.230 C
HETATM   18  O2  UNL     1      44.411  23.479  35.486  1.00  0.00    -0.272 OA
HETATM   19  N2  UNL     1      43.059  21.659  35.414  1.00  0.00    -0.335 N
ATOM     20  H2  UNL     1      42.847  20.735  35.039  1.00  0.00     0.168 HD
BRANCH  19  21
HETATM   21  C5  UNL     1      42.197  22.237  36.360  1.00  0.00     0.108 C
BRANCH  21  22
HETATM   22  C6  UNL     1      41.140  21.424  36.924  1.00  0.00     0.057 A
HETATM   23  C7  UNL     1      39.892  22.079  37.099  1.00  0.00     0.134 A
HETATM   24  F1  UNL     1      39.768  23.373  36.741  1.00  0.00    -0.205 F
HETATM   25  C8  UNL     1      38.801  21.454  37.616  1.00  0.00     0.085 A
HETATM   26  C9  UNL     1      38.865  20.130  38.000  1.00  0.00     0.122 A
HETATM   27  F2  UNL     1      37.765  19.526  38.514  1.00  0.00    -0.206 F
HETATM   28  C10 UNL     1      40.045  19.478  37.846  1.00  0.00     0.085 A
HETATM   29  C11 UNL     1      41.156  20.128  37.315  1.00  0.00     0.134 A
HETATM   30  F3  UNL     1      42.258  19.348  37.223  1.00  0.00    -0.205 F
ENDBRANCH  21  22
ENDBRANCH  19  21
ENDBRANCH   1  17
BRANCH   3  31
HETATM   31  C14 UNL     1      46.231  21.659  30.683  1.00  0.00     0.176 C
BRANCH  31  32
HETATM   32  O3  UNL     1      47.442  22.099  31.116  1.00  0.00    -0.400 OA
ATOM     33  H3  UNL     1      47.435  22.850  31.697  1.00  0.00     0.209 HD
ENDBRANCH  31  32
ENDBRANCH   3  31
BRANCH   3  34
HETATM   34  C15 UNL     1      44.319  23.089  30.666  1.00  0.00     0.234 C
HETATM   35  F4  UNL     1      44.457  24.277  31.401  1.00  0.00    -0.255 F
ENDBRANCH   3  34
TORSDOF 8
ENDMDL