MODEL 1
REMARK VINA RESULT: -6.394016654      0.000      0.000
REMARK  10 active torsions:
REMARK  status: ('A' for Active; 'I' for Inactive)
REMARK    1  A    between atoms: C2_2  and  N1_5
REMARK    2  A    between atoms: N1_5  and  C5_7
REMARK    3  A    between atoms: C5_7  and  O1_8
REMARK    4  A    between atoms: C5_7  and  C6_10
REMARK    5  A    between atoms: C6_10  and  C7_11
REMARK    6  A    between atoms: C7_11  and  C8_12
REMARK    7  A    between atoms: C8_12  and  N2_13
REMARK       I    between atoms: C9_15  and  N4_17
REMARK    8  A    between atoms: N4_17  and  C10_18
REMARK    9  A    between atoms: N4_17  and  C12_22
REMARK   10  A    between atoms: C10_18  and  C11_19
ROOT
HETATM    1  N2  UNL     1      42.033  21.053  34.769  1.00  0.00    -0.344 N
ATOM      2  H2  UNL     1      41.040  21.024  34.538  1.00  0.00     0.167 HD
HETATM    3  C9  UNL     1      42.234  21.662  35.848  1.00  0.00     0.194 C
HETATM    4  N3  UNL     1      43.483  21.901  36.483  1.00  0.00    -0.063 NA
HETATM    5  N4  UNL     1      41.090  22.182  36.581  1.00  0.00    -0.316 N
ENDROOT
BRANCH   1   6
HETATM    6  C8  UNL     1      42.796  20.408  33.804  1.00  0.00     0.064 C
BRANCH   6   7
HETATM    7  C7  UNL     1      43.575  21.253  32.830  1.00  0.00     0.049 C
BRANCH   7   8
HETATM    8  C6  UNL     1      45.030  21.325  33.205  1.00  0.00     0.058 C
BRANCH   8   9
HETATM    9  C5  UNL     1      45.534  22.787  33.069  1.00  0.00     0.214 C
BRANCH   9  10
HETATM   10  N1  UNL     1      44.727  23.474  32.153  1.00  0.00    -0.389 N
ATOM     11  H1  UNL     1      43.718  23.467  32.304  1.00  0.00     0.156 HD
BRANCH  10  12
HETATM   12  C2  UNL     1      45.213  24.162  31.057  1.00  0.00     0.017 C
HETATM   13  C1  UNL     1      44.274  25.254  30.609  1.00  0.00     0.037 C
HETATM   14  C3  UNL     1      45.307  23.166  29.882  1.00  0.00     0.037 C
HETATM   15  C4  UNL     1      46.579  24.788  31.213  1.00  0.00     0.037 C
ENDBRANCH  10  12
ENDBRANCH   9  10
BRANCH   9  16
HETATM   16  O1  UNL     1      45.367  23.312  34.346  1.00  0.00    -0.377 OA
ATOM     17  H1  UNL     1      45.700  22.706  34.997  1.00  0.00     0.212 HD
ENDBRANCH   9  16
ENDBRANCH   8   9
ENDBRANCH   7   8
ENDBRANCH   6   7
ENDBRANCH   1   6
BRANCH   5  18
HETATM   18  C10 UNL     1      40.789  23.555  36.731  1.00  0.00     0.203 C
BRANCH  18  19
HETATM   19  C11 UNL     1      40.144  23.966  38.017  1.00  0.00     0.371 C
HETATM   20  F1  UNL     1      41.055  23.680  39.049  1.00  0.00    -0.213 F
HETATM   21  F2  UNL     1      39.955  25.344  38.099  1.00  0.00    -0.213 F
ENDBRANCH  18  19
ENDBRANCH   5  18
BRANCH   5  22
HETATM   22  C12 UNL     1      40.275  21.140  37.155  1.00  0.00     0.041 A
HETATM   23  C13 UNL     1      40.786  20.417  38.202  1.00  0.00     0.075 A
HETATM   24  C14 UNL     1      40.033  19.417  38.796  1.00  0.00     0.158 A
HETATM   25  F3  UNL     1      40.578  18.727  39.822  1.00  0.00    -0.203 F
HETATM   26  C15 UNL     1      38.767  19.145  38.339  1.00  0.00     0.172 A
HETATM   27  F4  UNL     1      38.022  18.184  38.902  1.00  0.00    -0.201 F
HETATM   28  C16 UNL     1      38.249  19.892  37.265  1.00  0.00     0.054 A
HETATM   29 BR1  UNL     1      36.496  19.501  36.642  1.00  0.00    -0.048 Br
HETATM   30  C17 UNL     1      39.001  20.882  36.681  1.00  0.00     0.052 A
ENDBRANCH   5  22
TORSDOF 10
ENDMDL