MODEL 5
REMARK VINA RESULT: -7.268424093      5.773     10.202
REMARK  9 active torsions:
REMARK  status: ('A' for Active; 'I' for Inactive)
REMARK    1  A    between atoms: C2_2  and  C3_3
REMARK    2  A    between atoms: C3_3  and  C4_4
REMARK    3  A    between atoms: C3_3  and  N1_6
REMARK    4  A    between atoms: C7_11  and  N3_12
REMARK    5  A    between atoms: N3_12  and  C8_14
REMARK    6  A    between atoms: C8_14  and  C9_15
REMARK    7  A    between atoms: C9_15  and  C10_16
REMARK    8  A    between atoms: C13_21  and  N5_22
REMARK       I    between atoms: N5_22  and  C14_24
REMARK    9  A    between atoms: C14_24  and  C15_26
ROOT
HETATM    1  N1  UNL     1      42.124  22.805  36.204  1.00  0.00    -0.221 N
ATOM      2  H1  UNL     1      42.316  23.804  36.124  1.00  0.00     0.178 HD
HETATM    3  C6  UNL     1      43.010  22.195  35.587  1.00  0.00     0.707 A
HETATM    4  N2  UNL     1      43.979  22.971  34.983  1.00  0.00    -0.022 N
ATOM      5  H2  UNL     1      43.917  23.986  35.071  1.00  0.00     0.203 HD
HETATM    6  C7  UNL     1      44.992  22.451  34.287  1.00  0.00     0.707 A
HETATM    7  N4  UNL     1      45.059  21.113  34.181  1.00  0.00    -0.021 N
ATOM      8  H4  UNL     1      45.825  20.691  33.654  1.00  0.00     0.203 HD
HETATM    9  C13 UNL     1      44.141  20.320  34.752  1.00  0.00     0.714 A
HETATM   10  N6  UNL     1      43.112  20.866  35.459  1.00  0.00    -0.021 N
ATOM     11  H6  UNL     1      42.416  20.259  35.893  1.00  0.00     0.203 HD
ENDROOT
BRANCH   9  12
HETATM   12  N5  UNL     1      44.219  19.017  34.641  1.00  0.00    -0.154 N
HETATM   13  C14 UNL     1      43.138  18.164  34.881  1.00  0.00     0.276 C
HETATM   14  O1  UNL     1      42.203  18.092  34.050  1.00  0.00    -0.267 OA
ATOM     15  H5  UNL     1      45.110  18.605  34.366  1.00  0.00     0.187 HD
BRANCH  13  16
HETATM   16  C15 UNL     1      43.055  17.344  36.079  1.00  0.00     0.116 A
HETATM   17  C16 UNL     1      43.907  16.289  36.304  1.00  0.00     0.176 A
HETATM   18  F1  UNL     1      44.860  16.021  35.349  1.00  0.00    -0.202 F
HETATM   19  C17 UNL     1      43.879  15.477  37.418  1.00  0.00     0.197 A
HETATM   20  F2  UNL     1      44.767  14.460  37.542  1.00  0.00    -0.199 F
HETATM   21  C18 UNL     1      42.921  15.748  38.373  1.00  0.00     0.199 A
HETATM   22  F3  UNL     1      42.897  14.947  39.465  1.00  0.00    -0.199 F
HETATM   23  C19 UNL     1      42.042  16.799  38.190  1.00  0.00     0.197 A
HETATM   24  F4  UNL     1      41.109  17.027  39.171  1.00  0.00    -0.199 F
HETATM   25  C20 UNL     1      42.097  17.592  37.066  1.00  0.00     0.176 A
HETATM   26  F5  UNL     1      41.229  18.594  36.935  1.00  0.00    -0.202 F
ENDBRANCH  13  16
ENDBRANCH   9  12
BRANCH   6  27
HETATM   27  N3  UNL     1      45.891  23.221  33.727  1.00  0.00    -0.225 N
ATOM     28  H3  UNL     1      46.456  23.863  34.284  1.00  0.00     0.177 HD
BRANCH  27  29
HETATM   29  C8  UNL     1      46.053  23.132  32.311  1.00  0.00     0.138 C
BRANCH  29  30
HETATM   30  C9  UNL     1      44.822  23.704  31.626  1.00  0.00     0.024 C
BRANCH  30  31
HETATM   31  C10 UNL     1      45.246  25.066  31.068  1.00  0.00    -0.021 C
HETATM   32  C11 UNL     1      44.433  25.326  29.826  1.00  0.00     0.009 C
HETATM   33  C12 UNL     1      46.718  24.974  30.737  1.00  0.00     0.009 C
ENDBRANCH  30  31
ENDBRANCH  29  30
ENDBRANCH  27  29
ENDBRANCH   6  27
BRANCH   1  34
HETATM   34  C3  UNL     1      40.980  22.653  36.954  1.00  0.00     0.098 C
BRANCH  34  35
HETATM   35  C2  UNL     1      40.045  21.567  36.536  1.00  0.00     0.021 C
HETATM   36  C1  UNL     1      38.819  21.496  37.446  1.00  0.00     0.007 C
ENDBRANCH  34  35
BRANCH  34  37
HETATM   37  C4  UNL     1      40.227  23.964  37.213  1.00  0.00     0.021 C
HETATM   38  C5  UNL     1      40.531  24.497  38.583  1.00  0.00     0.007 C
ENDBRANCH  34  37
ENDBRANCH   1  34
TORSDOF 9
ENDMDL