MODEL 3
REMARK VINA RESULT: -6.753733471      2.724      3.741
REMARK  9 active torsions:
REMARK  status: ('A' for Active; 'I' for Inactive)
REMARK    1  A    between atoms: C2_2  and  O1_3
REMARK    2  A    between atoms: C2_2  and  C3_6
REMARK    3  A    between atoms: C4_10  and  C5_11
REMARK    4  A    between atoms: C5_11  and  C6_12
REMARK    5  A    between atoms: C6_12  and  C7_13
REMARK    6  A    between atoms: C16_29  and  C17_30
REMARK    7  A    between atoms: C17_30  and  C18_31
REMARK    8  A    between atoms: C18_31  and  C19_32
REMARK    9  A    between atoms: C19_32  and  C20_33
ROOT
HETATM    1  C3  UNL     1      43.787  18.771  34.771  1.00  0.00     0.288 C
HETATM    2  N1  UNL     1      44.146  20.094  35.281  1.00  0.00    -0.048 N
ATOM      3  H11 UNL     1      44.991  20.443  34.827  1.00  0.00     0.279 HD
ATOM      4  H12 UNL     1      44.485  20.036  36.241  1.00  0.00     0.279 HD
HETATM    5  C4  UNL     1      43.077  21.041  35.172  1.00  0.00     0.279 C
HETATM    6  C8  UNL     1      41.949  20.777  36.138  1.00  0.00     0.256 C
HETATM    7  O3  UNL     1      41.154  21.737  36.252  1.00  0.00    -0.271 OA
HETATM    8  N3  UNL     1      41.704  19.611  36.897  1.00  0.00    -0.304 N
HETATM    9  C9  UNL     1      42.468  18.414  36.867  1.00  0.00     0.059 A
HETATM   10  C10 UNL     1      43.441  17.980  35.951  1.00  0.00     0.009 A
HETATM   11  C11 UNL     1      44.082  16.787  36.144  1.00  0.00     0.054 A
HETATM   12  C12 UNL     1      43.763  16.010  37.249  1.00  0.00     0.117 A
HETATM   13  F2  UNL     1      44.407  14.816  37.438  1.00  0.00    -0.206 F
HETATM   14  C13 UNL     1      42.805  16.431  38.154  1.00  0.00     0.057 A
HETATM   15  C14 UNL     1      42.163  17.634  37.954  1.00  0.00     0.045 A
HETATM   16  C15 UNL     1      41.088  18.333  38.761  1.00  0.00     0.294 C
HETATM   17  F3  UNL     1      41.804  18.878  39.841  1.00  0.00    -0.198 F
HETATM   18  F4  UNL     1      40.239  17.370  39.135  1.00  0.00    -0.198 F
HETATM   19  C16 UNL     1      40.644  19.405  37.864  1.00  0.00     0.174 C
ENDROOT
BRANCH   1  20
HETATM   20  C2  UNL     1      44.713  18.240  33.776  1.00  0.00     0.232 C
HETATM   21  C1  UNL     1      44.079  17.196  32.885  1.00  0.00     0.087 C
HETATM   22  F1  UNL     1      45.979  17.910  34.206  1.00  0.00    -0.210 F
BRANCH  20  23
HETATM   23  O1  UNL     1      44.948  19.328  32.870  1.00  0.00    -0.360 OA
ATOM     24  H1  UNL     1      44.639  20.080  33.361  1.00  0.00     0.213 HD
ENDBRANCH  20  23
ENDBRANCH   1  20
BRANCH   5  25
HETATM   25  C5  UNL     1      43.469  22.469  35.208  1.00  0.00     0.052 C
BRANCH  25  26
HETATM   26  C6  UNL     1      44.956  22.667  35.304  1.00  0.00     0.102 C
BRANCH  26  27
HETATM   27  C7  UNL     1      45.513  22.687  33.928  1.00  0.00     0.231 C
HETATM   28  N2  UNL     1      46.536  21.789  33.542  1.00  0.00    -0.062 NA
HETATM   29  O2  UNL     1      45.083  23.501  33.085  1.00  0.00    -0.277 OA
ENDBRANCH  26  27
ENDBRANCH  25  26
ENDBRANCH   5  25
BRANCH  19  30
HETATM   30  C17 UNL     1      39.313  19.294  37.189  1.00  0.00     0.059 C
BRANCH  30  31
HETATM   31  C18 UNL     1      38.161  19.682  37.966  1.00  0.00    -0.024 C
BRANCH  31  32
HETATM   32  C19 UNL     1      37.200  19.022  38.508  1.00  0.00     0.008 C
BRANCH  32  33
HETATM   33  C20 UNL     1      37.110  18.252  39.724  1.00  0.00     0.084 C
HETATM   34 CL1  UNL     1      35.650  18.236  40.658  1.00  0.00    -0.097 Cl
ENDBRANCH  32  33
ENDBRANCH  31  32
ENDBRANCH  30  31
ENDBRANCH  19  30
TORSDOF 9
ENDMDL