MODEL 1
REMARK VINA RESULT: -5.931668823      0.000      0.000
REMARK  8 active torsions:
REMARK  status: ('A' for Active; 'I' for Inactive)
REMARK    1  A    between atoms: C2_2  and  C5_5
REMARK    2  A    between atoms: C6_6  and  N1_7
REMARK    3  A    between atoms: N1_7  and  C7_9
REMARK    4  A    between atoms: C7_9  and  C8_10
REMARK    5  A    between atoms: C7_9  and  C9_13
REMARK    6  A    between atoms: C12_16  and  C13_17
REMARK       I    between atoms: C13_17  and  N2_19
REMARK    7  A    between atoms: N2_19  and  C14_21
REMARK    8  A    between atoms: C14_21  and  C15_23
REMARK       I    between atoms: N3_27  and  C16_28
ROOT
HETATM    1  C9  UNL     1      38.126  18.071  37.304  1.00  0.00     0.141 C
HETATM    2  C10 UNL     1      38.427  16.628  37.632  1.00  0.00     0.034 C
HETATM    3  C11 UNL     1      39.291  16.664  38.835  1.00  0.00     0.037 C
HETATM    4  C12 UNL     1      39.945  18.024  38.751  1.00  0.00     0.181 C
HETATM    5  N3  UNL     1      39.238  18.806  37.770  1.00  0.00    -0.313 N
HETATM    6  C16 UNL     1      39.701  20.084  37.364  1.00  0.00     0.332 C
HETATM    7  N4  UNL     1      40.810  20.714  38.010  1.00  0.00    -0.040 NA
HETATM    8  O2  UNL     1      39.197  20.769  36.426  1.00  0.00    -0.251 OA
ENDROOT
BRANCH   1   9
HETATM    9  C7  UNL     1      36.759  18.378  37.744  1.00  0.00     0.074 C
BRANCH   9  10
HETATM   10  N1  UNL     1      36.551  19.010  39.013  1.00  0.00    -0.367 N
ATOM     11  H1  UNL     1      36.355  20.010  38.998  1.00  0.00     0.165 HD
BRANCH  10  12
HETATM   12  C6  UNL     1      36.590  18.398  40.268  1.00  0.00     0.084 C
HETATM   13  C5  UNL     1      35.655  17.776  40.896  1.00  0.00    -0.001 C
BRANCH  13  14
HETATM   14  C2  UNL     1      34.271  17.548  40.428  1.00  0.00    -0.032 C
HETATM   15  C1  UNL     1      34.269  16.420  39.429  1.00  0.00     0.018 C
HETATM   16  C3  UNL     1      33.647  18.783  39.846  1.00  0.00     0.018 C
HETATM   17  C4  UNL     1      33.388  17.147  41.634  1.00  0.00     0.018 C
ENDBRANCH  13  14
ENDBRANCH  10  12
ENDBRANCH   9  10
BRANCH   9  18
HETATM   18  C8  UNL     1      35.839  18.930  36.712  1.00  0.00     0.401 C
HETATM   19  F1  UNL     1      36.054  20.283  36.564  1.00  0.00    -0.208 F
HETATM   20  F2  UNL     1      36.279  18.429  35.454  1.00  0.00    -0.208 F
ENDBRANCH   9  18
ENDBRANCH   1   9
BRANCH   4  21
HETATM   21  C13 UNL     1      41.354  17.765  38.414  1.00  0.00     0.242 C
HETATM   22  O1  UNL     1      42.181  18.141  39.320  1.00  0.00    -0.271 OA
HETATM   23  N2  UNL     1      41.898  17.180  37.277  1.00  0.00    -0.338 N
ATOM     24  H2  UNL     1      41.261  16.867  36.544  1.00  0.00     0.164 HD
BRANCH  23  25
HETATM   25  C14 UNL     1      43.316  16.990  37.075  1.00  0.00     0.236 C
HETATM   26 CL1  UNL     1      43.901  17.725  35.567  1.00  0.00    -0.098 Cl
BRANCH  25  27
HETATM   27  C15 UNL     1      43.724  15.539  37.133  1.00  0.00     0.221 C
HETATM   28 CL2  UNL     1      45.429  15.412  36.624  1.00  0.00    -0.080 Cl
HETATM   29 CL3  UNL     1      42.770  14.499  36.089  1.00  0.00    -0.080 Cl
HETATM   30 CL4  UNL     1      43.628  14.905  38.792  1.00  0.00    -0.080 Cl
ENDBRANCH  25  27
ENDBRANCH  23  25
ENDBRANCH   4  21
TORSDOF 8
ENDMDL