MODEL 4
REMARK VINA RESULT: -6.884607279      1.083      1.320
REMARK  11 active torsions:
REMARK  status: ('A' for Active; 'I' for Inactive)
REMARK    1  A    between atoms: C3_3  and  N1_4
REMARK    2  A    between atoms: N1_4  and  C4_5
REMARK    3  A    between atoms: C5_8  and  N3_9
REMARK    4  A    between atoms: N3_9  and  C6_11
REMARK    5  A    between atoms: C6_11  and  C7_12
REMARK    6  A    between atoms: C7_12  and  C8_13
REMARK    7  A    between atoms: C11_18  and  N5_19
REMARK    8  A    between atoms: N5_19  and  C12_20
REMARK    9  A    between atoms: C12_20  and  C13_21
REMARK   10  A    between atoms: C13_21  and  N6_22
REMARK   11  A    between atoms: C19_33  and  C20_34
ROOT
HETATM    1  C4  UNL     1      36.762  19.228  37.678  1.00  0.00     0.277 A
HETATM    2  N2  UNL     1      37.784  20.050  38.051  1.00  0.00    -0.149 N
ATOM      3  H2  UNL     1      38.271  19.865  38.929  1.00  0.00     0.188 HD
HETATM    4  C5  UNL     1      38.174  21.107  37.292  1.00  0.00     0.685 A
HETATM    5  N4  UNL     1      37.545  21.345  36.162  1.00  0.00    -0.149 N
ATOM      6  H4  UNL     1      37.843  22.140  35.597  1.00  0.00     0.188 HD
HETATM    7  C11 UNL     1      36.511  20.575  35.711  1.00  0.00     0.276 A
HETATM    8  N7  UNL     1      36.159  19.524  36.513  1.00  0.00    -0.275 N
ATOM      9  H7  UNL     1      35.391  18.927  36.208  1.00  0.00     0.174 HD
ENDROOT
BRANCH   1  10
HETATM   10  N1  UNL     1      36.436  18.320  38.347  1.00  0.00    -0.367 NA
BRANCH  10  11
HETATM   11  C3  UNL     1      36.073  17.303  39.107  1.00  0.00     0.159 A
HETATM   12  C2  UNL     1      34.807  17.329  39.738  1.00  0.00     0.000 A
HETATM   13  C1  UNL     1      33.975  18.537  39.511  1.00  0.00     0.052 C
HETATM   14  C19 UNL     1      34.326  16.337  40.532  1.00  0.00     0.099 A
HETATM   15  C18 UNL     1      35.134  15.238  40.730  1.00  0.00     0.173 A
HETATM   16  C17 UNL     1      36.379  15.143  40.148  1.00  0.00     0.197 A
HETATM   17  F3  UNL     1      34.692  14.232  41.513  1.00  0.00    -0.202 F
HETATM   18  C16 UNL     1      36.835  16.156  39.354  1.00  0.00     0.199 A
HETATM   19  F2  UNL     1      37.122  14.027  40.387  1.00  0.00    -0.199 F
HETATM   20  F1  UNL     1      38.052  16.097  38.766  1.00  0.00    -0.199 F
BRANCH  14  21
HETATM   21  C20 UNL     1      32.980  16.360  41.186  1.00  0.00     0.421 C
HETATM   22  F4  UNL     1      32.810  17.557  41.868  1.00  0.00    -0.166 F
HETATM   23  F5  UNL     1      32.972  15.389  42.208  1.00  0.00    -0.166 F
HETATM   24  F6  UNL     1      31.949  16.119  40.334  1.00  0.00    -0.166 F
ENDBRANCH  14  21
ENDBRANCH  10  11
ENDBRANCH   1  10
BRANCH   4  25
HETATM   25  N3  UNL     1      39.143  21.848  37.700  1.00  0.00    -0.226 N
ATOM     26  H3  UNL     1      39.029  22.305  38.605  1.00  0.00     0.177 HD
BRANCH  25  27
HETATM   27  C6  UNL     1      40.364  22.087  37.000  1.00  0.00     0.138 C
BRANCH  27  28
HETATM   28  C7  UNL     1      40.689  23.584  37.020  1.00  0.00     0.025 C
BRANCH  28  29
HETATM   29  C8  UNL     1      40.057  24.198  38.240  1.00  0.00    -0.013 A
HETATM   30  C9  UNL     1      40.162  25.650  38.475  1.00  0.00     0.005 A
HETATM   31  C10 UNL     1      41.037  24.780  39.287  1.00  0.00     0.005 A
ENDBRANCH  28  29
ENDBRANCH  27  28
ENDBRANCH  25  27
ENDBRANCH   4  25
BRANCH   7  32
HETATM   32  N5  UNL     1      35.965  20.810  34.707  1.00  0.00    -0.386 NA
BRANCH  32  33
HETATM   33  C12 UNL     1      35.362  21.074  33.558  1.00  0.00     0.189 C
BRANCH  33  34
HETATM   34  C13 UNL     1      34.997  22.553  33.325  1.00  0.00     0.330 C
BRANCH  34  35
HETATM   35  N6  UNL     1      35.167  22.971  31.979  1.00  0.00     0.085 N
HETATM   36  C14 UNL     1      36.291  22.438  31.288  1.00  0.00     0.309 C
HETATM   37  C15 UNL     1      33.958  22.921  31.224  1.00  0.00     0.309 C
ENDBRANCH  34  35
ENDBRANCH  33  34
ENDBRANCH  32  33
ENDBRANCH   7  32
TORSDOF 11
ENDMDL