MODEL 4
REMARK VINA RESULT: -6.602989193      5.993      7.368
REMARK  8 active torsions:
REMARK  status: ('A' for Active; 'I' for Inactive)
REMARK       I    between atoms: C1_4  and  N3_6
REMARK    1  A    between atoms: C5_10  and  C6_11
REMARK       I    between atoms: C6_11  and  N4_13
REMARK    2  A    between atoms: N4_13  and  C7_15
REMARK    3  A    between atoms: C7_15  and  C8_16
REMARK    4  A    between atoms: C8_16  and  C9_17
REMARK    5  A    between atoms: C9_17  and  C10_18
REMARK    6  A    between atoms: C10_18  and  O2_19
REMARK    7  A    between atoms: C10_18  and  C11_21
REMARK    8  A    between atoms: C16_29  and  C17_30
ROOT
HETATM    1  C9  UNL     1      39.120  22.303  37.182  1.00  0.00     0.067 C
ENDROOT
BRANCH   1   2
HETATM    2  C8  UNL     1      40.296  23.081  37.775  1.00  0.00     0.026 C
BRANCH   2   3
HETATM    3  C7  UNL     1      41.338  23.490  36.807  1.00  0.00     0.123 C
BRANCH   3   4
HETATM    4  N4  UNL     1      42.041  22.335  36.249  1.00  0.00    -0.359 N
HETATM    5  C6  UNL     1      43.337  22.423  35.703  1.00  0.00     0.240 C
HETATM    6  O1  UNL     1      43.948  23.516  35.671  1.00  0.00    -0.271 OA
ATOM      7  H4  UNL     1      41.573  21.429  36.254  1.00  0.00     0.162 HD
BRANCH   5   8
HETATM    8  C5  UNL     1      44.045  21.242  35.141  1.00  0.00     0.179 C
HETATM    9  N3  UNL     1      44.178  21.321  33.710  1.00  0.00    -0.342 N
HETATM   10  C1  UNL     1      44.697  22.390  32.933  1.00  0.00     0.184 C
HETATM   11  C2  UNL     1      43.681  20.085  33.096  1.00  0.00     0.126 C
HETATM   12  N1  UNL     1      45.756  23.015  33.312  1.00  0.00    -0.374 N
HETATM   13  N2  UNL     1      44.061  22.786  31.732  1.00  0.00    -0.064 NA
ATOM     14  H12 UNL     1      46.128  23.783  32.754  1.00  0.00     0.158 HD
ATOM     15  H11 UNL     1      46.213  22.729  34.178  1.00  0.00     0.158 HD
HETATM   16  C3  UNL     1      43.732  19.089  34.248  1.00  0.00     0.022 C
HETATM   17  C4  UNL     1      43.331  19.960  35.418  1.00  0.00     0.037 C
ENDBRANCH   5   8
ENDBRANCH   3   4
ENDBRANCH   2   3
ENDBRANCH   1   2
BRANCH   1  18
HETATM   18  C10 UNL     1      38.928  20.986  37.685  1.00  0.00     0.054 C
BRANCH  18  19
HETATM   19  O2  UNL     1      37.810  20.732  38.317  1.00  0.00    -0.364 OA
ATOM     20  H2  UNL     1      37.857  20.195  39.100  1.00  0.00     0.217 HD
ENDBRANCH  18  19
BRANCH  18  21
HETATM   21  C11 UNL     1      39.781  19.832  37.639  1.00  0.00     0.010 A
HETATM   22  C12 UNL     1      40.525  19.664  38.840  1.00  0.00     0.060 A
HETATM   23  C13 UNL     1      41.404  18.636  38.976  1.00  0.00     0.159 A
HETATM   24  F1  UNL     1      42.116  18.470  40.115  1.00  0.00    -0.203 F
HETATM   25  C14 UNL     1      41.595  17.731  37.959  1.00  0.00     0.194 A
HETATM   26  F2  UNL     1      42.473  16.696  38.084  1.00  0.00    -0.200 F
HETATM   27  C15 UNL     1      40.876  17.897  36.804  1.00  0.00     0.169 A
HETATM   28  F3  UNL     1      41.079  16.993  35.790  1.00  0.00    -0.202 F
HETATM   29  C16 UNL     1      39.960  18.949  36.631  1.00  0.00     0.050 A
BRANCH  29  30
HETATM   30  C17 UNL     1      39.277  19.019  35.342  1.00  0.00     0.220 C
HETATM   31 CL1  UNL     1      37.507  18.973  35.428  1.00  0.00    -0.078 Cl
HETATM   32 CL2  UNL     1      39.952  20.209  34.263  1.00  0.00    -0.078 Cl
HETATM   33 CL3  UNL     1      39.650  17.411  34.504  1.00  0.00    -0.078 Cl
ENDBRANCH  29  30
ENDBRANCH  18  21
ENDBRANCH   1  18
TORSDOF 8
ENDMDL