MODEL 1
REMARK VINA RESULT: -7.213046379      0.000      0.000
REMARK  7 active torsions:
REMARK  status: ('A' for Active; 'I' for Inactive)
REMARK    1  A    between atoms: C6_13  and  C7_14
REMARK    2  A    between atoms: C7_14  and  C8_15
REMARK    3  A    between atoms: C8_15  and  C9_16
REMARK       I    between atoms: C9_16  and  N2_18
REMARK    4  A    between atoms: N2_18  and  C10_20
REMARK    5  A    between atoms: C10_20  and  C11_21
REMARK    6  A    between atoms: C11_21  and  N3_22
REMARK       I    between atoms: N3_22  and  C12_24
REMARK    7  A    between atoms: C12_24  and  C13_26
ROOT
HETATM    1  C9  UNL     1      36.807  18.452  38.727  1.00  0.00     0.217 C
HETATM    2  O2  UNL     1      37.804  17.926  38.177  1.00  0.00    -0.274 OA
HETATM    3  N2  UNL     1      35.922  19.212  37.930  1.00  0.00    -0.360 N
ATOM      4  H2  UNL     1      35.113  19.635  38.387  1.00  0.00     0.162 HD
ENDROOT
BRANCH   1   5
HETATM    5  C8  UNL     1      36.620  18.242  40.179  1.00  0.00     0.107 C
BRANCH   5   6
HETATM    6  C7  UNL     1      35.280  18.544  40.702  1.00  0.00     0.053 C
BRANCH   6   7
HETATM    7  C6  UNL     1      34.396  17.486  41.133  1.00  0.00     0.015 A
HETATM    8  C1  UNL     1      33.128  17.351  40.375  1.00  0.00     0.089 A
HETATM    9  N1  UNL     1      32.858  18.185  39.421  1.00  0.00    -0.395 N
HETATM   10  C2  UNL     1      32.160  16.305  40.662  1.00  0.00     0.240 A
ATOM     11  H12 UNL     1      31.986  18.091  38.900  1.00  0.00     0.156 HD
ATOM     12  H11 UNL     1      33.537  18.918  39.219  1.00  0.00     0.156 HD
HETATM   13  O1  UNL     1      31.081  16.177  40.029  1.00  0.00    -0.282 OA
HETATM   14  C3  UNL     1      32.501  15.388  41.741  1.00  0.00     0.210 A
HETATM   15  F1  UNL     1      31.626  14.381  42.055  1.00  0.00    -0.198 F
HETATM   16  C4  UNL     1      33.631  15.565  42.366  1.00  0.00     0.198 A
HETATM   17  F2  UNL     1      33.937  14.699  43.374  1.00  0.00    -0.199 F
HETATM   18  C5  UNL     1      34.614  16.619  42.085  1.00  0.00     0.166 A
HETATM   19  F3  UNL     1      35.742  16.681  42.883  1.00  0.00    -0.202 F
ENDBRANCH   6   7
ENDBRANCH   5   6
ENDBRANCH   1   5
BRANCH   3  20
HETATM   20  C10 UNL     1      36.085  19.430  36.523  1.00  0.00     0.142 C
BRANCH  20  21
HETATM   21  C11 UNL     1      36.393  20.846  36.163  1.00  0.00     0.142 C
BRANCH  21  22
HETATM   22  N3  UNL     1      37.808  20.971  35.726  1.00  0.00    -0.355 N
HETATM   23  C12 UNL     1      38.812  21.249  36.666  1.00  0.00     0.255 C
HETATM   24  O3  UNL     1      38.412  21.367  37.890  1.00  0.00    -0.268 OA
ATOM     25  H3  UNL     1      38.049  20.856  34.742  1.00  0.00     0.162 HD
BRANCH  23  26
HETATM   26  C13 UNL     1      40.215  21.409  36.429  1.00  0.00     0.075 A
HETATM   27  C14 UNL     1      40.935  22.574  36.487  1.00  0.00     0.053 A
HETATM   28 CL1  UNL     1      40.164  24.058  37.010  1.00  0.00    -0.083 Cl
HETATM   29  C15 UNL     1      42.302  22.619  36.179  1.00  0.00     0.048 A
HETATM   30  C16 UNL     1      42.986  21.510  35.810  1.00  0.00     0.037 A
HETATM   31 CL2  UNL     1      44.684  21.557  35.425  1.00  0.00    -0.084 Cl
HETATM   32  C17 UNL     1      42.290  20.329  35.745  1.00  0.00     0.048 A
HETATM   33  C18 UNL     1      40.951  20.279  36.045  1.00  0.00     0.053 A
HETATM   34 CL3  UNL     1      40.088  18.752  35.949  1.00  0.00    -0.083 Cl
ENDBRANCH  23  26
ENDBRANCH  21  22
ENDBRANCH  20  21
ENDBRANCH   3  20
TORSDOF 7
ENDMDL