MODEL 3
REMARK VINA RESULT: -7.050857165      1.674      1.927
REMARK  7 active torsions:
REMARK  status: ('A' for Active; 'I' for Inactive)
REMARK    1  A    between atoms: C6_7  and  N1_8
REMARK    2  A    between atoms: N1_8  and  C7_10
REMARK    3  A    between atoms: C7_10  and  C8_11
REMARK    4  A    between atoms: C8_11  and  C9_12
REMARK    5  A    between atoms: C9_12  and  N2_13
REMARK       I    between atoms: N2_13  and  C10_15
REMARK    6  A    between atoms: C10_15  and  C11_17
REMARK    7  A    between atoms: C11_17  and  C12_18
ROOT
HETATM    1  C1  UNL     1      30.566  19.076  39.623  1.00  0.00     0.018 C
HETATM    2  C2  UNL     1      31.501  18.454  40.088  1.00  0.00    -0.074 C
HETATM    3  C3  UNL     1      32.598  17.726  40.661  1.00  0.00     0.059 A
HETATM    4  C4  UNL     1      33.897  18.140  40.437  1.00  0.00     0.051 A
HETATM    5  C5  UNL     1      34.926  17.392  41.023  1.00  0.00     0.079 A
HETATM    6 CL1  UNL     1      36.604  17.831  40.800  1.00  0.00    -0.080 Cl
HETATM    7  C6  UNL     1      34.638  16.286  41.791  1.00  0.00     0.124 A
HETATM    8  N3  UNL     1      33.364  15.921  41.982  1.00  0.00    -0.329 N
ATOM      9  H3  UNL     1      33.163  15.100  42.553  1.00  0.00     0.168 HD
HETATM   10  C18 UNL     1      32.324  16.618  41.432  1.00  0.00     0.136 A
HETATM   11  N4  UNL     1      31.030  16.129  41.709  1.00  0.00    -0.081 NA
ENDROOT
BRANCH   7  12
HETATM   12  N1  UNL     1      35.604  15.617  42.318  1.00  0.00    -0.375 N
ATOM     13  H1  UNL     1      36.332  16.092  42.851  1.00  0.00     0.161 HD
BRANCH  12  14
HETATM   14  C7  UNL     1      35.642  14.159  42.138  1.00  0.00     0.123 C
BRANCH  14  15
HETATM   15  C8  UNL     1      36.990  13.714  41.624  1.00  0.00     0.039 C
BRANCH  15  16
HETATM   16  C9  UNL     1      36.756  13.094  40.271  1.00  0.00     0.124 C
BRANCH  16  17
HETATM   17  N2  UNL     1      37.569  13.667  39.225  1.00  0.00    -0.361 N
HETATM   18  C10 UNL     1      37.033  14.670  38.400  1.00  0.00     0.222 C
HETATM   19  O1  UNL     1      35.864  15.070  38.564  1.00  0.00    -0.273 OA
ATOM     20  H2  UNL     1      38.527  13.345  39.085  1.00  0.00     0.162 HD
BRANCH  18  21
HETATM   21  C11 UNL     1      37.856  15.261  37.325  1.00  0.00     0.147 C
BRANCH  21  22
HETATM   22  C12 UNL     1      38.037  16.737  37.569  1.00  0.00     0.034 A
HETATM   23  C13 UNL     1      39.101  17.196  38.317  1.00  0.00     0.168 A
HETATM   24  F1  UNL     1      39.961  16.280  38.811  1.00  0.00    -0.202 F
HETATM   25  C14 UNL     1      39.292  18.559  38.561  1.00  0.00     0.197 A
HETATM   26  F2  UNL     1      40.342  18.979  39.298  1.00  0.00    -0.199 F
HETATM   27  C15 UNL     1      38.398  19.470  38.046  1.00  0.00     0.199 A
HETATM   28  F3  UNL     1      38.568  20.812  38.275  1.00  0.00    -0.199 F
HETATM   29  C16 UNL     1      37.340  19.002  37.300  1.00  0.00     0.197 A
HETATM   30  F4  UNL     1      36.458  19.878  36.788  1.00  0.00    -0.199 F
HETATM   31  C17 UNL     1      37.139  17.642  37.049  1.00  0.00     0.168 A
HETATM   32  F5  UNL     1      36.076  17.217  36.305  1.00  0.00    -0.202 F
ENDBRANCH  21  22
ENDBRANCH  18  21
ENDBRANCH  16  17
ENDBRANCH  15  16
ENDBRANCH  14  15
ENDBRANCH  12  14
ENDBRANCH   7  12
TORSDOF 7
ENDMDL