MODEL 5
REMARK VINA RESULT: -5.654890963      3.926      6.246
REMARK  8 active torsions:
REMARK  status: ('A' for Active; 'I' for Inactive)
REMARK       I    between atoms: C1_2  and  N1_3
REMARK       I    between atoms: C1_2  and  N2_21
REMARK    1  A    between atoms: N1_3  and  C2_5
REMARK    2  A    between atoms: C2_5  and  C3_6
REMARK    3  A    between atoms: C3_6  and  C4_7
REMARK    4  A    between atoms: C4_7  and  C5_8
REMARK    5  A    between atoms: C5_8  and  C6_9
REMARK    6  A    between atoms: C8_11  and  O2_12
REMARK    7  A    between atoms: C8_11  and  C9_14
REMARK    8  A    between atoms: N2_21  and  C11_23
ROOT
HETATM    1  C3  UNL     1      37.666  18.825  38.779  1.00  0.00     0.020 C
ENDROOT
BRANCH   1   2
HETATM    2  C2  UNL     1      36.585  18.712  37.750  1.00  0.00     0.124 C
BRANCH   2   3
HETATM    3  N1  UNL     1      36.591  19.874  36.902  1.00  0.00    -0.343 N
HETATM    4  C1  UNL     1      36.166  19.796  35.561  1.00  0.00     0.316 C
HETATM    5  O1  UNL     1      35.745  18.735  35.015  1.00  0.00    -0.247 OA
HETATM    6  N2  UNL     1      36.221  21.005  34.772  1.00  0.00    -0.334 N
ATOM      7  H2  UNL     1      36.556  21.875  35.184  1.00  0.00     0.164 HD
ATOM      8  H1  UNL     1      36.907  20.769  37.277  1.00  0.00     0.164 HD
BRANCH   6   9
HETATM    9  C11 UNL     1      35.793  20.966  33.390  1.00  0.00     0.144 C
HETATM   10  C12 UNL     1      35.118  22.278  33.089  1.00  0.00     0.195 C
HETATM   11  O3  UNL     1      34.836  22.295  31.724  1.00  0.00    -0.389 OA
HETATM   12  C13 UNL     1      36.022  22.476  31.053  1.00  0.00     0.170 C
HETATM   13  C14 UNL     1      37.030  21.405  31.244  1.00  0.00     0.065 C
HETATM   14  C15 UNL     1      36.993  20.700  32.542  1.00  0.00     0.197 C
HETATM   15  F4  UNL     1      37.033  19.316  32.322  1.00  0.00    -0.247 F
ENDBRANCH   6   9
ENDBRANCH   2   3
ENDBRANCH   1   2
BRANCH   1  16
HETATM   16  C4  UNL     1      38.661  17.707  38.613  1.00  0.00     0.002 C
BRANCH  16  17
HETATM   17  C5  UNL     1      39.637  18.045  37.523  1.00  0.00     0.008 C
BRANCH  17  18
HETATM   18  C6  UNL     1      40.367  19.326  37.953  1.00  0.00     0.031 C
HETATM   19  C7  UNL     1      41.868  19.188  37.820  1.00  0.00     0.058 C
HETATM   20  C8  UNL     1      41.850  20.396  36.920  1.00  0.00     0.191 C
HETATM   21  C10 UNL     1      40.360  20.327  36.810  1.00  0.00     0.156 C
HETATM   22 CL1  UNL     1      39.532  21.825  37.344  1.00  0.00    -0.098 Cl
HETATM   23 CL2  UNL     1      39.706  19.742  35.293  1.00  0.00    -0.098 Cl
BRANCH  20  24
HETATM   24  O2  UNL     1      42.243  21.539  37.616  1.00  0.00    -0.378 OA
ATOM     25  H2  UNL     1      42.902  21.329  38.267  1.00  0.00     0.211 HD
ENDBRANCH  20  24
BRANCH  20  26
HETATM   26  C9  UNL     1      42.625  20.238  35.639  1.00  0.00     0.421 C
HETATM   27  F1  UNL     1      43.964  20.546  35.917  1.00  0.00    -0.168 F
HETATM   28  F2  UNL     1      42.224  21.075  34.651  1.00  0.00    -0.168 F
HETATM   29  F3  UNL     1      42.627  18.919  35.229  1.00  0.00    -0.168 F
ENDBRANCH  20  26
ENDBRANCH  17  18
ENDBRANCH  16  17
ENDBRANCH   1  16
TORSDOF 8
ENDMDL