MODEL 5
REMARK VINA RESULT: -6.874743198      2.793      7.772
REMARK  7 active torsions:
REMARK  status: ('A' for Active; 'I' for Inactive)
REMARK    1  A    between atoms: N1_1  and  C1_5
REMARK    2  A    between atoms: C1_5  and  C2_6
REMARK    3  A    between atoms: C1_5  and  C10_19
REMARK    4  A    between atoms: C2_6  and  C3_7
REMARK       I    between atoms: C3_7  and  N2_9
REMARK    5  A    between atoms: N2_9  and  C4_11
REMARK    6  A    between atoms: C10_19  and  C11_20
REMARK    7  A    between atoms: C15_26  and  C16_27
ROOT
HETATM    1  C1  UNL     1      36.190  18.193  39.117  1.00  0.00     0.196 C
ENDROOT
BRANCH   1   2
HETATM    2  N1  UNL     1      35.634  18.986  37.996  1.00  0.00    -0.074 N
ATOM      3  H13 UNL     1      35.816  18.570  37.083  1.00  0.00     0.274 HD
ATOM      4  H12 UNL     1      34.615  18.956  37.952  1.00  0.00     0.274 HD
ATOM      5  H11 UNL     1      36.003  19.932  38.087  1.00  0.00     0.274 HD
ENDBRANCH   1   2
BRANCH   1   6
HETATM    6  C2  UNL     1      36.345  16.811  38.634  1.00  0.00     0.135 C
BRANCH   6   7
HETATM    7  C3  UNL     1      37.657  16.172  38.869  1.00  0.00     0.219 C
HETATM    8  O1  UNL     1      37.746  15.006  39.371  1.00  0.00    -0.274 OA
HETATM    9  N2  UNL     1      38.861  16.831  38.545  1.00  0.00    -0.356 N
ATOM     10  H2  UNL     1      38.815  17.766  38.142  1.00  0.00     0.162 HD
BRANCH   9  11
HETATM   11  C4  UNL     1      40.168  16.225  38.765  1.00  0.00     0.084 C
HETATM   12  C5  UNL     1      40.556  15.355  37.594  1.00  0.00     0.031 C
HETATM   13  C6  UNL     1      41.839  14.630  37.883  1.00  0.00     0.081 C
HETATM   14  C7  UNL     1      42.659  15.285  38.946  1.00  0.00     0.243 C
HETATM   15  F1  UNL     1      42.380  14.814  40.219  1.00  0.00    -0.206 F
HETATM   16  F2  UNL     1      44.001  14.942  38.707  1.00  0.00    -0.206 F
HETATM   17  C8  UNL     1      42.596  16.789  38.930  1.00  0.00     0.081 C
HETATM   18  C9  UNL     1      41.203  17.321  38.917  1.00  0.00     0.031 C
ENDBRANCH   9  11
ENDBRANCH   6   7
ENDBRANCH   1   6
BRANCH   1  19
HETATM   19  C10 UNL     1      35.550  18.509  40.394  1.00  0.00     0.078 C
BRANCH  19  20
HETATM   20  C11 UNL     1      34.406  17.678  40.821  1.00  0.00     0.022 A
HETATM   21  C12 UNL     1      34.519  16.560  41.569  1.00  0.00     0.128 A
HETATM   22  F3  UNL     1      35.730  16.013  41.915  1.00  0.00    -0.205 F
HETATM   23  C13 UNL     1      33.350  15.888  41.969  1.00  0.00     0.086 A
HETATM   24  C14 UNL     1      32.096  16.323  41.628  1.00  0.00     0.132 A
HETATM   25  F4  UNL     1      31.016  15.624  42.051  1.00  0.00    -0.205 F
HETATM   26  C15 UNL     1      31.966  17.488  40.846  1.00  0.00     0.062 A
HETATM   27  C19 UNL     1      33.111  18.113  40.476  1.00  0.00     0.138 A
HETATM   28  F6  UNL     1      33.068  19.231  39.705  1.00  0.00    -0.205 F
BRANCH  26  29
HETATM   29  C16 UNL     1      30.640  17.938  40.476  1.00  0.00     0.183 C
HETATM   30  F5  UNL     1      29.924  17.011  39.697  1.00  0.00    -0.234 F
HETATM   31  C17 UNL     1      30.387  19.297  39.938  1.00  0.00     0.282 C
HETATM   32  N3  UNL     1      29.000  19.128  40.491  1.00  0.00    -0.068 N
HETATM   33  C18 UNL     1      29.710  18.408  41.582  1.00  0.00     0.282 C
ATOM     34  H32 UNL     1      28.370  19.913  40.662  1.00  0.00     0.277 HD
ATOM     35  H31 UNL     1      28.235  18.713  39.957  1.00  0.00     0.277 HD
ENDBRANCH  26  29
ENDBRANCH  19  20
ENDBRANCH   1  19
TORSDOF 7
ENDMDL