MODEL 4
REMARK VINA RESULT: -6.065327394      3.626      5.974
REMARK  7 active torsions:
REMARK  status: ('A' for Active; 'I' for Inactive)
REMARK       I    between atoms: C1_2  and  N1_3
REMARK    1  A    between atoms: C1_2  and  C5_10
REMARK    2  A    between atoms: N1_3  and  C2_5
REMARK    3  A    between atoms: C2_5  and  C3_6
REMARK    4  A    between atoms: C3_6  and  C4_7
REMARK    5  A    between atoms: C4_7  and  O2_8
REMARK    6  A    between atoms: C9_18  and  C10_19
REMARK    7  A    between atoms: C10_19  and  C11_20
ROOT
HETATM    1  C5  UNL     1      42.011  20.395  35.710  1.00  0.00     0.067 A
HETATM    2  C6  UNL     1      43.024  20.699  34.838  1.00  0.00     0.066 A
HETATM    3 CL1  UNL     1      43.882  22.214  34.991  1.00  0.00    -0.082 Cl
HETATM    4  C7  UNL     1      43.458  19.821  33.830  1.00  0.00     0.116 A
HETATM    5  N2  UNL     1      42.841  18.641  33.742  1.00  0.00    -0.332 N
ATOM      6  H2  UNL     1      43.129  17.977  33.024  1.00  0.00     0.168 HD
HETATM    7  C8  UNL     1      41.835  18.312  34.594  1.00  0.00     0.253 A
HETATM    8  O3  UNL     1      41.342  17.178  34.408  1.00  0.00    -0.268 OA
HETATM    9  C9  UNL     1      41.382  19.154  35.595  1.00  0.00     0.032 A
ENDROOT
BRANCH   9  10
HETATM   10  C10 UNL     1      40.294  18.820  36.506  1.00  0.00     0.089 C
BRANCH  10  11
HETATM   11  C11 UNL     1      40.466  17.597  37.324  1.00  0.00     0.013 A
HETATM   12  C12 UNL     1      41.550  17.501  38.159  1.00  0.00     0.166 A
HETATM   13  F1  UNL     1      42.449  18.524  38.252  1.00  0.00    -0.202 F
HETATM   14  C13 UNL     1      41.746  16.372  38.913  1.00  0.00     0.197 A
HETATM   15  F2  UNL     1      42.812  16.287  39.730  1.00  0.00    -0.199 F
HETATM   16  C14 UNL     1      40.849  15.322  38.835  1.00  0.00     0.198 A
HETATM   17  F3  UNL     1      41.029  14.197  39.575  1.00  0.00    -0.199 F
HETATM   18  C15 UNL     1      39.748  15.382  38.006  1.00  0.00     0.180 A
HETATM   19  F4  UNL     1      38.863  14.337  37.934  1.00  0.00    -0.201 F
HETATM   20  C16 UNL     1      39.593  16.536  37.268  1.00  0.00     0.085 A
HETATM   21 CL2  UNL     1      38.176  16.603  36.209  1.00  0.00    -0.080 Cl
ENDBRANCH  10  11
ENDBRANCH   9  10
BRANCH   1  22
HETATM   22  C1  UNL     1      41.555  21.350  36.690  1.00  0.00     0.254 C
HETATM   23  O1  UNL     1      42.196  21.476  37.802  1.00  0.00    -0.268 OA
HETATM   24  N1  UNL     1      40.448  22.203  36.598  1.00  0.00    -0.357 N
ATOM     25  H1  UNL     1      39.862  22.184  35.764  1.00  0.00     0.162 HD
BRANCH  24  26
HETATM   26  C2  UNL     1      40.130  23.106  37.675  1.00  0.00     0.125 C
BRANCH  26  27
HETATM   27  C3  UNL     1      40.740  24.479  37.507  1.00  0.00     0.046 C
BRANCH  27  28
HETATM   28  C4  UNL     1      41.208  25.017  38.839  1.00  0.00     0.165 C
BRANCH  28  29
HETATM   29  O2  UNL     1      41.851  24.085  39.615  1.00  0.00    -0.401 OA
ATOM     30  H2  UNL     1      41.309  23.338  39.843  1.00  0.00     0.209 HD
ENDBRANCH  28  29
ENDBRANCH  27  28
ENDBRANCH  26  27
ENDBRANCH  24  26
ENDBRANCH   1  22
TORSDOF 7
ENDMDL