MODEL 1
REMARK VINA RESULT: -7.512722870      0.000      0.000
REMARK  9 active torsions:
REMARK  status: ('A' for Active; 'I' for Inactive)
REMARK    1  A    between atoms: C6_8  and  C7_9
REMARK    2  A    between atoms: C7_9  and  N1_10
REMARK    3  A    between atoms: N1_10  and  C8_12
REMARK    4  A    between atoms: C9_15  and  N3_16
REMARK    5  A    between atoms: N3_16  and  C10_18
REMARK    6  A    between atoms: C10_18  and  C11_19
REMARK    7  A    between atoms: N5_24  and  C13_26
REMARK    8  A    between atoms: C13_26  and  C14_27
REMARK    9  A    between atoms: C14_27  and  C15_28
ROOT
HETATM    1  C8  UNL     1      37.951  19.308  38.258  1.00  0.00     0.707 A
HETATM    2  N2  UNL     1      38.935  18.528  38.789  1.00  0.00    -0.022 N
ATOM      3  H2  UNL     1      38.723  17.583  39.109  1.00  0.00     0.203 HD
HETATM    4  C9  UNL     1      40.176  19.005  38.887  1.00  0.00     0.707 A
HETATM    5  N4  UNL     1      40.392  20.258  38.447  1.00  0.00    -0.022 N
ATOM      6  H4  UNL     1      41.342  20.623  38.522  1.00  0.00     0.203 HD
HETATM    7  C12 UNL     1      39.466  21.061  37.920  1.00  0.00     0.707 A
HETATM    8  N5  UNL     1      39.666  22.262  37.496  1.00  0.00    -0.225 N
ATOM      9  H5  UNL     1      38.889  22.796  37.108  1.00  0.00     0.177 HD
HETATM   10  N6  UNL     1      38.198  20.549  37.829  1.00  0.00    -0.022 N
ATOM     11  H6  UNL     1      37.446  21.113  37.435  1.00  0.00     0.203 HD
ENDROOT
BRANCH   1  12
HETATM   12  N1  UNL     1      36.758  18.839  38.166  1.00  0.00    -0.221 N
ATOM     13  H1  UNL     1      36.000  19.488  37.954  1.00  0.00     0.178 HD
BRANCH  12  14
HETATM   14  C7  UNL     1      36.434  17.450  38.343  1.00  0.00     0.180 C
BRANCH  14  15
HETATM   15  C6  UNL     1      35.869  17.183  39.701  1.00  0.00     0.000 A
HETATM   16  C1  UNL     1      36.185  15.995  40.338  1.00  0.00     0.145 A
HETATM   17  F1  UNL     1      37.011  15.103  39.696  1.00  0.00    -0.204 F
HETATM   18  C2  UNL     1      35.673  15.730  41.583  1.00  0.00     0.073 A
HETATM   19 CL1  UNL     1      36.085  14.214  42.382  1.00  0.00    -0.081 Cl
HETATM   20  C3  UNL     1      34.839  16.615  42.248  1.00  0.00     0.027 A
HETATM   21  C4  UNL     1      34.535  17.794  41.597  1.00  0.00     0.002 A
HETATM   22  C5  UNL     1      35.043  18.082  40.332  1.00  0.00     0.012 A
ENDBRANCH  14  15
ENDBRANCH  12  14
ENDBRANCH   1  12
BRANCH   4  23
HETATM   23  N3  UNL     1      41.166  18.348  39.371  1.00  0.00    -0.224 N
ATOM     24  H3  UNL     1      41.219  18.292  40.388  1.00  0.00     0.177 HD
BRANCH  23  25
HETATM   25  C10 UNL     1      42.193  17.695  38.651  1.00  0.00     0.153 C
BRANCH  25  26
HETATM   26  C11 UNL     1      41.861  16.198  38.604  1.00  0.00     0.135 C
HETATM   27 CL2  UNL     1      42.901  15.384  39.782  1.00  0.00    -0.129 Cl
ENDBRANCH  25  26
ENDBRANCH  23  25
ENDBRANCH   4  23
BRANCH   8  28
HETATM   28  C13 UNL     1      40.976  22.859  37.563  1.00  0.00     0.147 C
BRANCH  28  29
HETATM   29  C14 UNL     1      40.835  24.373  37.419  1.00  0.00     0.137 C
BRANCH  29  30
HETATM   30  C15 UNL     1      41.116  25.027  38.734  1.00  0.00     0.389 C
HETATM   31  F2  UNL     1      39.963  25.427  39.380  1.00  0.00    -0.171 F
HETATM   32  F3  UNL     1      41.976  26.098  38.523  1.00  0.00    -0.171 F
HETATM   33  F4  UNL     1      41.753  24.133  39.604  1.00  0.00    -0.171 F
ENDBRANCH  29  30
ENDBRANCH  28  29
ENDBRANCH   8  28
TORSDOF 9
ENDMDL