MODEL 3
REMARK VINA RESULT: -7.222608666      2.947      4.810
REMARK  7 active torsions:
REMARK  status: ('A' for Active; 'I' for Inactive)
REMARK    1  A    between atoms: C1_4  and  C2_5
REMARK    2  A    between atoms: C1_4  and  N2_17
REMARK    3  A    between atoms: C2_5  and  C3_6
REMARK    4  A    between atoms: N2_17  and  C9_19
REMARK    5  A    between atoms: C9_19  and  C10_20
REMARK    6  A    between atoms: N3_23  and  C13_24
REMARK    7  A    between atoms: C13_24  and  C14_25
ROOT
HETATM    1  N2  UNL     1      37.992  13.152  39.617  1.00  0.00    -0.359 N
ATOM      2  H2  UNL     1      37.211  13.371  38.997  1.00  0.00     0.166 HD
ENDROOT
BRANCH   1   3
HETATM    3  C1  UNL     1      39.348  13.579  39.273  1.00  0.00     0.078 C
HETATM    4  N1  UNL     1      40.291  13.214  39.949  1.00  0.00    -0.389 N
ATOM      5  H12 UNL     1      41.237  13.511  39.709  1.00  0.00     0.157 HD
ATOM      6  H11 UNL     1      40.274  12.607  40.769  1.00  0.00     0.157 HD
BRANCH   3   7
HETATM    7  C2  UNL     1      39.373  14.455  38.091  1.00  0.00     0.121 C
BRANCH   7   8
HETATM    8  C3  UNL     1      39.546  15.893  38.334  1.00  0.00     0.033 A
HETATM    9  C4  UNL     1      38.541  16.787  38.570  1.00  0.00     0.168 A
HETATM   10  F1  UNL     1      37.240  16.348  38.571  1.00  0.00    -0.202 F
HETATM   11  C5  UNL     1      38.780  18.136  38.815  1.00  0.00     0.197 A
HETATM   12  F2  UNL     1      37.788  19.034  39.046  1.00  0.00    -0.199 F
HETATM   13  C6  UNL     1      40.067  18.643  38.836  1.00  0.00     0.199 A
HETATM   14  F3  UNL     1      40.333  19.944  39.065  1.00  0.00    -0.199 F
HETATM   15  C7  UNL     1      41.080  17.772  38.602  1.00  0.00     0.197 A
HETATM   16  F4  UNL     1      42.368  18.192  38.597  1.00  0.00    -0.199 F
HETATM   17  C8  UNL     1      40.851  16.440  38.355  1.00  0.00     0.168 A
HETATM   18  F5  UNL     1      41.858  15.568  38.122  1.00  0.00    -0.202 F
ENDBRANCH   7   8
ENDBRANCH   3   7
ENDBRANCH   1   3
BRANCH   1  19
HETATM   19  C9  UNL     1      37.774  12.442  40.802  1.00  0.00     0.072 C
BRANCH  19  20
HETATM   20  C10 UNL     1      37.153  13.243  41.933  1.00  0.00     0.064 C
HETATM   21  C11 UNL     1      36.127  12.536  42.745  1.00  0.00     0.035 C
HETATM   22  C12 UNL     1      34.942  13.520  42.934  1.00  0.00     0.128 C
HETATM   23  N3  UNL     1      35.377  14.640  42.339  1.00  0.00    -0.368 N
HETATM   24  C20 UNL     1      36.349  14.401  41.361  1.00  0.00     0.073 C
BRANCH  23  25
HETATM   25  C13 UNL     1      35.220  15.977  42.734  1.00  0.00     0.104 C
BRANCH  25  26
HETATM   26  C14 UNL     1      34.521  16.760  41.688  1.00  0.00     0.020 A
HETATM   27  C15 UNL     1      35.173  17.748  40.971  1.00  0.00     0.016 A
HETATM   28  C16 UNL     1      34.475  18.633  40.145  1.00  0.00     0.003 A
HETATM   29  C17 UNL     1      33.101  18.481  40.065  1.00  0.00     0.030 A
HETATM   30  C18 UNL     1      32.431  17.519  40.748  1.00  0.00     0.085 A
HETATM   31  N4  UNL     1      31.043  17.327  40.598  1.00  0.00    -0.099 NA
HETATM   32  C19 UNL     1      33.150  16.664  41.558  1.00  0.00     0.152 A
HETATM   33  F6  UNL     1      32.496  15.666  42.231  1.00  0.00    -0.203 F
ENDBRANCH  25  26
ENDBRANCH  23  25
ENDBRANCH  19  20
ENDBRANCH   1  19
TORSDOF 7
ENDMDL