MODEL 1
REMARK VINA RESULT: -6.156919727      0.000      0.000
REMARK  8 active torsions:
REMARK  status: ('A' for Active; 'I' for Inactive)
REMARK    1  A    between atoms: C1_2  and  C2_3
REMARK       I    between atoms: C1_2  and  N2_10
REMARK    2  A    between atoms: N2_10  and  C6_11
REMARK    3  A    between atoms: N2_10  and  C13_25
REMARK    4  A    between atoms: C6_11  and  C7_12
REMARK    5  A    between atoms: C7_12  and  O2_13
REMARK    6  A    between atoms: C7_12  and  C8_15
REMARK    7  A    between atoms: C8_15  and  C9_16
REMARK    8  A    between atoms: C13_25  and  C14_26
ROOT
HETATM    1  O1  UNL     1      36.252  13.837  40.986  1.00  0.00    -0.271 OA
HETATM    2  C1  UNL     1      36.688  14.603  40.049  1.00  0.00     0.254 C
HETATM    3  N2  UNL     1      36.022  15.830  39.767  1.00  0.00    -0.319 N
ENDROOT
BRANCH   3   4
HETATM    4  C6  UNL     1      36.455  16.610  38.668  1.00  0.00     0.163 C
BRANCH   4   5
HETATM    5  C7  UNL     1      37.526  17.624  38.821  1.00  0.00     0.141 C
BRANCH   5   6
HETATM    6  O2  UNL     1      36.879  18.816  39.260  1.00  0.00    -0.394 OA
ATOM      7  H2  UNL     1      37.097  18.909  40.180  1.00  0.00     0.210 HD
ENDBRANCH   5   6
BRANCH   5   8
HETATM    8  C8  UNL     1      38.392  17.930  37.654  1.00  0.00     0.077 C
BRANCH   8   9
HETATM    9  C9  UNL     1      39.368  19.037  37.977  1.00  0.00     0.008 A
HETATM   10  C10 UNL     1      40.576  18.975  38.613  1.00  0.00     0.112 A
HETATM   11 CL1  UNL     1      41.344  17.583  39.285  1.00  0.00    -0.064 Cl
HETATM   12  N3  UNL     1      41.079  20.217  38.646  1.00  0.00    -0.336 N
HETATM   13  C11 UNL     1      40.235  21.075  38.053  1.00  0.00     0.127 A
ATOM     14  H3  UNL     1      41.975  20.473  39.062  1.00  0.00     0.168 HD
HETATM   15 CL2  UNL     1      40.470  22.822  37.855  1.00  0.00    -0.063 Cl
HETATM   16  C12 UNL     1      39.152  20.348  37.627  1.00  0.00     0.082 A
HETATM   17 CL3  UNL     1      37.752  20.993  36.786  1.00  0.00    -0.080 Cl
ENDBRANCH   8   9
ENDBRANCH   5   8
ENDBRANCH   4   5
ENDBRANCH   3   4
BRANCH   3  18
HETATM   18  C13 UNL     1      35.065  16.234  40.749  1.00  0.00     0.182 C
BRANCH  18  19
HETATM   19  C14 UNL     1      35.376  17.064  41.895  1.00  0.00     0.422 C
HETATM   20  F1  UNL     1      34.443  18.040  42.216  1.00  0.00    -0.166 F
HETATM   21  F2  UNL     1      36.618  17.514  42.137  1.00  0.00    -0.166 F
HETATM   22  F3  UNL     1      35.171  16.157  43.033  1.00  0.00    -0.166 F
ENDBRANCH  18  19
ENDBRANCH   3  18
BRANCH   2  23
HETATM   23  C2  UNL     1      37.859  14.129  39.340  1.00  0.00     0.277 C
HETATM   24  C3  UNL     1      38.716  13.147  40.162  1.00  0.00     0.044 C
HETATM   25  C4  UNL     1      39.638  12.616  39.052  1.00  0.00     0.030 C
HETATM   26  C5  UNL     1      38.724  12.572  37.874  1.00  0.00     0.233 C
HETATM   27  N1  UNL     1      37.469  13.157  38.281  1.00  0.00    -0.062 N
ATOM     28  H12 UNL     1      36.762  12.480  38.569  1.00  0.00     0.278 HD
ATOM     29  H11 UNL     1      36.925  13.561  37.518  1.00  0.00     0.278 HD
ENDBRANCH   2  23
TORSDOF 8
ENDMDL