MODEL 2
REMARK VINA RESULT: -7.607596698      0.057      1.509
REMARK  7 active torsions:
REMARK  status: ('A' for Active; 'I' for Inactive)
REMARK    1  A    between atoms: C3_4  and  C4_5
REMARK    2  A    between atoms: C4_5  and  C5_6
REMARK    3  A    between atoms: C12_15  and  C13_16
REMARK    4  A    between atoms: C13_16  and  O2_17
REMARK    5  A    between atoms: C13_16  and  N1_19
REMARK    6  A    between atoms: N1_19  and  C14_21
REMARK    7  A    between atoms: C14_21  and  C15_22
ROOT
HETATM    1  O1  UNL     1      37.092  15.396  37.019  1.00  0.00    -0.268 OA
HETATM    2  C1  UNL     1      37.131  16.379  37.780  1.00  0.00     0.246 A
HETATM    3  C2  UNL     1      36.663  16.361  39.080  1.00  0.00     0.081 A
HETATM    4  C3  UNL     1      36.741  17.512  39.839  1.00  0.00    -0.046 A
HETATM    5  C11 UNL     1      37.286  18.653  39.266  1.00  0.00     0.041 A
HETATM    6  C12 UNL     1      37.732  18.632  37.993  1.00  0.00     0.086 A
HETATM    7  N2  UNL     1      37.662  17.525  37.249  1.00  0.00    -0.320 N
ATOM      8  H2  UNL     1      38.004  17.533  36.288  1.00  0.00     0.169 HD
ENDROOT
BRANCH   6   9
HETATM    9  C13 UNL     1      38.348  19.881  37.440  1.00  0.00     0.167 C
BRANCH   9  10
HETATM   10  O2  UNL     1      38.163  21.021  38.093  1.00  0.00    -0.344 OA
ATOM     11  H2  UNL     1      37.495  21.620  37.779  1.00  0.00     0.219 HD
ENDBRANCH   9  10
BRANCH   9  12
HETATM   12  N1  UNL     1      39.632  19.601  36.898  1.00  0.00    -0.342 N
ATOM     13  H1  UNL     1      39.761  19.274  35.940  1.00  0.00     0.167 HD
BRANCH  12  14
HETATM   14  C14 UNL     1      40.709  19.807  37.772  1.00  0.00     0.131 C
BRANCH  14  15
HETATM   15  C15 UNL     1      41.682  18.708  37.656  1.00  0.00     0.135 A
HETATM   16  O3  UNL     1      42.589  18.443  36.800  1.00  0.00    -0.277 OA
HETATM   17  C16 UNL     1      43.366  17.386  36.818  1.00  0.00     0.273 A
HETATM   18  F3  UNL     1      44.325  17.156  35.851  1.00  0.00    -0.174 F
HETATM   19  C17 UNL     1      43.242  16.428  37.825  1.00  0.00     0.221 A
HETATM   20  F4  UNL     1      44.012  15.305  37.874  1.00  0.00    -0.197 F
HETATM   21  C18 UNL     1      42.285  16.643  38.799  1.00  0.00     0.201 A
HETATM   22  F5  UNL     1      42.054  15.777  39.834  1.00  0.00    -0.199 F
HETATM   23  C19 UNL     1      41.525  17.758  38.715  1.00  0.00     0.193 A
HETATM   24  F6  UNL     1      40.596  18.060  39.644  1.00  0.00    -0.200 F
ENDBRANCH  14  15
ENDBRANCH  12  14
ENDBRANCH   9  12
ENDBRANCH   6   9
BRANCH   4  25
HETATM   25  C4  UNL     1      36.269  17.575  41.259  1.00  0.00     0.077 C
BRANCH  25  26
HETATM   26  C5  UNL     1      34.766  17.463  41.213  1.00  0.00    -0.048 A
HETATM   27  C6  UNL     1      34.089  16.443  41.861  1.00  0.00     0.049 A
HETATM   28  C7  UNL     1      32.692  16.297  41.779  1.00  0.00     0.119 A
HETATM   29  F1  UNL     1      32.120  15.263  42.459  1.00  0.00    -0.206 F
HETATM   30  C8  UNL     1      32.009  17.209  41.029  1.00  0.00     0.084 A
HETATM   31  C9  UNL     1      32.645  18.242  40.376  1.00  0.00     0.119 A
HETATM   32  F2  UNL     1      31.880  19.107  39.652  1.00  0.00    -0.206 F
HETATM   33  C10 UNL     1      34.021  18.367  40.470  1.00  0.00     0.049 A
ENDBRANCH  25  26
ENDBRANCH   4  25
TORSDOF 7
ENDMDL