MODEL 5
REMARK VINA RESULT: -6.793561245      2.122      2.679
REMARK  7 active torsions:
REMARK  status: ('A' for Active; 'I' for Inactive)
REMARK    1  A    between atoms: C5_6  and  N1_7
REMARK    2  A    between atoms: N1_7  and  C6_9
REMARK    3  A    between atoms: C6_9  and  C7_10
REMARK    4  A    between atoms: C7_10  and  C8_11
REMARK    5  A    between atoms: C8_11  and  N2_12
REMARK       I    between atoms: N2_12  and  C9_14
REMARK       I    between atoms: C9_14  and  N3_16
REMARK    6  A    between atoms: N3_16  and  C10_18
REMARK    7  A    between atoms: C10_18  and  C11_19
ROOT
HETATM    1  N2  UNL     1      40.680  15.347  38.426  1.00  0.00    -0.343 N
ATOM      2  H2  UNL     1      41.075  14.660  39.067  1.00  0.00     0.164 HD
HETATM    3  C9  UNL     1      39.273  15.453  38.263  1.00  0.00     0.320 C
HETATM    4  O1  UNL     1      38.795  16.304  37.470  1.00  0.00    -0.247 OA
HETATM    5  N3  UNL     1      38.360  14.602  38.992  1.00  0.00    -0.318 N
ATOM      6  H3  UNL     1      38.697  13.897  39.648  1.00  0.00     0.170 HD
ENDROOT
BRANCH   1   7
HETATM    7  C8  UNL     1      41.531  16.213  37.680  1.00  0.00     0.126 C
BRANCH   7   8
HETATM    8  C7  UNL     1      42.244  17.233  38.520  1.00  0.00     0.039 C
BRANCH   8   9
HETATM    9  C6  UNL     1      41.277  18.117  39.292  1.00  0.00     0.123 C
BRANCH   9  10
HETATM   10  N1  UNL     1      40.534  18.879  38.354  1.00  0.00    -0.374 N
ATOM     11  H1  UNL     1      39.900  18.356  37.750  1.00  0.00     0.161 HD
BRANCH  10  12
HETATM   12  C5  UNL     1      40.566  20.140  38.180  1.00  0.00     0.138 A
HETATM   13  C4  UNL     1      39.507  20.815  37.607  1.00  0.00     0.081 A
HETATM   14  C3  UNL     1      39.542  22.194  37.416  1.00  0.00     0.053 A
HETATM   15 CL1  UNL     1      38.111  19.879  37.127  1.00  0.00    -0.080 Cl
HETATM   16  C2  UNL     1      40.659  22.904  37.806  1.00  0.00     0.023 A
HETATM   17  C1  UNL     1      40.743  24.387  37.621  1.00  0.00     0.070 C
HETATM   18  N5  UNL     1      41.662  22.200  38.358  1.00  0.00    -0.304 N
HETATM   19  N4  UNL     1      41.628  20.879  38.541  1.00  0.00    -0.284 N
ATOM     20  H5  UNL     1      42.497  22.705  38.652  1.00  0.00     0.186 HD
ATOM     21  H4  UNL     1      42.432  20.417  38.967  1.00  0.00     0.188 HD
ENDBRANCH  10  12
ENDBRANCH   9  10
ENDBRANCH   8   9
ENDBRANCH   7   8
ENDBRANCH   1   7
BRANCH   5  22
HETATM   22  C10 UNL     1      36.992  14.788  38.760  1.00  0.00     0.110 C
BRANCH  22  23
HETATM   23  C11 UNL     1      36.248  15.723  39.572  1.00  0.00     0.063 A
HETATM   24  C12 UNL     1      35.958  15.305  40.893  1.00  0.00     0.172 A
HETATM   25  F1  UNL     1      36.382  14.095  41.305  1.00  0.00    -0.202 F
HETATM   26  C13 UNL     1      35.265  16.079  41.778  1.00  0.00     0.197 A
HETATM   27  F2  UNL     1      35.023  15.605  43.042  1.00  0.00    -0.199 F
HETATM   28  C14 UNL     1      34.817  17.322  41.389  1.00  0.00     0.199 A
HETATM   29  F3  UNL     1      34.127  18.073  42.292  1.00  0.00    -0.199 F
HETATM   30  C15 UNL     1      35.070  17.775  40.121  1.00  0.00     0.197 A
HETATM   31  F4  UNL     1      34.627  19.007  39.734  1.00  0.00    -0.199 F
HETATM   32  C16 UNL     1      35.785  16.954  39.241  1.00  0.00     0.172 A
HETATM   33  F5  UNL     1      35.966  17.526  38.013  1.00  0.00    -0.202 F
ENDBRANCH  22  23
ENDBRANCH   5  22
TORSDOF 7
ENDMDL