MODEL 4
REMARK VINA RESULT: -7.742997850      1.001      1.983
REMARK  7 active torsions:
REMARK  status: ('A' for Active; 'I' for Inactive)
REMARK    1  A    between atoms: C1_4  and  C2_6
REMARK    2  A    between atoms: C4_10  and  N4_11
REMARK    3  A    between atoms: N4_11  and  C5_13
REMARK    4  A    between atoms: C5_13  and  C6_14
REMARK    5  A    between atoms: C9_17  and  C10_18
REMARK    6  A    between atoms: C10_18  and  C11_19
REMARK    7  A    between atoms: C11_19  and  C12_20
ROOT
HETATM    1  C6  UNL     1      39.636  20.283  36.941  1.00  0.00    -0.025 A
HETATM    2  C7  UNL     1      40.077  19.184  37.643  1.00  0.00     0.012 A
HETATM    3  C8  UNL     1      39.246  18.551  38.542  1.00  0.00     0.025 A
HETATM    4  C9  UNL     1      37.947  19.000  38.767  1.00  0.00     0.009 A
HETATM    5  N5  UNL     1      37.545  20.076  38.067  1.00  0.00    -0.369 N
ATOM      6  H5  UNL     1      36.599  20.428  38.211  1.00  0.00     0.165 HD
HETATM    7  C18 UNL     1      38.350  20.712  37.177  1.00  0.00     0.096 A
ENDROOT
BRANCH   1   8
HETATM    8  C5  UNL     1      40.564  20.955  35.965  1.00  0.00     0.161 C
BRANCH   8   9
HETATM    9  N4  UNL     1      41.841  21.167  36.569  1.00  0.00    -0.369 N
ATOM     10  H4  UNL     1      41.885  21.219  37.587  1.00  0.00     0.161 HD
BRANCH   9  11
HETATM   11  C4  UNL     1      42.924  21.293  35.918  1.00  0.00     0.140 A
HETATM   12  N3  UNL     1      43.495  22.437  35.517  1.00  0.00    -0.349 N
HETATM   13  C3  UNL     1      44.653  22.439  34.822  1.00  0.00     0.104 A
ATOM     14  H3  UNL     1      43.046  23.325  35.742  1.00  0.00     0.167 HD
HETATM   15  C2  UNL     1      45.335  21.296  34.472  1.00  0.00     0.023 A
HETATM   16  C20 UNL     1      44.780  20.108  34.864  1.00  0.00     0.062 A
HETATM   17  C19 UNL     1      43.586  20.121  35.580  1.00  0.00     0.161 A
HETATM   18  F5  UNL     1      43.079  18.939  35.946  1.00  0.00    -0.202 F
BRANCH  15  19
HETATM   19  C1  UNL     1      46.592  21.398  33.709  1.00  0.00     0.121 C
HETATM   20  N1  UNL     1      46.800  22.369  32.913  1.00  0.00    -0.387 N
ATOM     21  H12 UNL     1      47.670  22.439  32.385  1.00  0.00     0.157 HD
ATOM     22  H11 UNL     1      46.117  23.111  32.765  1.00  0.00     0.157 HD
HETATM   23  N2  UNL     1      47.549  20.359  33.915  1.00  0.00    -0.082 NA
ENDBRANCH  15  19
ENDBRANCH   9  11
ENDBRANCH   8   9
ENDBRANCH   1   8
BRANCH   4  24
HETATM   24  C10 UNL     1      37.084  18.297  39.739  1.00  0.00     0.062 C
BRANCH  24  25
HETATM   25  C11 UNL     1      36.003  17.476  39.081  1.00  0.00     0.051 C
BRANCH  25  26
HETATM   26  C12 UNL     1      35.216  16.836  40.177  1.00  0.00     0.023 A
HETATM   27  C13 UNL     1      35.664  15.672  40.793  1.00  0.00     0.128 A
HETATM   28  F1  UNL     1      36.833  15.123  40.380  1.00  0.00    -0.205 F
HETATM   29  C14 UNL     1      34.931  15.094  41.804  1.00  0.00     0.088 A
HETATM   30  C15 UNL     1      33.754  15.685  42.188  1.00  0.00     0.161 A
HETATM   31  F2  UNL     1      33.026  15.116  43.187  1.00  0.00    -0.203 F
HETATM   32  C16 UNL     1      33.296  16.838  41.588  1.00  0.00     0.194 A
HETATM   33  F3  UNL     1      32.131  17.406  41.982  1.00  0.00    -0.200 F
HETATM   34  C17 UNL     1      34.033  17.418  40.573  1.00  0.00     0.167 A
HETATM   35  F4  UNL     1      33.593  18.565  39.965  1.00  0.00    -0.202 F
ENDBRANCH  25  26
ENDBRANCH  24  25
ENDBRANCH   4  24
TORSDOF 7
ENDMDL