MODEL 5
REMARK VINA RESULT: -3.883689993      1.465      3.003
REMARK  2 active torsions:
REMARK  status: ('A' for Active; 'I' for Inactive)
REMARK    1  A    between atoms: C2_2  and  N1_4
REMARK    2  A    between atoms: C2_2  and  N2_8
ROOT
HETATM    1  C1  UNL     1      11.036  33.022  26.002  1.00  0.00     0.081 C
HETATM    2  C2  UNL     1      10.940  31.519  25.666  1.00  0.00     0.311 C
HETATM    3  C3  UNL     1      12.187  31.184  24.888  1.00  0.00     0.081 C
ENDROOT
BRANCH   2   4
HETATM    4  N1  UNL     1      11.048  30.842  26.953  1.00  0.00    -0.043 N
ATOM      5  H13 UNL     1      12.005  30.742  27.290  1.00  0.00     0.277 HD
ATOM      6  H12 UNL     1      10.703  31.391  27.740  1.00  0.00     0.277 HD
ATOM      7  H11 UNL     1      10.561  29.955  26.823  1.00  0.00     0.277 HD
ENDBRANCH   2   4
BRANCH   2   8
HETATM    8  N2  UNL     1       9.711  31.325  25.021  1.00  0.00     0.128 N
HETATM    9  C4  UNL     1       8.440  31.439  25.632  1.00  0.00     0.306 A
HETATM   10  C5  UNL     1       8.879  32.325  24.455  1.00  0.00     0.306 A
ENDBRANCH   2   8
TORSDOF 2
ENDMDL