MODEL 4
REMARK VINA RESULT: -4.322447335      1.401      1.710
REMARK  2 active torsions:
REMARK  status: ('A' for Active; 'I' for Inactive)
REMARK    1  A    between atoms: C2_2  and  N1_3
REMARK    2  A    between atoms: C5_6  and  N2_7
ROOT
HETATM    1  N1  UNL     1      10.507  32.294  24.923  1.00  0.00     0.090 N
HETATM    2  C3  UNL     1       9.081  32.323  24.904  1.00  0.00     0.274 C
HETATM    3  C4  UNL     1       8.803  33.743  25.389  1.00  0.00     0.064 C
HETATM    4  C5  UNL     1       9.800  33.849  26.541  1.00  0.00     0.213 C
HETATM    5  C6  UNL     1      10.948  32.954  26.111  1.00  0.00     0.305 C
ENDROOT
BRANCH   4   6
HETATM    6  N2  UNL     1      10.305  35.220  26.611  1.00  0.00    -0.073 N
ATOM      7  H23 UNL     1       9.613  35.905  26.306  1.00  0.00     0.274 HD
ATOM      8  H22 UNL     1      10.414  35.545  27.572  1.00  0.00     0.274 HD
ATOM      9  H21 UNL     1      11.174  35.283  26.080  1.00  0.00     0.274 HD
ENDBRANCH   4   6
BRANCH   1  10
HETATM   10  C2  UNL     1      11.124  31.043  24.655  1.00  0.00     0.268 C
HETATM   11  C1  UNL     1      10.238  30.232  23.738  1.00  0.00     0.037 C
ENDBRANCH   1  10
TORSDOF 2
ENDMDL