MODEL 1
REMARK VINA RESULT: -4.629288542      0.000      0.000
REMARK  2 active torsions:
REMARK  status: ('A' for Active; 'I' for Inactive)
REMARK    1  A    between atoms: N1_1  and  C1_5
REMARK    2  A    between atoms: C1_5  and  C2_6
ROOT
HETATM    1  C2  UNL     1       8.855  32.924  25.866  1.00  0.00     0.281 A
HETATM    2  C3  UNL     1       8.951  32.114  24.736  1.00  0.00     0.258 A
HETATM    3  C4  UNL     1      10.098  31.283  24.226  1.00  0.00     0.040 C
HETATM    4  C5  UNL     1       9.625  29.921  24.776  1.00  0.00     0.032 C
HETATM    5  C6  UNL     1       8.890  30.366  26.053  1.00  0.00     0.273 C
HETATM    6  N2  UNL     1       9.253  31.679  26.195  1.00  0.00     0.103 N
ENDROOT
BRANCH   1   7
HETATM    7  C1  UNL     1       9.851  34.070  26.129  1.00  0.00     0.267 C
BRANCH   7   8
HETATM    8  N1  UNL     1      11.005  33.562  26.873  1.00  0.00    -0.077 N
ATOM      9  H13 UNL     1      10.941  33.769  27.870  1.00  0.00     0.274 HD
ATOM     10  H12 UNL     1      11.004  32.544  26.934  1.00  0.00     0.274 HD
ATOM     11  H11 UNL     1      11.866  33.921  26.461  1.00  0.00     0.274 HD
ENDBRANCH   7   8
ENDBRANCH   1   7
TORSDOF 2
ENDMDL