MODEL 3
REMARK VINA RESULT: -4.442180712      1.566      2.189
REMARK  2 active torsions:
REMARK  status: ('A' for Active; 'I' for Inactive)
REMARK    1  A    between atoms: C3_3  and  N1_4
REMARK    2  A    between atoms: C5_6  and  N2_7
ROOT
HETATM    1  C1  UNL     1      10.435  30.128  23.900  1.00  0.00     0.013 C
HETATM    2  C2  UNL     1       9.752  31.120  24.069  1.00  0.00    -0.087 C
HETATM    3  C3  UNL     1       8.917  32.278  24.296  1.00  0.00     0.365 C
ENDROOT
BRANCH   3   4
HETATM    4  N1  UNL     1       9.076  32.909  25.559  1.00  0.00     0.103 N
HETATM    5  C4  UNL     1       8.567  34.247  25.715  1.00  0.00     0.308 C
HETATM    6  C5  UNL     1       9.646  34.402  26.785  1.00  0.00     0.240 C
HETATM    7  C6  UNL     1      10.383  33.467  25.848  1.00  0.00     0.308 C
BRANCH   6   8
HETATM    8  N2  UNL     1      10.228  35.711  26.860  1.00  0.00    -0.072 N
ATOM      9  H23 UNL     1       9.513  36.426  26.730  1.00  0.00     0.274 HD
ATOM     10  H22 UNL     1      10.513  35.918  27.817  1.00  0.00     0.274 HD
ATOM     11  H21 UNL     1      11.005  35.866  26.217  1.00  0.00     0.274 HD
ENDBRANCH   6   8
ENDBRANCH   3   4
TORSDOF 2
ENDMDL