MODEL 3
REMARK VINA RESULT: -4.505217525      2.913      3.598
REMARK  3 active torsions:
REMARK  status: ('A' for Active; 'I' for Inactive)
REMARK    1  A    between atoms: C4_5  and  N2_6
REMARK    2  A    between atoms: N2_6  and  N3_8
REMARK    3  A    between atoms: N3_8  and  N4_9
ROOT
HETATM    1  N2  UNL     1       8.011  30.382  26.161  1.00  0.00    -0.219 N
ATOM      2  H2  UNL     1       8.167  29.416  25.871  1.00  0.00     0.199 HD
ENDROOT
BRANCH   1   3
HETATM    3  C4  UNL     1       8.693  31.474  25.508  1.00  0.00     0.342 A
HETATM    4  N1  UNL     1      10.091  31.684  25.697  1.00  0.00    -0.046 N
HETATM    5  C1  UNL     1      10.506  33.063  25.842  1.00  0.00     0.274 C
HETATM    6  C2  UNL     1      10.925  30.736  26.363  1.00  0.00     0.274 C
HETATM    7  C3  UNL     1       9.628  31.238  24.380  1.00  0.00     0.296 A
ENDBRANCH   1   3
BRANCH   1   8
HETATM    8  N3  UNL     1       7.160  30.677  27.170  1.00  0.00    -0.246 NA
BRANCH   8   9
HETATM    9  N4  UNL     1       6.439  30.910  28.003  1.00  0.00    -0.261 N
ATOM     10  H42 UNL     1       6.435  30.425  27.105  1.00  0.00     0.193 HD
ATOM     11  H41 UNL     1       5.798  31.129  28.765  1.00  0.00     0.193 HD
ENDBRANCH   8   9
ENDBRANCH   1   8
TORSDOF 3
ENDMDL