MODEL 3
REMARK VINA RESULT: -5.049566385      1.456      1.744
REMARK  2 active torsions:
REMARK  status: ('A' for Active; 'I' for Inactive)
REMARK    1  A    between atoms: C3_3  and  C4_4
REMARK    2  A    between atoms: C5_6  and  N1_8
ROOT
HETATM    1  C1  UNL     1       9.210  32.452  24.585  1.00  0.00     0.012 C
HETATM    2  C2  UNL     1       9.545  31.320  24.326  1.00  0.00    -0.115 C
HETATM    3  C3  UNL     1       9.978  29.938  24.017  1.00  0.00     0.130 C
ENDROOT
BRANCH   3   4
HETATM    4  C4  UNL     1      11.432  29.926  23.615  1.00  0.00     0.198 A
HETATM    5  O1  UNL     1      12.050  28.638  23.985  1.00  0.00    -0.342 OA
HETATM    6  C5  UNL     1      12.009  29.107  22.618  1.00  0.00     0.248 A
HETATM    7  C6  UNL     1      11.275  28.139  21.734  1.00  0.00     0.081 C
BRANCH   6   8
HETATM    8  N1  UNL     1      13.328  29.444  22.112  1.00  0.00    -0.045 N
ATOM      9  H13 UNL     1      13.870  28.588  22.009  1.00  0.00     0.278 HD
ATOM     10  H12 UNL     1      13.242  29.742  21.140  1.00  0.00     0.278 HD
ATOM     11  H11 UNL     1      13.888  30.130  22.618  1.00  0.00     0.278 HD
ENDBRANCH   6   8
ENDBRANCH   3   4
TORSDOF 2
ENDMDL