MODEL 1
REMARK VINA RESULT: -3.766105081      0.000      0.000
REMARK  1 active torsions:
REMARK  status: ('A' for Active; 'I' for Inactive)
REMARK    1  A    between atoms: N1_2  and  C2_5
ROOT
HETATM    1  C2  UNL     1      11.101  32.612  25.747  1.00  0.00     0.241 A
HETATM    2  C3  UNL     1       9.852  32.388  24.971  1.00  0.00     0.306 A
HETATM    3  N2  UNL     1       9.716  31.020  25.449  1.00  0.00     0.088 N
HETATM    4  C4  UNL     1       8.570  30.775  26.310  1.00  0.00     0.310 C
HETATM    5  C5  UNL     1      10.945  31.202  26.199  1.00  0.00     0.306 A
ENDROOT
BRANCH   1   6
HETATM    6  N1  UNL     1      11.012  33.545  26.845  1.00  0.00    -0.071 N
HETATM    7  C1  UNL     1       9.956  34.520  26.643  1.00  0.00     0.267 C
ATOM      8  H12 UNL     1      11.909  34.000  27.018  1.00  0.00     0.277 HD
ATOM      9  H11 UNL     1      10.903  33.060  27.736  1.00  0.00     0.277 HD
ENDBRANCH   1   6
TORSDOF 1
ENDMDL