MODEL 2
REMARK VINA RESULT: -4.387956703      1.390      2.143
REMARK  2 active torsions:
REMARK  status: ('A' for Active; 'I' for Inactive)
REMARK    1  A    between atoms: C4_6  and  C5_7
REMARK    2  A    between atoms: C5_7  and  O2_8
ROOT
HETATM    1  C1  UNL     1      10.047  31.827  26.478  1.00  0.00     0.278 C
HETATM    2  N1  UNL     1       8.661  31.364  26.388  1.00  0.00    -0.026 N
HETATM    3  C2  UNL     1       8.588  30.060  25.888  1.00  0.00     0.278 C
HETATM    4  C3  UNL     1       7.944  32.297  25.495  1.00  0.00     0.409 C
HETATM    5  O1  UNL     1       6.822  32.027  26.316  1.00  0.00    -0.329 OA
HETATM    6  C4  UNL     1       7.767  31.876  27.333  1.00  0.00     0.352 C
ENDROOT
BRANCH   6   7
HETATM    7  C5  UNL     1       7.361  31.134  28.532  1.00  0.00     0.226 C
BRANCH   7   8
HETATM    8  O2  UNL     1       6.190  30.423  28.466  1.00  0.00    -0.397 OA
ATOM      9  H2  UNL     1       6.120  29.648  29.010  1.00  0.00     0.209 HD
ENDBRANCH   7   8
ENDBRANCH   6   7
TORSDOF 2
ENDMDL