MODEL 2
REMARK VINA RESULT: -4.438697170      3.400      3.795
REMARK  3 active torsions:
REMARK  status: ('A' for Active; 'I' for Inactive)
REMARK    1  A    between atoms: N1_1  and  N2_4
REMARK    2  A    between atoms: C1_6  and  C2_7
REMARK    3  A    between atoms: C4_10  and  N3_11
ROOT
HETATM    1  C2  UNL     1       8.631  35.553  27.956  1.00  0.00     0.193 C
HETATM    2  O1  UNL     1       8.600  36.777  28.622  1.00  0.00    -0.376 OA
HETATM    3  C3  UNL     1       8.515  36.120  29.865  1.00  0.00     0.204 C
HETATM    4  C4  UNL     1       9.119  34.916  29.220  1.00  0.00     0.240 C
ENDROOT
BRANCH   1   5
HETATM    5  C1  UNL     1       9.613  35.488  26.843  1.00  0.00     0.113 C
HETATM    6  N2  UNL     1      10.524  34.623  26.875  1.00  0.00    -0.320 N
ATOM      7  H2  UNL     1      11.256  35.078  27.421  1.00  0.00     0.185 HD
BRANCH   6   8
HETATM    8  N1  UNL     1      11.023  33.510  26.602  1.00  0.00    -0.346 N
ATOM      9  H12 UNL     1      10.359  32.887  27.063  1.00  0.00     0.176 HD
ATOM     10  H11 UNL     1      11.721  32.899  26.177  1.00  0.00     0.176 HD
ENDBRANCH   6   8
ENDBRANCH   1   5
BRANCH   4  11
HETATM   11  N3  UNL     1       8.551  33.644  29.552  1.00  0.00    -0.070 N
ATOM     12  H33 UNL     1       7.619  33.777  29.947  1.00  0.00     0.274 HD
ATOM     13  H32 UNL     1       8.320  33.136  28.698  1.00  0.00     0.274 HD
ATOM     14  H31 UNL     1       9.104  33.048  30.168  1.00  0.00     0.274 HD
ENDBRANCH   4  11
TORSDOF 3
ENDMDL