MODEL 3
REMARK VINA RESULT: -3.788880572      1.187      1.721
REMARK  2 active torsions:
REMARK  status: ('A' for Active; 'I' for Inactive)
REMARK    1  A    between atoms: C4_5  and  C5_6
REMARK    2  A    between atoms: C5_6  and  N2_7
ROOT
HETATM    1  C1  UNL     1      12.250  29.996  25.634  1.00  0.00     0.310 C
HETATM    2  N1  UNL     1      10.900  30.365  25.293  1.00  0.00     0.090 N
HETATM    3  C2  UNL     1      10.589  30.250  23.859  1.00  0.00     0.274 C
HETATM    4  C3  UNL     1       9.626  31.413  24.110  1.00  0.00     0.067 C
HETATM    5  C4  UNL     1      10.748  31.812  25.079  1.00  0.00     0.249 C
ENDROOT
BRANCH   5   6
HETATM    6  C5  UNL     1      10.274  32.494  26.320  1.00  0.00     0.265 C
BRANCH   6   7
HETATM    7  N2  UNL     1      11.100  33.622  26.659  1.00  0.00    -0.077 N
ATOM      8  H23 UNL     1      12.089  33.413  26.523  1.00  0.00     0.274 HD
ATOM      9  H22 UNL     1      11.000  34.374  25.976  1.00  0.00     0.274 HD
ATOM     10  H21 UNL     1      10.918  33.954  27.606  1.00  0.00     0.274 HD
ENDBRANCH   6   7
ENDBRANCH   5   6
TORSDOF 2
ENDMDL