MODEL 5
REMARK VINA RESULT: -7.232711797      2.852      7.024
REMARK  11 active torsions:
REMARK  status: ('A' for Active; 'I' for Inactive)
REMARK    1  A    between atoms: N1_2  and  C2_5
REMARK    2  A    between atoms: C2_5  and  C4_7
REMARK       I    between atoms: C4_7  and  N2_9
REMARK    3  A    between atoms: N2_9  and  C5_11
REMARK    4  A    between atoms: C5_11  and  C6_12
REMARK    5  A    between atoms: C5_11  and  C26_40
REMARK       I    between atoms: C6_12  and  N3_14
REMARK    6  A    between atoms: N3_14  and  C7_16
REMARK    7  A    between atoms: C7_16  and  C8_17
REMARK    8  A    between atoms: C14_25  and  C15_26
REMARK    9  A    between atoms: C15_26  and  C16_27
REMARK   10  A    between atoms: C23_34  and  C24_35
REMARK   11  A    between atoms: C24_35  and  C25_36
ROOT
HETATM    1  C7  UNL     1      -0.806  37.539  67.706  1.00  0.00     0.094 C
HETATM    2  C14 UNL     1      -1.945  37.497  68.705  1.00  0.00    -0.029 C
HETATM    3  C19 UNL     1      -2.452  38.831  68.585  1.00  0.00     0.006 C
HETATM    4  C20 UNL     1      -2.581  39.730  68.238  1.00  0.00    -0.026 C
HETATM    5  C21 UNL     1      -2.378  40.824  67.440  1.00  0.00     0.027 C
HETATM    6  C22 UNL     1      -1.012  40.085  66.816  1.00  0.00     0.012 C
HETATM    7  C23 UNL     1      -1.134  38.637  66.673  1.00  0.00     0.028 C
ENDROOT
BRANCH   1   8
HETATM    8  N3  UNL     1      -0.795  36.299  66.915  1.00  0.00    -0.341 N
HETATM    9  C6  UNL     1      -0.534  35.007  67.390  1.00  0.00     0.242 C
HETATM   10  O2  UNL     1      -0.260  34.664  68.566  1.00  0.00    -0.271 OA
ATOM     11  H3  UNL     1      -0.998  36.389  65.920  1.00  0.00     0.164 HD
BRANCH   9  12
HETATM   12  C5  UNL     1      -0.585  33.851  66.434  1.00  0.00     0.180 C
BRANCH  12  13
HETATM   13  N2  UNL     1      -0.249  34.254  65.084  1.00  0.00    -0.346 N
HETATM   14  C4  UNL     1       0.829  33.648  64.399  1.00  0.00     0.248 C
HETATM   15  O1  UNL     1       1.523  32.735  64.945  1.00  0.00    -0.271 OA
ATOM     16  H2  UNL     1      -0.795  34.982  64.623  1.00  0.00     0.163 HD
BRANCH  14  17
HETATM   17  C2  UNL     1       1.149  34.091  63.023  1.00  0.00     0.272 C
HETATM   18  C3  UNL     1       2.273  33.299  62.427  1.00  0.00     0.050 C
BRANCH  17  19
HETATM   19  N1  UNL     1       1.349  35.528  62.960  1.00  0.00    -0.067 N
HETATM   20  C1  UNL     1       2.649  35.824  63.505  1.00  0.00     0.267 C
ATOM     21  H12 UNL     1       0.603  36.050  63.418  1.00  0.00     0.277 HD
ATOM     22  H11 UNL     1       1.222  35.903  62.019  1.00  0.00     0.277 HD
ENDBRANCH  17  19
ENDBRANCH  14  17
ENDBRANCH  12  13
BRANCH  12  23
HETATM   23  C26 UNL     1      -1.948  33.223  66.343  1.00  0.00     0.009 C
HETATM   24  C27 UNL     1      -2.775  33.878  65.234  1.00  0.00     0.012 C
HETATM   25  C28 UNL     1      -1.922  31.750  66.164  1.00  0.00     0.012 C
ENDBRANCH  12  23
ENDBRANCH   9  12
ENDBRANCH   1   8
BRANCH   1  26
HETATM   26  C8  UNL     1       0.585  37.593  68.204  1.00  0.00     0.017 A
HETATM   27  C9  UNL     1       0.943  37.643  69.541  1.00  0.00     0.013 A
HETATM   28  C10 UNL     1       2.247  37.728  69.950  1.00  0.00     0.004 A
HETATM   29  C11 UNL     1       3.281  37.773  69.046  1.00  0.00     0.045 A
HETATM   30  C12 UNL     1       2.947  37.728  67.713  1.00  0.00     0.155 A
HETATM   31  F1  UNL     1       3.966  37.772  66.784  1.00  0.00    -0.203 F
HETATM   32  C13 UNL     1       1.626  37.641  67.306  1.00  0.00     0.164 A
HETATM   33  F2  UNL     1       1.466  37.658  65.956  1.00  0.00    -0.202 F
ENDBRANCH   1  26
BRANCH   2  34
HETATM   34  C15 UNL     1      -2.475  36.771  69.755  1.00  0.00    -0.013 C
BRANCH  34  35
HETATM   35  C16 UNL     1      -3.489  35.633  69.566  1.00  0.00     0.000 C
HETATM   36  C17 UNL     1      -4.162  35.784  68.215  1.00  0.00     0.013 C
HETATM   37  C18 UNL     1      -4.625  35.885  70.574  1.00  0.00     0.013 C
ENDBRANCH  34  35
ENDBRANCH   2  34
BRANCH   7  38
HETATM   38  C24 UNL     1      -2.298  38.268  65.813  1.00  0.00     0.051 C
BRANCH  38  39
HETATM   39  C25 UNL     1      -1.933  38.302  64.382  1.00  0.00     0.053 C
HETATM   40  N4  UNL     1      -1.926  37.226  63.710  1.00  0.00    -0.411 N
ATOM     41  H42 UNL     1      -2.174  36.350  64.170  1.00  0.00     0.155 HD
ATOM     42  H41 UNL     1      -1.673  37.250  62.722  1.00  0.00     0.155 HD
ENDBRANCH  38  39
ENDBRANCH   7  38
TORSDOF 11
ENDMDL