MODEL 1
REMARK VINA RESULT: -7.458352042      0.000      0.000
REMARK  12 active torsions:
REMARK  status: ('A' for Active; 'I' for Inactive)
REMARK    1  A    between atoms: C2_2  and  C4_4
REMARK    2  A    between atoms: C4_4  and  C5_6
REMARK    3  A    between atoms: C5_6  and  C6_7
REMARK    4  A    between atoms: C6_7  and  N1_8
REMARK    5  A    between atoms: C6_7  and  C9_15
REMARK       I    between atoms: N1_8  and  C7_10
REMARK    6  A    between atoms: C7_10  and  C8_12
REMARK    7  A    between atoms: C10_16  and  O3_17
REMARK    8  A    between atoms: C16_24  and  C17_25
REMARK    9  A    between atoms: C17_25  and  C18_26
REMARK   10  A    between atoms: C18_26  and  C19_27
REMARK   11  A    between atoms: C19_27  and  C20_28
REMARK   12  A    between atoms: C20_28  and  C21_29
ROOT
HETATM    1  C9  UNL     1      -1.695  33.771  63.809  1.00  0.00     0.041 C
HETATM    2  C10 UNL     1      -1.012  34.698  62.893  1.00  0.00     0.125 C
HETATM    3  C11 UNL     1      -1.269  36.153  63.033  1.00  0.00     0.041 C
HETATM    4  C12 UNL     1      -1.404  36.593  64.469  1.00  0.00    -0.045 C
HETATM    5  C13 UNL     1      -1.857  38.044  64.445  1.00  0.00     0.015 C
HETATM    6  C14 UNL     1      -0.137  36.506  65.243  1.00  0.00     0.015 C
HETATM    7  C15 UNL     1      -2.539  35.790  65.019  1.00  0.00     0.014 C
HETATM    8  C16 UNL     1      -2.355  34.301  65.019  1.00  0.00    -0.005 C
ENDROOT
BRANCH   1   9
HETATM    9  C6  UNL     1      -0.784  32.596  64.044  1.00  0.00     0.098 C
BRANCH   9  10
HETATM   10  C5  UNL     1      -1.273  31.295  63.527  1.00  0.00     0.104 C
BRANCH  10  11
HETATM   11  C4  UNL     1      -0.401  30.168  63.898  1.00  0.00     0.132 C
HETATM   12  O1  UNL     1       0.622  30.018  63.188  1.00  0.00    -0.298 OA
BRANCH  11  13
HETATM   13  C2  UNL     1      -0.595  29.207  64.987  1.00  0.00     0.047 C
HETATM   14  C1  UNL     1      -0.150  27.822  64.539  1.00  0.00     0.017 C
HETATM   15  C3  UNL     1      -2.106  29.056  65.237  1.00  0.00     0.017 C
ENDBRANCH  11  13
ENDBRANCH  10  11
ENDBRANCH   9  10
BRANCH   9  16
HETATM   16  N1  UNL     1       0.584  32.908  63.767  1.00  0.00    -0.354 N
HETATM   17  C7  UNL     1       1.688  33.008  64.643  1.00  0.00     0.247 C
HETATM   18  O2  UNL     1       1.649  32.818  65.879  1.00  0.00    -0.271 OA
ATOM     19  H1  UNL     1       0.795  33.084  62.785  1.00  0.00     0.162 HD
BRANCH  17  20
HETATM   20  C8  UNL     1       3.061  33.371  64.134  1.00  0.00     0.245 C
HETATM   21 CL1  UNL     1       4.247  32.111  64.393  1.00  0.00    -0.103 Cl
HETATM   22 BR1  UNL     1       2.835  33.569  62.199  1.00  0.00    -0.064 Br
ENDBRANCH  17  20
ENDBRANCH   9  16
ENDBRANCH   1   9
BRANCH   2  23
HETATM   23  O3  UNL     1      -1.285  34.354  61.563  1.00  0.00    -0.395 OA
ATOM     24  H3  UNL     1      -0.491  34.397  61.042  1.00  0.00     0.210 HD
ENDBRANCH   2  23
BRANCH   8  25
HETATM   25  C17 UNL     1      -3.793  33.768  65.170  1.00  0.00     0.005 C
BRANCH  25  26
HETATM   26  C18 UNL     1      -4.660  34.688  65.982  1.00  0.00     0.001 C
BRANCH  26  27
HETATM   27  C19 UNL     1      -6.103  34.209  66.006  1.00  0.00     0.007 C
BRANCH  27  28
HETATM   28  C20 UNL     1      -6.542  33.969  64.591  1.00  0.00     0.072 C
BRANCH  28  29
HETATM   29  C21 UNL     1      -7.951  34.391  64.374  1.00  0.00     0.086 C
HETATM   30  N2  UNL     1      -8.832  34.313  65.329  1.00  0.00    -0.391 N
ATOM     31  H22 UNL     1      -8.544  33.955  66.240  1.00  0.00     0.157 HD
ATOM     32  H21 UNL     1      -9.799  34.602  65.180  1.00  0.00     0.157 HD
HETATM   33  N3  UNL     1      -8.351  34.886  63.113  1.00  0.00    -0.088 NA
ENDBRANCH  28  29
ENDBRANCH  27  28
ENDBRANCH  26  27
ENDBRANCH  25  26
ENDBRANCH   8  25
TORSDOF 12
ENDMDL