MODEL 4
REMARK VINA RESULT: -7.181665422      2.223      5.223
REMARK  14 active torsions:
REMARK  status: ('A' for Active; 'I' for Inactive)
REMARK    1  A    between atoms: C2_2  and  C5_5
REMARK    2  A    between atoms: C5_5  and  C6_6
REMARK    3  A    between atoms: C6_6  and  N1_7
REMARK    4  A    between atoms: N1_7  and  C7_9
REMARK    5  A    between atoms: C7_9  and  C8_10
REMARK    6  A    between atoms: C7_9  and  C25_37
REMARK    7  A    between atoms: C8_10  and  O1_11
REMARK    8  A    between atoms: C8_10  and  C9_13
REMARK    9  A    between atoms: C9_13  and  N2_14
REMARK   10  A    between atoms: N2_14  and  C10_17
REMARK   11  A    between atoms: C10_17  and  C11_18
REMARK   12  A    between atoms: C10_17  and  C19_29
REMARK       I    between atoms: C11_18  and  N3_20
REMARK   13  A    between atoms: N3_20  and  C12_22
REMARK   14  A    between atoms: C12_22  and  C13_23
ROOT
HETATM    1  N2  UNL     1      -0.616  33.470  67.509  1.00  0.00    -0.059 N
ATOM      2  H21 UNL     1      -0.082  32.866  68.132  1.00  0.00     0.278 HD
ATOM      3  H22 UNL     1      -0.017  34.294  67.543  1.00  0.00     0.278 HD
ENDROOT
BRANCH   1   4
HETATM    4  C9  UNL     1      -1.984  33.754  68.050  1.00  0.00     0.266 C
BRANCH   4   5
HETATM    5  C8  UNL     1      -1.679  34.457  69.328  1.00  0.00     0.167 C
BRANCH   5   6
HETATM    6  C7  UNL     1      -1.321  35.868  69.358  1.00  0.00     0.118 C
BRANCH   6   7
HETATM    7  N1  UNL     1      -1.379  36.697  68.227  1.00  0.00    -0.394 N
ATOM      8  H1  UNL     1      -0.624  36.654  67.543  1.00  0.00     0.159 HD
BRANCH   7   9
HETATM    9  C6  UNL     1      -2.443  37.584  68.010  1.00  0.00     0.057 C
BRANCH   9  10
HETATM   10  C5  UNL     1      -2.148  38.997  68.501  1.00  0.00     0.052 C
BRANCH  10  11
HETATM   11  C2  UNL     1      -2.256  40.022  67.414  1.00  0.00    -0.047 C
HETATM   12  C1  UNL     1      -3.510  39.963  66.593  1.00  0.00     0.015 C
HETATM   13  C3  UNL     1      -1.091  39.854  66.456  1.00  0.00     0.015 C
HETATM   14  C4  UNL     1      -2.147  41.438  67.965  1.00  0.00     0.015 C
ENDBRANCH  10  11
ENDBRANCH   9  10
ENDBRANCH   7   9
ENDBRANCH   6   7
BRANCH   6  15
HETATM   15  C25 UNL     1       0.092  36.044  69.896  1.00  0.00    -0.029 C
HETATM   16  C26 UNL     1       0.750  34.891  70.513  1.00  0.00     0.016 C
HETATM   17  C27 UNL     1       1.003  36.540  68.768  1.00  0.00     0.016 C
HETATM   18  C28 UNL     1       0.025  37.181  70.922  1.00  0.00     0.016 C
ENDBRANCH   6  15
ENDBRANCH   5   6
BRANCH   5  19
HETATM   19  O1  UNL     1      -2.916  34.349  70.053  1.00  0.00    -0.392 OA
ATOM     20  H1  UNL     1      -3.423  35.117  69.816  1.00  0.00     0.210 HD
ENDBRANCH   5  19
ENDBRANCH   4   5
ENDBRANCH   1   4
BRANCH   1  21
HETATM   21  C10 UNL     1      -0.700  32.919  66.162  1.00  0.00     0.284 C
BRANCH  21  22
HETATM   22  C11 UNL     1      -0.203  34.028  65.263  1.00  0.00     0.252 C
HETATM   23  O2  UNL     1      -0.255  35.161  65.770  1.00  0.00    -0.271 OA
HETATM   24  N3  UNL     1       0.281  33.842  63.967  1.00  0.00    -0.339 N
ATOM     25  H3  UNL     1       0.286  32.865  63.671  1.00  0.00     0.167 HD
BRANCH  24  26
HETATM   26  C12 UNL     1       0.762  34.729  62.985  1.00  0.00     0.068 C
BRANCH  26  27
HETATM   27  C13 UNL     1       2.197  34.973  62.762  1.00  0.00     0.024 C
HETATM   28  C14 UNL     1       3.070  35.558  63.783  1.00  0.00     0.010 C
HETATM   29  C15 UNL     1       3.442  34.610  64.901  1.00  0.00     0.001 C
HETATM   30  C16 UNL     1       4.292  33.523  64.219  1.00  0.00     0.000 C
HETATM   31  C17 UNL     1       3.369  32.816  63.254  1.00  0.00     0.001 C
HETATM   32  C18 UNL     1       2.861  33.697  62.172  1.00  0.00     0.010 C
ENDBRANCH  26  27
ENDBRANCH  24  26
ENDBRANCH  21  22
BRANCH  21  33
HETATM   33  C19 UNL     1       0.201  31.726  66.164  1.00  0.00     0.062 C
HETATM   34  C20 UNL     1       0.591  31.301  67.558  1.00  0.00     0.010 C
HETATM   35  C21 UNL     1      -0.215  30.156  68.090  1.00  0.00     0.004 C
HETATM   36  C22 UNL     1      -1.560  29.974  67.470  1.00  0.00     0.040 C
HETATM   37  C23 UNL     1      -1.489  29.874  65.969  1.00  0.00     0.204 C
HETATM   38  F1  UNL     1      -1.433  28.522  65.601  1.00  0.00    -0.246 F
HETATM   39  C24 UNL     1      -0.253  30.534  65.413  1.00  0.00     0.210 C
HETATM   40  F2  UNL     1      -0.382  30.661  64.068  1.00  0.00    -0.246 F
ENDBRANCH  21  33
ENDBRANCH   1  21
TORSDOF 14
ENDMDL