MODEL 2
REMARK VINA RESULT: -6.305307977      2.731      8.284
REMARK  13 active torsions:
REMARK  status: ('A' for Active; 'I' for Inactive)
REMARK    1  A    between atoms: C2_2  and  C4_4
REMARK    2  A    between atoms: C4_4  and  C5_5
REMARK    3  A    between atoms: C5_5  and  O1_6
REMARK    4  A    between atoms: C6_8  and  O2_9
REMARK    5  A    between atoms: C7_11  and  O3_12
REMARK    6  A    between atoms: O3_12  and  C8_13
REMARK    7  A    between atoms: C8_13  and  C9_14
REMARK    8  A    between atoms: C9_14  and  C10_15
REMARK    9  A    between atoms: C10_15  and  C11_16
REMARK   10  A    between atoms: C11_16  and  C12_17
REMARK   11  A    between atoms: C12_17  and  C13_18
REMARK   12  A    between atoms: C13_18  and  C14_19
REMARK   13  A    between atoms: C14_19  and  C15_20
ROOT
HETATM    1  C5  UNL     1      -2.029  31.847  65.876  1.00  0.00     0.100 C
HETATM    2  C6  UNL     1      -2.375  32.448  67.164  1.00  0.00     0.183 C
HETATM    3  C7  UNL     1      -1.559  33.650  67.558  1.00  0.00     0.167 C
HETATM    4  C16 UNL     1      -1.416  34.643  66.429  1.00  0.00     0.094 C
HETATM    5 BR1  UNL     1      -0.291  36.099  66.935  1.00  0.00    -0.088 Br
HETATM    6  C17 UNL     1      -0.806  33.932  65.268  1.00  0.00     0.016 C
HETATM    7  C18 UNL     1      -0.515  34.844  64.098  1.00  0.00     0.012 C
HETATM    8  C19 UNL     1      -1.802  32.908  64.784  1.00  0.00     0.100 C
HETATM    9 BR2  UNL     1      -3.511  33.686  64.381  1.00  0.00    -0.087 Br
ENDROOT
BRANCH   3  10
HETATM   10  O3  UNL     1      -2.211  34.299  68.602  1.00  0.00    -0.382 OA
BRANCH  10  11
HETATM   11  C8  UNL     1      -3.489  34.733  68.213  1.00  0.00     0.168 C
BRANCH  11  12
HETATM   12  C9  UNL     1      -4.029  35.742  69.183  1.00  0.00     0.026 C
BRANCH  12  13
HETATM   13  C10 UNL     1      -3.414  37.125  68.900  1.00  0.00     0.002 C
BRANCH  13  14
HETATM   14  C11 UNL     1      -3.740  37.660  67.578  1.00  0.00     0.000 C
BRANCH  14  15
HETATM   15  C12 UNL     1      -4.094  39.087  67.471  1.00  0.00     0.001 C
BRANCH  15  16
HETATM   16  C13 UNL     1      -3.280  39.979  66.656  1.00  0.00     0.010 C
BRANCH  16  17
HETATM   17  C14 UNL     1      -1.899  40.351  67.002  1.00  0.00     0.113 C
BRANCH  17  18
HETATM   18  C15 UNL     1      -1.707  40.941  68.337  1.00  0.00     0.172 C
HETATM   19  O4  UNL     1      -2.257  42.018  68.643  1.00  0.00    -0.648 OA
HETATM   20  O5  UNL     1      -0.905  40.292  69.273  1.00  0.00    -0.648 OA
ENDBRANCH  17  18
ENDBRANCH  16  17
ENDBRANCH  15  16
ENDBRANCH  14  15
ENDBRANCH  13  14
ENDBRANCH  12  13
ENDBRANCH  11  12
ENDBRANCH  10  11
ENDBRANCH   3  10
BRANCH   2  21
HETATM   21  O2  UNL     1      -2.324  31.530  68.186  1.00  0.00    -0.390 OA
ATOM     22  H2  UNL     1      -2.733  31.860  68.978  1.00  0.00     0.210 HD
ENDBRANCH   2  21
BRANCH   1  23
HETATM   23  C4  UNL     1      -0.846  30.942  65.796  1.00  0.00     0.045 C
BRANCH  23  24
HETATM   24  C2  UNL     1      -0.734  30.053  64.615  1.00  0.00    -0.020 C
HETATM   25  C1  UNL     1      -0.637  28.619  65.162  1.00  0.00     0.009 C
HETATM   26  C3  UNL     1       0.530  30.276  63.811  1.00  0.00     0.009 C
ENDBRANCH  23  24
ENDBRANCH   1  23
BRANCH   1  27
HETATM   27  O1  UNL     1      -3.149  31.131  65.389  1.00  0.00    -0.386 OA
ATOM     28  H1  UNL     1      -3.895  31.366  65.927  1.00  0.00     0.210 HD
ENDBRANCH   1  27
TORSDOF 13
ENDMDL