MODEL 3
REMARK VINA RESULT: -8.630264285      2.912      5.441
REMARK  12 active torsions:
REMARK  status: ('A' for Active; 'I' for Inactive)
REMARK    1  A    between atoms: C1_2  and  C2_4
REMARK    2  A    between atoms: C2_4  and  C3_5
REMARK    3  A    between atoms: C3_5  and  C4_6
REMARK    4  A    between atoms: C4_6  and  N1_7
REMARK    5  A    between atoms: C4_6  and  N2_21
REMARK       I    between atoms: N1_7  and  C5_9
REMARK    6  A    between atoms: C5_9  and  C6_11
REMARK    7  A    between atoms: C6_11  and  C7_13
REMARK    8  A    between atoms: C7_13  and  C8_14
REMARK       I    between atoms: N2_21  and  C15_23
REMARK    9  A    between atoms: C15_23  and  C16_25
REMARK   10  A    between atoms: C16_25  and  C17_26
REMARK   11  A    between atoms: C16_25  and  C18_29
REMARK   12  A    between atoms: C21_32  and  C22_33
ROOT
HETATM    1  C4  UNL     1      -4.895  33.759  65.959  1.00  0.00     0.187 C
ENDROOT
BRANCH   1   2
HETATM    2  C3  UNL     1      -3.777  32.953  65.368  1.00  0.00     0.057 C
BRANCH   2   3
HETATM    3  C2  UNL     1      -2.721  33.801  64.721  1.00  0.00     0.117 C
BRANCH   3   4
HETATM    4  C1  UNL     1      -2.903  33.761  63.259  1.00  0.00     0.172 C
HETATM    5  O1  UNL     1      -3.841  33.116  62.754  1.00  0.00    -0.648 OA
HETATM    6  O2  UNL     1      -2.028  34.446  62.431  1.00  0.00    -0.648 OA
ENDBRANCH   3   4
ENDBRANCH   2   3
ENDBRANCH   1   2
BRANCH   1   7
HETATM    7  N1  UNL     1      -6.038  33.732  65.065  1.00  0.00    -0.338 N
HETATM    8  C5  UNL     1      -7.331  33.905  65.595  1.00  0.00     0.253 C
HETATM    9  O3  UNL     1      -7.482  34.082  66.821  1.00  0.00    -0.270 OA
ATOM     10  H1  UNL     1      -5.905  33.591  64.064  1.00  0.00     0.164 HD
BRANCH   8  11
HETATM   11  C6  UNL     1      -8.524  33.876  64.691  1.00  0.00     0.262 C
HETATM   12  F1  UNL     1      -8.620  35.128  64.057  1.00  0.00    -0.239 F
BRANCH  11  13
HETATM   13  C7  UNL     1      -9.785  33.660  65.453  1.00  0.00     0.051 C
BRANCH  13  14
HETATM   14  C8  UNL     1     -11.035  33.722  64.628  1.00  0.00    -0.011 C
HETATM   15  C9  UNL     1     -10.956  32.845  63.437  1.00  0.00     0.005 C
HETATM   16  C10 UNL     1     -11.745  33.442  62.288  1.00  0.00     0.000 C
HETATM   17  C11 UNL     1     -13.068  33.940  62.820  1.00  0.00     0.000 C
HETATM   18  C12 UNL     1     -13.721  32.798  63.529  1.00  0.00     0.000 C
HETATM   19  C13 UNL     1     -13.247  32.541  64.916  1.00  0.00     0.000 C
HETATM   20  C14 UNL     1     -12.280  33.537  65.470  1.00  0.00     0.005 C
ENDBRANCH  13  14
ENDBRANCH  11  13
ENDBRANCH   8  11
ENDBRANCH   1   7
BRANCH   1  21
HETATM   21  N2  UNL     1      -4.512  35.128  66.263  1.00  0.00    -0.339 N
HETATM   22  C15 UNL     1      -4.335  35.579  67.606  1.00  0.00     0.234 C
HETATM   23  O4  UNL     1      -4.523  34.741  68.518  1.00  0.00    -0.273 OA
ATOM     24  H2  UNL     1      -4.366  35.784  65.497  1.00  0.00     0.164 HD
BRANCH  22  25
HETATM   25  C16 UNL     1      -3.944  36.986  67.865  1.00  0.00     0.182 C
BRANCH  25  26
HETATM   26  C17 UNL     1      -3.583  37.707  66.643  1.00  0.00     0.186 C
HETATM   27  O5  UNL     1      -4.108  38.814  66.385  1.00  0.00    -0.647 OA
HETATM   28  O6  UNL     1      -2.661  37.216  65.724  1.00  0.00    -0.647 OA
ENDBRANCH  25  26
BRANCH  25  29
HETATM   29  C18 UNL     1      -2.973  37.093  68.994  1.00  0.00     0.009 C
HETATM   30  C19 UNL     1      -2.404  38.515  69.031  1.00  0.00     0.006 C
HETATM   31  C20 UNL     1      -1.102  38.369  69.785  1.00  0.00     0.008 C
HETATM   32  C21 UNL     1      -0.855  36.911  69.951  1.00  0.00     0.026 C
HETATM   33  C25 UNL     1      -1.702  36.307  68.824  1.00  0.00     0.013 C
BRANCH  32  34
HETATM   34  C22 UNL     1       0.575  36.500  69.876  1.00  0.00     0.107 A
HETATM   35  F2  UNL     1       0.860  35.651  68.809  1.00  0.00    -0.243 F
HETATM   36  C23 UNL     1       1.674  37.229  70.501  1.00  0.00     0.047 A
HETATM   37  C24 UNL     1       1.131  35.999  71.218  1.00  0.00     0.047 A
ENDBRANCH  32  34
ENDBRANCH  25  29
ENDBRANCH  22  25
ENDBRANCH   1  21
TORSDOF 12
ENDMDL