MODEL 4
REMARK VINA RESULT: -8.021228356      4.370      9.198
REMARK  13 active torsions:
REMARK  status: ('A' for Active; 'I' for Inactive)
REMARK    1  A    between atoms: C2_2  and  C3_3
REMARK    2  A    between atoms: C3_3  and  C5_5
REMARK    3  A    between atoms: C5_5  and  N1_6
REMARK       I    between atoms: N1_6  and  C6_8
REMARK       I    between atoms: C6_8  and  N2_10
REMARK    4  A    between atoms: N2_10  and  C7_12
REMARK    5  A    between atoms: C7_12  and  C8_13
REMARK    6  A    between atoms: C7_12  and  C12_17
REMARK    7  A    between atoms: C8_13  and  C9_14
REMARK       I    between atoms: C12_17  and  N3_19
REMARK    8  A    between atoms: N3_19  and  C13_21
REMARK    9  A    between atoms: C13_21  and  C14_22
REMARK   10  A    between atoms: C13_21  and  C21_29
REMARK   11  A    between atoms: C14_22  and  C15_23
REMARK   12  A    between atoms: C21_29  and  O3_30
REMARK   13  A    between atoms: C21_29  and  C22_32
ROOT
HETATM    1  C12 UNL     1      -2.232  34.142  68.528  1.00  0.00     0.241 C
HETATM    2  O2  UNL     1      -3.308  33.490  68.587  1.00  0.00    -0.271 OA
HETATM    3  N3  UNL     1      -1.267  33.716  67.589  1.00  0.00    -0.349 N
ATOM      4  H3  UNL     1      -0.391  34.235  67.530  1.00  0.00     0.163 HD
ENDROOT
BRANCH   3   5
HETATM    5  C13 UNL     1      -1.455  32.568  66.693  1.00  0.00     0.138 C
BRANCH   5   6
HETATM    6  C14 UNL     1      -0.395  31.567  66.800  1.00  0.00     0.003 C
BRANCH   6   7
HETATM    7  C15 UNL     1      -0.328  30.401  65.922  1.00  0.00    -0.082 C
HETATM    8  C16 UNL     1      -1.583  29.539  65.919  1.00  0.00     0.034 C
HETATM    9  C17 UNL     1      -1.423  28.385  64.938  1.00  0.00     0.004 C
HETATM   10  C18 UNL     1       0.025  27.990  64.784  1.00  0.00     0.001 C
HETATM   11  C19 UNL     1       0.850  29.108  64.202  1.00  0.00     0.004 C
HETATM   12  C20 UNL     1       0.249  30.477  64.561  1.00  0.00     0.034 C
ENDBRANCH   6   7
ENDBRANCH   5   6
BRANCH   5  13
HETATM   13  C21 UNL     1      -1.829  33.049  65.335  1.00  0.00     0.178 C
BRANCH  13  14
HETATM   14  O3  UNL     1      -3.188  33.538  65.475  1.00  0.00    -0.391 OA
ATOM     15  H3  UNL     1      -3.511  33.619  64.585  1.00  0.00     0.210 HD
ENDBRANCH  13  14
BRANCH  13  16
HETATM   16  C22 UNL     1      -1.094  34.288  64.872  1.00  0.00     0.259 C
HETATM   17  C23 UNL     1      -1.887  34.851  63.711  1.00  0.00     0.119 C
HETATM   18  C24 UNL     1      -1.008  34.662  62.518  1.00  0.00     0.271 C
HETATM   19  F1  UNL     1      -1.502  33.728  61.629  1.00  0.00    -0.204 F
HETATM   20  F2  UNL     1      -0.896  35.873  61.828  1.00  0.00    -0.204 F
HETATM   21  C25 UNL     1       0.304  34.179  63.026  1.00  0.00     0.351 C
HETATM   22  N4  UNL     1       0.241  34.155  64.472  1.00  0.00     0.097 N
HETATM   23  C26 UNL     1       1.119  35.244  64.924  1.00  0.00     0.310 C
ENDBRANCH  13  16
ENDBRANCH   5  13
ENDBRANCH   3   5
BRANCH   1  24
HETATM   24  C7  UNL     1      -2.031  35.294  69.421  1.00  0.00     0.178 C
BRANCH  24  25
HETATM   25  N2  UNL     1      -2.540  35.027  70.719  1.00  0.00    -0.330 N
HETATM   26  C6  UNL     1      -3.853  35.454  71.163  1.00  0.00     0.320 C
HETATM   27  N1  UNL     1      -4.295  35.162  72.447  1.00  0.00    -0.322 N
HETATM   28  O1  UNL     1      -4.505  36.072  70.324  1.00  0.00    -0.247 OA
ATOM     29  H1  UNL     1      -3.608  34.668  73.016  1.00  0.00     0.169 HD
ATOM     30  H2  UNL     1      -1.952  34.509  71.372  1.00  0.00     0.165 HD
BRANCH  27  31
HETATM   31  C5  UNL     1      -5.506  35.414  73.115  1.00  0.00     0.070 C
BRANCH  31  32
HETATM   32  C3  UNL     1      -5.706  35.080  74.536  1.00  0.00     0.020 C
HETATM   33  C4  UNL     1      -4.849  33.977  75.058  1.00  0.00     0.015 C
BRANCH  32  34
HETATM   34  C2  UNL     1      -7.203  34.691  74.776  1.00  0.00     0.005 C
HETATM   35  C1  UNL     1      -7.969  34.848  73.493  1.00  0.00     0.006 C
ENDBRANCH  32  34
ENDBRANCH  31  32
ENDBRANCH  27  31
ENDBRANCH  24  25
BRANCH  24  36
HETATM   36  C8  UNL     1      -0.648  35.818  69.449  1.00  0.00     0.038 C
BRANCH  36  37
HETATM   37  C9  UNL     1       0.247  35.458  70.564  1.00  0.00    -0.020 C
HETATM   38  C10 UNL     1       1.039  36.567  71.193  1.00  0.00     0.009 C
HETATM   39  C11 UNL     1       1.290  34.480  69.979  1.00  0.00     0.009 C
ENDBRANCH  36  37
ENDBRANCH  24  36
ENDBRANCH   1  24
TORSDOF 13
ENDMDL