MODEL 3
REMARK VINA RESULT: -7.871432588      2.430      5.624
REMARK  11 active torsions:
REMARK  status: ('A' for Active; 'I' for Inactive)
REMARK    1  A    between atoms: C1_2  and  C2_3
REMARK       I    between atoms: C1_2  and  N1_15
REMARK    2  A    between atoms: C2_3  and  C3_4
REMARK    3  A    between atoms: C3_4  and  C4_5
REMARK    4  A    between atoms: C4_5  and  C5_6
REMARK    5  A    between atoms: C5_6  and  C6_7
REMARK    6  A    between atoms: N1_15  and  C12_17
REMARK    7  A    between atoms: C12_17  and  C13_18
REMARK    8  A    between atoms: C13_18  and  C14_19
REMARK    9  A    between atoms: C14_19  and  N2_20
REMARK   10  A    between atoms: C17_23  and  C18_24
REMARK   11  A    between atoms: C25_36  and  O3_37
ROOT
HETATM    1  C12 UNL     1       1.384  35.404  69.090  1.00  0.00     0.036 C
HETATM    2  C23 UNL     1       1.472  35.069  70.540  1.00  0.00     0.033 C
HETATM    3  C24 UNL     1       0.704  36.150  71.306  1.00  0.00     0.034 C
HETATM    4  C25 UNL     1       0.884  37.348  70.435  1.00  0.00     0.120 C
HETATM    5  C26 UNL     1       0.885  36.829  69.013  1.00  0.00     0.062 C
ENDROOT
BRANCH   1   6
HETATM    6  N1  UNL     1       0.333  34.583  68.487  1.00  0.00    -0.352 N
HETATM    7  C1  UNL     1       0.328  33.170  68.501  1.00  0.00     0.218 C
HETATM    8  O1  UNL     1       1.230  32.474  69.031  1.00  0.00    -0.274 OA
ATOM      9  H1  UNL     1      -0.443  35.060  68.028  1.00  0.00     0.163 HD
BRANCH   7  10
HETATM   10  C2  UNL     1      -0.796  32.395  67.861  1.00  0.00     0.103 C
BRANCH  10  11
HETATM   11  C3  UNL     1      -1.645  33.268  67.001  1.00  0.00     0.009 C
BRANCH  11  12
HETATM   12  C4  UNL     1      -2.724  32.435  66.365  1.00  0.00     0.001 C
BRANCH  12  13
HETATM   13  C5  UNL     1      -2.556  32.340  64.859  1.00  0.00     0.005 C
BRANCH  13  14
HETATM   14  C6  UNL     1      -2.020  31.000  64.459  1.00  0.00    -0.014 C
HETATM   15  C7  UNL     1      -2.427  29.977  65.515  1.00  0.00     0.010 C
HETATM   16  C8  UNL     1      -1.912  28.607  65.204  1.00  0.00     0.079 C
HETATM   17  C9  UNL     1      -0.468  28.564  64.830  1.00  0.00     0.243 C
HETATM   18  F1  UNL     1       0.383  28.565  65.917  1.00  0.00    -0.206 F
HETATM   19  F2  UNL     1      -0.250  27.353  64.159  1.00  0.00    -0.206 F
HETATM   20  C10 UNL     1      -0.058  29.664  63.883  1.00  0.00     0.079 C
HETATM   21  C11 UNL     1      -0.498  31.011  64.469  1.00  0.00     0.010 C
ENDBRANCH  13  14
ENDBRANCH  12  13
ENDBRANCH  11  12
ENDBRANCH  10  11
ENDBRANCH   7  10
ENDBRANCH   1   6
BRANCH   1  22
HETATM   22  C13 UNL     1       2.682  35.205  68.397  1.00  0.00     0.051 C
BRANCH  22  23
HETATM   23  C14 UNL     1       2.928  36.034  67.187  1.00  0.00     0.129 C
BRANCH  23  24
HETATM   24  N2  UNL     1       3.505  35.229  66.124  1.00  0.00    -0.374 N
HETATM   25  C15 UNL     1       3.485  35.843  64.858  1.00  0.00     0.064 C
HETATM   26  C16 UNL     1       3.499  34.843  63.746  1.00  0.00     0.056 C
HETATM   27  C17 UNL     1       2.337  33.905  63.823  1.00  0.00     0.046 C
HETATM   28  C21 UNL     1       2.087  33.418  65.225  1.00  0.00     0.056 C
HETATM   29  C22 UNL     1       3.189  33.862  66.162  1.00  0.00     0.064 C
BRANCH  27  30
HETATM   30  C18 UNL     1       1.122  34.593  63.345  1.00  0.00     0.036 A
HETATM   31  C19 UNL     1      -0.103  34.728  63.978  1.00  0.00     0.102 A
HETATM   32  C20 UNL     1      -0.901  35.471  63.143  1.00  0.00     0.261 A
HETATM   33  O2  UNL     1      -2.104  35.807  63.376  1.00  0.00    -0.267 OA
HETATM   34  N3  UNL     1      -0.199  35.778  62.044  1.00  0.00    -0.266 N
HETATM   35  N4  UNL     1       1.021  35.244  62.177  1.00  0.00    -0.301 N
ATOM     36  H3  UNL     1      -0.535  36.322  61.249  1.00  0.00     0.190 HD
ATOM     37  H4  UNL     1       1.769  35.322  61.486  1.00  0.00     0.186 HD
ENDBRANCH  27  30
ENDBRANCH  23  24
ENDBRANCH  22  23
ENDBRANCH   1  22
BRANCH   4  38
HETATM   38  O3  UNL     1      -0.176  38.265  70.590  1.00  0.00    -0.395 OA
ATOM     39  H3  UNL     1      -0.386  38.698  69.770  1.00  0.00     0.210 HD
ENDBRANCH   4  38
TORSDOF 11
ENDMDL