MODEL 5
REMARK VINA RESULT: -8.361107753      1.544      1.873
REMARK  12 active torsions:
REMARK  status: ('A' for Active; 'I' for Inactive)
REMARK    1  A    between atoms: C2_2  and  C3_3
REMARK    2  A    between atoms: C3_3  and  C4_4
REMARK    3  A    between atoms: C4_4  and  C5_5
REMARK    4  A    between atoms: C5_5  and  N1_6
REMARK    5  A    between atoms: C6_8  and  O1_9
REMARK    6  A    between atoms: C6_8  and  C7_11
REMARK    7  A    between atoms: C11_15  and  N2_16
REMARK       I    between atoms: N2_16  and  C12_18
REMARK       I    between atoms: C12_18  and  N3_20
REMARK    8  A    between atoms: N3_20  and  C13_22
REMARK    9  A    between atoms: C13_22  and  C14_23
REMARK   10  A    between atoms: C13_22  and  C17_27
REMARK   11  A    between atoms: C14_23  and  C15_24
REMARK   12  A    between atoms: C15_24  and  S1_25
ROOT
HETATM    1  C7  UNL     1      -2.901  36.214  69.932  1.00  0.00     0.028 C
HETATM    2  C8  UNL     1      -3.293  37.324  68.974  1.00  0.00     0.023 C
HETATM    3  C9  UNL     1      -1.897  37.736  68.497  1.00  0.00     0.001 C
HETATM    4  C10 UNL     1      -1.476  36.674  67.526  1.00  0.00     0.036 C
HETATM    5  C11 UNL     1      -1.401  35.287  68.101  1.00  0.00     0.042 C
HETATM    6  C18 UNL     1      -0.032  34.918  68.597  1.00  0.00     0.118 C
HETATM    7  C19 UNL     1       0.861  36.018  69.012  1.00  0.00     0.305 C
HETATM    8  F1  UNL     1       1.632  35.547  70.094  1.00  0.00    -0.198 F
HETATM    9  F2  UNL     1       1.857  36.285  68.052  1.00  0.00    -0.198 F
HETATM   10  C20 UNL     1       0.241  37.251  69.497  1.00  0.00     0.202 C
HETATM   11  O5  UNL     1       1.110  38.110  69.744  1.00  0.00    -0.291 OA
HETATM   12  C21 UNL     1      -1.113  37.741  69.764  1.00  0.00     0.067 C
HETATM   13  C22 UNL     1      -1.862  36.913  70.782  1.00  0.00     0.030 C
HETATM   14  C23 UNL     1      -2.383  35.031  69.213  1.00  0.00     0.049 C
ENDROOT
BRANCH   5  15
HETATM   15  N2  UNL     1      -1.753  34.386  67.023  1.00  0.00    -0.334 N
HETATM   16  C12 UNL     1      -1.110  34.297  65.767  1.00  0.00     0.317 C
HETATM   17  O2  UNL     1      -0.144  35.053  65.527  1.00  0.00    -0.247 OA
HETATM   18  N3  UNL     1      -1.526  33.372  64.762  1.00  0.00    -0.329 N
ATOM     19  H3  UNL     1      -2.316  32.756  64.949  1.00  0.00     0.165 HD
ATOM     20  H2  UNL     1      -2.538  33.756  67.186  1.00  0.00     0.165 HD
BRANCH  18  21
HETATM   21  C13 UNL     1      -0.861  33.292  63.499  1.00  0.00     0.188 C
BRANCH  21  22
HETATM   22  C14 UNL     1      -0.699  31.869  63.012  1.00  0.00     0.046 C
BRANCH  22  23
HETATM   23  C15 UNL     1       0.718  31.585  62.565  1.00  0.00     0.076 C
BRANCH  23  24
HETATM   24  S1  UNL     1       1.919  32.656  63.354  1.00  0.00    -0.173 SA
HETATM   25  C16 UNL     1       2.845  33.536  62.069  1.00  0.00     0.089 C
ENDBRANCH  23  24
ENDBRANCH  22  23
ENDBRANCH  21  22
BRANCH  21  26
HETATM   26  C17 UNL     1      -1.642  34.018  62.459  1.00  0.00     0.196 C
HETATM   27  O3  UNL     1      -1.286  35.172  62.119  1.00  0.00    -0.646 OA
HETATM   28  O4  UNL     1      -2.756  33.477  61.837  1.00  0.00    -0.646 OA
ENDBRANCH  21  26
ENDBRANCH  18  21
ENDBRANCH   5  15
BRANCH   1  29
HETATM   29  C6  UNL     1      -4.090  35.828  70.704  1.00  0.00     0.120 C
HETATM   30  N1  UNL     1      -4.022  35.536  71.952  1.00  0.00    -0.374 N
ATOM     31  H1  UNL     1      -3.106  35.578  72.400  1.00  0.00     0.161 HD
BRANCH  30  32
HETATM   32  C5  UNL     1      -5.161  35.146  72.775  1.00  0.00     0.121 C
BRANCH  32  33
HETATM   33  C4  UNL     1      -4.749  34.667  74.115  1.00  0.00     0.020 C
BRANCH  33  34
HETATM   34  C3  UNL     1      -5.798  34.291  75.075  1.00  0.00     0.001 C
BRANCH  34  35
HETATM   35  C2  UNL     1      -7.210  34.612  74.797  1.00  0.00    -0.004 C
HETATM   36  C1  UNL     1      -8.257  34.034  75.667  1.00  0.00     0.005 C
ENDBRANCH  34  35
ENDBRANCH  33  34
ENDBRANCH  32  33
ENDBRANCH  30  32
BRANCH  29  37
HETATM   37  O1  UNL     1      -5.321  35.777  70.083  1.00  0.00    -0.349 OA
ATOM     38  H1  UNL     1      -5.864  36.557  70.089  1.00  0.00     0.219 HD
ENDBRANCH  29  37
ENDBRANCH   1  29
TORSDOF 12
ENDMDL