MODEL 2
REMARK VINA RESULT: -5.538177210      1.854      3.368
REMARK  3 active torsions:
REMARK  status: ('A' for Active; 'I' for Inactive)
REMARK    1  A    between atoms: O1_1  and  C1_3
REMARK    2  A    between atoms: C6_8  and  O2_9
REMARK    3  A    between atoms: C9_13  and  O3_14
ROOT
HETATM    1  C1  UNL     1      16.037  16.974  18.901  1.00  0.00     0.147 C
HETATM    2  C2  UNL     1      15.046  16.825  17.812  1.00  0.00     0.042 C
HETATM    3  C3  UNL     1      14.314  15.550  17.745  1.00  0.00     0.027 C
HETATM    4  C4  UNL     1      14.556  14.586  18.859  1.00  0.00     0.002 C
HETATM    5  C5  UNL     1      13.081  14.192  18.691  1.00  0.00     0.043 C
HETATM    6  C6  UNL     1      12.928  15.691  18.391  1.00  0.00     0.063 C
HETATM    7  C7  UNL     1      13.266  16.312  19.698  1.00  0.00     0.045 C
HETATM    8  C8  UNL     1      14.471  15.444  20.096  1.00  0.00     0.024 C
HETATM    9  C9  UNL     1      15.733  16.248  20.161  1.00  0.00     0.151 C
ENDROOT
BRANCH   1  10
HETATM   10  O1  UNL     1      17.329  16.658  18.419  1.00  0.00    -0.393 OA
ATOM     11  H1  UNL     1      17.347  16.739  17.473  1.00  0.00     0.210 HD
ENDBRANCH   1  10
BRANCH   9  12
HETATM   12  O3  UNL     1      15.748  17.102  21.287  1.00  0.00    -0.393 OA
ATOM     13  H3  UNL     1      16.549  17.020  21.791  1.00  0.00     0.210 HD
ENDBRANCH   9  12
BRANCH   6  14
HETATM   14  O2  UNL     1      11.914  16.092  17.646  1.00  0.00    -0.389 OA
ATOM     15  H2  UNL     1      11.072  15.664  17.747  1.00  0.00     0.210 HD
ENDBRANCH   6  14
TORSDOF 3
ENDMDL