MODEL 5
REMARK VINA RESULT: -5.301744149      4.131      5.261
REMARK  3 active torsions:
REMARK  status: ('A' for Active; 'I' for Inactive)
REMARK    1  A    between atoms: N1_1  and  C1_5
REMARK    2  A    between atoms: C5_9  and  O1_10
REMARK    3  A    between atoms: C7_13  and  O2_14
ROOT
HETATM    1  C1  UNL     1      15.225  16.127  19.158  1.00  0.00     0.184 C
HETATM    2  C2  UNL     1      16.463  16.580  18.504  1.00  0.00     0.033 C
HETATM    3  C3  UNL     1      17.536  17.130  19.349  1.00  0.00     0.010 C
HETATM    4  C4  UNL     1      17.135  17.686  20.659  1.00  0.00     0.021 C
HETATM    5  C5  UNL     1      18.225  17.682  21.703  1.00  0.00     0.125 C
HETATM    6  C6  UNL     1      17.403  17.937  22.967  1.00  0.00     0.064 C
HETATM    7  C7  UNL     1      16.030  17.320  22.679  1.00  0.00     0.125 C
HETATM    8  C8  UNL     1      16.163  16.700  21.326  1.00  0.00     0.023 C
HETATM    9  C9  UNL     1      14.929  16.716  20.498  1.00  0.00     0.040 C
ENDROOT
BRANCH   1  10
HETATM   10  N1  UNL     1      15.182  14.659  19.241  1.00  0.00    -0.075 N
ATOM     11  H13 UNL     1      15.956  14.231  18.732  1.00  0.00     0.274 HD
ATOM     12  H12 UNL     1      15.411  14.328  20.178  1.00  0.00     0.274 HD
ATOM     13  H11 UNL     1      14.280  14.303  18.925  1.00  0.00     0.274 HD
ENDBRANCH   1  10
BRANCH   7  14
HETATM   14  O2  UNL     1      15.715  16.433  23.683  1.00  0.00    -0.395 OA
ATOM     15  H2  UNL     1      15.121  15.776  23.342  1.00  0.00     0.210 HD
ENDBRANCH   7  14
BRANCH   5  16
HETATM   16  O1  UNL     1      18.717  16.381  21.824  1.00  0.00    -0.395 OA
ATOM     17  H1  UNL     1      18.076  15.857  22.289  1.00  0.00     0.210 HD
ENDBRANCH   5  16
TORSDOF 3
ENDMDL