MODEL 4
REMARK VINA RESULT: -5.277232236      1.290      1.640
REMARK  3 active torsions:
REMARK  status: ('A' for Active; 'I' for Inactive)
REMARK    1  A    between atoms: C7_7  and  O1_8
REMARK    2  A    between atoms: C8_10  and  O2_11
REMARK    3  A    between atoms: C9_13  and  O3_14
ROOT
HETATM    1  C1  UNL     1      13.878  16.269  20.241  1.00  0.00     0.015 C
HETATM    2  C2  UNL     1      14.697  16.298  18.997  1.00  0.00    -0.037 A
HETATM    3  C3  UNL     1      16.031  17.033  19.160  1.00  0.00     0.015 C
HETATM    4  C4  UNL     1      14.778  14.924  18.293  1.00  0.00     0.022 A
HETATM    5  C5  UNL     1      14.209  16.128  17.659  1.00  0.00    -0.002 A
HETATM    6  C6  UNL     1      14.936  16.677  16.474  1.00  0.00     0.047 C
HETATM    7  C7  UNL     1      14.126  16.167  15.297  1.00  0.00     0.150 C
HETATM    8  C8  UNL     1      12.892  15.534  15.842  1.00  0.00     0.176 C
HETATM    9  C9  UNL     1      12.778  16.169  17.230  1.00  0.00     0.158 C
ENDROOT
BRANCH   9  10
HETATM   10  O3  UNL     1      11.912  15.490  18.047  1.00  0.00    -0.392 OA
ATOM     11  H3  UNL     1      10.995  15.571  17.813  1.00  0.00     0.210 HD
ENDBRANCH   9  10
BRANCH   7  12
HETATM   12  O1  UNL     1      13.780  17.189  14.428  1.00  0.00    -0.393 OA
ATOM     13  H1  UNL     1      12.984  16.991  13.949  1.00  0.00     0.210 HD
ENDBRANCH   7  12
BRANCH   8  14
HETATM   14  O2  UNL     1      11.764  15.704  15.092  1.00  0.00    -0.390 OA
ATOM     15  H2  UNL     1      11.302  14.907  14.860  1.00  0.00     0.210 HD
ENDBRANCH   8  14
TORSDOF 3
ENDMDL