MODEL 1
REMARK VINA RESULT: -5.736789975      0.000      0.000
REMARK  3 active torsions:
REMARK  status: ('A' for Active; 'I' for Inactive)
REMARK    1  A    between atoms: O1_1  and  C1_3
REMARK    2  A    between atoms: C3_5  and  O2_6
REMARK    3  A    between atoms: C5_9  and  O3_10
ROOT
HETATM    1  C1  UNL     1      12.784  15.293  17.556  1.00  0.00     0.120 C
HETATM    2  C2  UNL     1      13.203  14.914  18.923  1.00  0.00     0.064 C
HETATM    3  C3  UNL     1      14.691  14.992  19.170  1.00  0.00     0.127 C
HETATM    4  C4  UNL     1      15.176  16.316  18.694  1.00  0.00     0.047 C
HETATM    5  C5  UNL     1      16.620  16.583  18.873  1.00  0.00     0.125 C
HETATM    6  C6  UNL     1      17.028  17.421  17.672  1.00  0.00     0.032 C
HETATM    7  C7  UNL     1      15.807  17.484  16.767  1.00  0.00     0.008 C
HETATM    8  C8  UNL     1      15.022  16.303  17.185  1.00  0.00    -0.003 C
HETATM    9  C9  UNL     1      13.563  16.357  16.891  1.00  0.00     0.037 C
ENDROOT
BRANCH   1  10
HETATM   10  O1  UNL     1      12.734  14.173  16.694  1.00  0.00    -0.395 OA
ATOM     11  H1  UNL     1      13.477  13.595  16.824  1.00  0.00     0.210 HD
ENDBRANCH   1  10
BRANCH   3  12
HETATM   12  O2  UNL     1      15.276  13.936  18.477  1.00  0.00    -0.395 OA
ATOM     13  H2  UNL     1      16.202  14.132  18.400  1.00  0.00     0.210 HD
ENDBRANCH   3  12
BRANCH   5  14
HETATM   14  O3  UNL     1      16.840  17.348  20.041  1.00  0.00    -0.395 OA
ATOM     15  H3  UNL     1      16.374  18.174  19.989  1.00  0.00     0.210 HD
ENDBRANCH   5  14
TORSDOF 3
ENDMDL