MODEL 1
REMARK VINA RESULT: -6.120084736      0.000      0.000
REMARK  3 active torsions:
REMARK  status: ('A' for Active; 'I' for Inactive)
REMARK    1  A    between atoms: C5_5  and  O1_7
REMARK    2  A    between atoms: C7_9  and  O2_10
REMARK    3  A    between atoms: C9_13  and  O3_14
ROOT
HETATM    1  C1  UNL     1      18.082  17.775  20.580  1.00  0.00     0.012 C
HETATM    2  C2  UNL     1      17.139  17.143  20.168  1.00  0.00    -0.110 C
HETATM    3  C3  UNL     1      16.026  16.372  19.676  1.00  0.00     0.096 C
HETATM    4  C4  UNL     1      15.635  16.727  18.250  1.00  0.00     0.059 C
HETATM    5  C5  UNL     1      14.652  15.632  17.816  1.00  0.00     0.081 C
HETATM    6  C6  UNL     1      14.437  15.791  16.350  1.00  0.00     0.049 C
HETATM    7  C7  UNL     1      13.417  15.793  18.639  1.00  0.00     0.154 C
HETATM    8  C8  UNL     1      13.730  15.685  20.093  1.00  0.00     0.067 C
HETATM    9  C9  UNL     1      14.803  16.670  20.525  1.00  0.00     0.136 C
ENDROOT
BRANCH   9  10
HETATM   10  O3  UNL     1      15.056  16.522  21.868  1.00  0.00    -0.394 OA
ATOM     11  H3  UNL     1      14.266  16.341  22.362  1.00  0.00     0.210 HD
ENDBRANCH   9  10
BRANCH   5  12
HETATM   12  O1  UNL     1      15.254  14.387  18.072  1.00  0.00    -0.388 OA
ATOM     13  H1  UNL     1      15.672  14.435  18.923  1.00  0.00     0.210 HD
ENDBRANCH   5  12
BRANCH   7  14
HETATM   14  O2  UNL     1      12.498  14.790  18.323  1.00  0.00    -0.392 OA
ATOM     15  H2  UNL     1      12.215  14.880  17.421  1.00  0.00     0.210 HD
ENDBRANCH   7  14
TORSDOF 3
ENDMDL