MODEL 2
REMARK VINA RESULT: -6.137286890      1.752      3.509
REMARK  2 active torsions:
REMARK  status: ('A' for Active; 'I' for Inactive)
REMARK    1  A    between atoms: O1_1  and  C1_3
REMARK    2  A    between atoms: C3_5  and  O2_6
ROOT
HETATM    1  C1  UNL     1      16.992  17.471  23.410  1.00  0.00     0.149 C
HETATM    2  C2  UNL     1      18.380  17.578  22.882  1.00  0.00     0.067 C
HETATM    3  C3  UNL     1      18.511  17.661  21.413  1.00  0.00     0.154 C
HETATM    4  C4  UNL     1      17.476  16.910  20.632  1.00  0.00     0.251 C
HETATM    5  C5  UNL     1      17.663  17.274  19.193  1.00  0.00     0.038 C
HETATM    6  C6  UNL     1      16.570  16.886  18.283  1.00  0.00     0.004 C
HETATM    7  C7  UNL     1      15.255  16.613  18.892  1.00  0.00     0.030 C
HETATM    8  C8  UNL     1      15.183  16.564  20.358  1.00  0.00     0.273 C
HETATM    9  N1  UNL     1      16.180  17.305  21.077  1.00  0.00     0.098 N
HETATM   10  C9  UNL     1      15.941  17.061  22.474  1.00  0.00     0.304 C
ENDROOT
BRANCH   1  11
HETATM   11  O1  UNL     1      17.016  16.569  24.489  1.00  0.00    -0.394 OA
ATOM     12  H1  UNL     1      16.612  15.760  24.197  1.00  0.00     0.210 HD
ENDBRANCH   1  11
BRANCH   3  13
HETATM   13  O2  UNL     1      19.768  17.169  20.999  1.00  0.00    -0.393 OA
ATOM     14  H2  UNL     1      19.753  16.221  20.945  1.00  0.00     0.210 HD
ENDBRANCH   3  13
TORSDOF 2
ENDMDL