MODEL 3
REMARK VINA RESULT: -5.219863753      1.270      2.836
REMARK  3 active torsions:
REMARK  status: ('A' for Active; 'I' for Inactive)
REMARK    1  A    between atoms: C6_6  and  O1_7
REMARK    2  A    between atoms: C7_9  and  O2_11
REMARK    3  A    between atoms: C9_13  and  O3_14
ROOT
HETATM    1  C1  UNL     1      13.704  16.042  20.573  1.00  0.00     0.017 C
HETATM    2  C2  UNL     1      14.132  15.815  19.130  1.00  0.00    -0.019 C
HETATM    3  C3  UNL     1      14.722  14.407  19.071  1.00  0.00     0.017 C
HETATM    4  C4  UNL     1      15.238  16.770  18.805  1.00  0.00     0.014 C
HETATM    5  C5  UNL     1      15.545  16.634  17.329  1.00  0.00     0.036 C
HETATM    6  C6  UNL     1      14.322  17.179  16.589  1.00  0.00     0.154 C
HETATM    7  C7  UNL     1      13.185  16.252  16.842  1.00  0.00     0.106 C
HETATM    8  C8  UNL     1      11.894  16.822  16.252  1.00  0.00     0.051 C
HETATM    9  C9  UNL     1      12.930  15.933  18.269  1.00  0.00     0.162 C
ENDROOT
BRANCH   7  10
HETATM   10  O2  UNL     1      13.431  15.066  16.136  1.00  0.00    -0.385 OA
ATOM     11  H2  UNL     1      12.906  14.379  16.529  1.00  0.00     0.210 HD
ENDBRANCH   7  10
BRANCH   6  12
HETATM   12  O1  UNL     1      14.652  17.154  15.234  1.00  0.00    -0.392 OA
ATOM     13  H1  UNL     1      14.328  16.325  14.902  1.00  0.00     0.210 HD
ENDBRANCH   6  12
BRANCH   9  14
HETATM   14  O3  UNL     1      12.016  16.858  18.771  1.00  0.00    -0.392 OA
ATOM     15  H3  UNL     1      11.172  16.461  18.956  1.00  0.00     0.210 HD
ENDBRANCH   9  14
TORSDOF 3
ENDMDL