MODEL 1
REMARK VINA RESULT: -5.794710483      0.000      0.000
REMARK  2 active torsions:
REMARK  status: ('A' for Active; 'I' for Inactive)
REMARK    1  A    between atoms: C7_7  and  O1_8
REMARK    2  A    between atoms: C8_10  and  O2_11
ROOT
HETATM    1  C1  UNL     1      12.973  16.438  21.125  1.00  0.00     0.010 C
HETATM    2  C2  UNL     1      14.010  15.788  20.282  1.00  0.00    -0.011 C
HETATM    3  C3  UNL     1      15.151  16.718  19.965  1.00  0.00     0.010 C
HETATM    4  C4  UNL     1      15.813  16.036  18.799  1.00  0.00    -0.009 C
HETATM    5  C5  UNL     1      15.692  16.873  17.534  1.00  0.00     0.012 C
HETATM    6  C6  UNL     1      14.872  15.767  16.939  1.00  0.00     0.022 C
HETATM    7  C7  UNL     1      13.418  16.077  16.709  1.00  0.00     0.151 C
HETATM    8  C8  UNL     1      12.914  16.432  18.114  1.00  0.00     0.152 C
HETATM    9  C9  UNL     1      13.545  15.358  18.929  1.00  0.00     0.025 C
HETATM   10  C10 UNL     1      14.872  15.038  18.238  1.00  0.00     0.003 C
ENDROOT
BRANCH   7  11
HETATM   11  O1  UNL     1      12.785  14.938  16.248  1.00  0.00    -0.393 OA
ATOM     12  H1  UNL     1      12.030  14.762  16.797  1.00  0.00     0.210 HD
ENDBRANCH   7  11
BRANCH   8  13
HETATM   13  O2  UNL     1      11.523  16.392  18.103  1.00  0.00    -0.393 OA
ATOM     14  H2  UNL     1      11.225  16.610  17.228  1.00  0.00     0.210 HD
ENDBRANCH   8  13
TORSDOF 2
ENDMDL