MODEL 5
REMARK VINA RESULT: -5.247951695      2.747      4.710
REMARK  3 active torsions:
REMARK  status: ('A' for Active; 'I' for Inactive)
REMARK    1  A    between atoms: O1_1  and  C1_3
REMARK    2  A    between atoms: C8_10  and  O2_11
REMARK    3  A    between atoms: C9_13  and  O3_14
ROOT
HETATM    1  C1  UNL     1      15.102  16.467  22.047  1.00  0.00     0.118 C
HETATM    2  C2  UNL     1      13.635  16.323  22.150  1.00  0.00     0.032 C
HETATM    3  C3  UNL     1      12.859  16.879  20.992  1.00  0.00     0.010 C
HETATM    4  C4  UNL     1      13.434  16.338  19.725  1.00  0.00     0.021 C
HETATM    5  C5  UNL     1      14.859  16.696  19.542  1.00  0.00    -0.003 C
HETATM    6  C6  UNL     1      15.657  16.902  20.761  1.00  0.00     0.037 C
HETATM    7  C7  UNL     1      15.370  15.516  18.702  1.00  0.00     0.039 C
HETATM    8  C8  UNL     1      14.771  14.354  19.442  1.00  0.00     0.147 C
HETATM    9  C9  UNL     1      13.334  14.830  19.642  1.00  0.00     0.151 C
ENDROOT
BRANCH   1  10
HETATM   10  O1  UNL     1      15.512  17.379  23.053  1.00  0.00    -0.396 OA
ATOM     11  H1  UNL     1      15.722  18.201  22.626  1.00  0.00     0.210 HD
ENDBRANCH   1  10
BRANCH   9  12
HETATM   12  O3  UNL     1      12.582  14.451  18.508  1.00  0.00    -0.393 OA
ATOM     13  H3  UNL     1      12.776  13.552  18.270  1.00  0.00     0.210 HD
ENDBRANCH   9  12
BRANCH   8  14
HETATM   14  O2  UNL     1      14.827  13.176  18.714  1.00  0.00    -0.393 OA
ATOM     15  H2  UNL     1      14.837  12.405  19.269  1.00  0.00     0.210 HD
ENDBRANCH   8  14
TORSDOF 3
ENDMDL