MODEL 5
REMARK VINA RESULT: -5.275065883      1.807      4.781
REMARK  1 active torsions:
REMARK  status: ('A' for Active; 'I' for Inactive)
REMARK    1  A    between atoms: C2_2  and  C4_7
ROOT
HETATM    1  C1  UNL     1      15.125 -14.194  41.992  1.00  0.00     0.066 C
HETATM    2  C2  UNL     1      13.751 -13.666  41.804  1.00  0.00     0.015 C
HETATM    3  N1  UNL     1      13.301 -12.911  42.743  1.00  0.00    -0.300 N
ATOM      4  H1  UNL     1      12.358 -12.536  42.636  1.00  0.00     0.177 HD
HETATM    5  C3  UNL     1      14.003 -12.570  43.891  1.00  0.00     0.181 C
HETATM    6  N2  UNL     1      14.586 -12.269  44.832  1.00  0.00    -0.172 NA
ENDROOT
BRANCH   2   7
HETATM    7  C4  UNL     1      12.889 -13.939  40.649  1.00  0.00     0.129 C
HETATM    8  C5  UNL     1      13.250 -15.269  40.042  1.00  0.00     0.038 C
HETATM    9  C6  UNL     1      11.996 -15.844  39.453  1.00  0.00     0.078 C
HETATM   10  C7  UNL     1      10.918 -14.994  40.063  1.00  0.00     0.071 C
HETATM   11  N3  UNL     1       9.678 -15.146  39.733  1.00  0.00    -0.389 N
HETATM   12  N4  UNL     1      11.506 -14.088  40.977  1.00  0.00    -0.370 N
ATOM     13  H32 UNL     1       9.253 -15.799  39.074  1.00  0.00     0.157 HD
ATOM     14  H31 UNL     1       8.946 -14.569  40.147  1.00  0.00     0.157 HD
ATOM     15  H4  UNL     1      11.024 -13.619  41.743  1.00  0.00     0.161 HD
ENDBRANCH   2   7
TORSDOF 1
ENDMDL