MODEL 2
REMARK VINA RESULT: -4.802003737      1.902      3.631
REMARK  1 active torsions:
REMARK  status: ('A' for Active; 'I' for Inactive)
REMARK    1  A    between atoms: C2_2  and  C4_4
ROOT
HETATM    1  C4  UNL     1      16.617 -10.083  45.987  1.00  0.00     0.117 C
HETATM    2  C5  UNL     1      17.518  -9.852  47.183  1.00  0.00     0.065 C
HETATM    3  N1  UNL     1      15.549 -10.909  46.435  1.00  0.00    -0.311 N
ATOM      4  H1  UNL     1      15.235 -10.850  47.404  1.00  0.00     0.182 HD
HETATM    5  N2  UNL     1      15.004 -11.689  45.666  1.00  0.00    -0.332 N
ATOM      6  H2  UNL     1      14.239 -12.270  46.011  1.00  0.00     0.180 HD
HETATM    7  C6  UNL     1      15.403 -11.812  44.305  1.00  0.00     0.211 C
HETATM    8  C7  UNL     1      16.872 -11.542  44.133  1.00  0.00     0.110 C
HETATM    9  N3  UNL     1      17.566 -12.203  43.096  1.00  0.00    -0.086 NA
HETATM   10  N4  UNL     1      17.393 -10.721  44.950  1.00  0.00    -0.353 N
ATOM     11  H4  UNL     1      18.387 -10.507  44.871  1.00  0.00     0.163 HD
ENDROOT
BRANCH   1  12
HETATM   12  C2  UNL     1      16.054  -8.803  45.441  1.00  0.00     0.027 C
HETATM   13  C1  UNL     1      15.336  -7.978  46.474  1.00  0.00     0.014 C
HETATM   14  C3  UNL     1      17.123  -7.928  44.814  1.00  0.00     0.014 C
ENDBRANCH   1  12
TORSDOF 1
ENDMDL