MODEL 2
REMARK VINA RESULT: -4.929571659      3.648      5.131
REMARK  2 active torsions:
REMARK  status: ('A' for Active; 'I' for Inactive)
REMARK    1  A    between atoms: C2_2  and  N2_6
REMARK    2  A    between atoms: N3_8  and  N4_10
ROOT
HETATM    1  N2  UNL     1      13.852 -12.710  43.578  1.00  0.00    -0.275 N
ATOM      2  H2  UNL     1      13.015 -12.899  44.129  1.00  0.00     0.189 HD
HETATM    3  N3  UNL     1      13.859 -12.890  42.323  1.00  0.00    -0.238 N
ATOM      4  H3  UNL     1      14.688 -12.704  41.758  1.00  0.00     0.208 HD
ENDROOT
BRANCH   3   5
HETATM    5  N4  UNL     1      12.654 -13.361  41.746  1.00  0.00    -0.272 N
HETATM    6  C3  UNL     1      11.350 -12.999  42.152  1.00  0.00     0.197 C
HETATM    7  N5  UNL     1      10.450 -13.304  41.282  1.00  0.00    -0.379 N
HETATM    8  C4  UNL     1      11.116 -13.931  40.156  1.00  0.00     0.098 C
ATOM      9  H5  UNL     1       9.449 -13.134  41.369  1.00  0.00     0.160 HD
HETATM   10  C5  UNL     1      10.356 -15.117  39.640  1.00  0.00     0.034 C
HETATM   11  C6  UNL     1      12.504 -14.290  40.645  1.00  0.00     0.176 C
ENDBRANCH   3   5
BRANCH   1  12
HETATM   12  C2  UNL     1      15.037 -12.239  44.194  1.00  0.00     0.086 C
HETATM   13  C1  UNL     1      16.330 -12.370  43.486  1.00  0.00     0.090 C
HETATM   14  N1  UNL     1      15.031 -11.695  45.363  1.00  0.00    -0.388 N
ATOM     15  H12 UNL     1      15.884 -11.356  45.807  1.00  0.00     0.157 HD
ATOM     16  H11 UNL     1      14.140 -11.604  45.851  1.00  0.00     0.157 HD
ENDBRANCH   1  12
TORSDOF 2
ENDMDL