MODEL 2
REMARK VINA RESULT: -4.284481578      1.498      2.666
REMARK  2 active torsions:
REMARK  status: ('A' for Active; 'I' for Inactive)
REMARK    1  A    between atoms: C2_2  and  C3_3
REMARK    2  A    between atoms: N2_6  and  O1_7
ROOT
HETATM    1  C3  UNL     1      15.294 -12.791  44.750  1.00  0.00     0.092 C
HETATM    2  C4  UNL     1      14.252 -12.741  43.686  1.00  0.00     0.047 C
HETATM    3  N1  UNL     1      15.147 -11.784  45.750  1.00  0.00    -0.118 NA
HETATM    4  N2  UNL     1      15.415 -10.556  45.231  1.00  0.00    -0.101 NA
HETATM    5  C5  UNL     1      16.753 -10.518  44.696  1.00  0.00     0.217 C
HETATM    6  S1  UNL     1      16.910 -12.239  44.064  1.00  0.00    -0.122 SA
ENDROOT
BRANCH   1   7
HETATM    7  C2  UNL     1      15.425 -14.133  45.415  1.00  0.00     0.034 C
HETATM    8  C1  UNL     1      15.947 -14.058  46.818  1.00  0.00     0.008 C
ENDBRANCH   1   7
BRANCH   4   9
HETATM    9  O1  UNL     1      15.365  -9.654  46.242  1.00  0.00    -0.296 OA
ATOM     10  H1  UNL     1      14.955  -8.863  45.911  1.00  0.00     0.238 HD
ENDBRANCH   4   9
TORSDOF 2
ENDMDL