MODEL 1
REMARK VINA RESULT: -5.820827360      0.000      0.000
REMARK  2 active torsions:
REMARK  status: ('A' for Active; 'I' for Inactive)
REMARK    1  A    between atoms: C4_4  and  N1_5
REMARK    2  A    between atoms: N1_5  and  C5_7
ROOT
HETATM    1  C5  UNL     1      14.505 -12.877  43.262  1.00  0.00     0.690 A
HETATM    2  N2  UNL     1      15.734 -12.524  43.152  1.00  0.00    -0.208 N
ATOM      3  H2  UNL     1      16.333 -12.668  42.338  1.00  0.00     0.179 HD
HETATM    4  C6  UNL     1      16.110 -11.888  44.389  1.00  0.00     0.279 A
HETATM    5  N3  UNL     1      14.928 -11.930  45.211  1.00  0.00    -0.304 N
ATOM      6  H3  UNL     1      14.839 -11.566  46.159  1.00  0.00     0.182 HD
HETATM    7  N4  UNL     1      14.024 -12.501  44.543  1.00  0.00    -0.135 N
ATOM      8  H4  UNL     1      13.074 -12.669  44.877  1.00  0.00     0.205 HD
ENDROOT
BRANCH   1   9
HETATM    9  N1  UNL     1      13.742 -13.539  42.263  1.00  0.00    -0.220 N
ATOM     10  H1  UNL     1      14.007 -14.470  41.943  1.00  0.00     0.178 HD
BRANCH   9  11
HETATM   11  C4  UNL     1      12.580 -12.875  41.704  1.00  0.00     0.099 C
HETATM   12  C3  UNL     1      12.145 -13.465  40.391  1.00  0.00     0.026 C
HETATM   13  C2  UNL     1      10.654 -13.605  40.424  1.00  0.00     0.002 C
HETATM   14  C1  UNL     1      10.239 -12.739  41.594  1.00  0.00     0.002 C
HETATM   15  C7  UNL     1      11.370 -13.032  42.589  1.00  0.00     0.026 C
ENDBRANCH   9  11
ENDBRANCH   1   9
TORSDOF 2
ENDMDL