MODEL 3
REMARK VINA RESULT: -4.805419501      1.232      1.400
REMARK  2 active torsions:
REMARK  status: ('A' for Active; 'I' for Inactive)
REMARK    1  A    between atoms: C2_2  and  C3_3
REMARK    2  A    between atoms: C3_3  and  O1_4
ROOT
HETATM    1  C3  UNL     1      16.440 -10.619  45.246  1.00  0.00     0.316 C
HETATM    2  N1  UNL     1      15.276  -9.804  45.086  1.00  0.00    -0.282 N
ATOM      3  H1  UNL     1      14.431 -10.239  44.716  1.00  0.00     0.185 HD
HETATM    4  N2  UNL     1      15.237  -8.615  45.367  1.00  0.00    -0.326 N
ATOM      5  H2  UNL     1      14.364  -8.108  45.221  1.00  0.00     0.180 HD
HETATM    6  C4  UNL     1      16.347  -7.915  45.885  1.00  0.00     0.062 C
HETATM    7  C5  UNL     1      15.868  -6.915  46.960  1.00  0.00     0.041 C
HETATM    8  C6  UNL     1      16.895  -7.009  44.784  1.00  0.00     0.041 C
HETATM    9  C7  UNL     1      17.372  -8.832  46.430  1.00  0.00     0.270 C
HETATM   10  N3  UNL     1      17.039 -10.218  46.504  1.00  0.00    -0.020 N
ATOM     11  H31 UNL     1      17.838 -10.799  46.758  1.00  0.00     0.283 HD
ATOM     12  H32 UNL     1      16.445 -10.436  47.305  1.00  0.00     0.283 HD
ENDROOT
BRANCH   1  13
HETATM   13  C2  UNL     1      15.999 -12.057  45.243  1.00  0.00     0.090 C
HETATM   14  C1  UNL     1      14.817 -12.320  44.365  1.00  0.00     0.012 C
ENDBRANCH   1  13
BRANCH   1  15
HETATM   15  O1  UNL     1      17.320 -10.478  44.173  1.00  0.00    -0.348 OA
ATOM     16  H1  UNL     1      18.083 -10.026  44.512  1.00  0.00     0.214 HD
ENDBRANCH   1  15
TORSDOF 2
ENDMDL