MODEL 2
REMARK VINA RESULT: -4.258975629      1.133      1.301
REMARK  2 active torsions:
REMARK  status: ('A' for Active; 'I' for Inactive)
REMARK    1  A    between atoms: O1_1  and  N1_3
REMARK    2  A    between atoms: C3_6  and  S1_7
ROOT
HETATM    1  N1  UNL     1      10.032 -13.708  41.387  1.00  0.00    -0.199 NA
HETATM    2  C1  UNL     1      10.847 -14.450  40.427  1.00  0.00     0.121 C
HETATM    3  C2  UNL     1      11.826 -13.337  40.016  1.00  0.00     0.034 C
HETATM    4  C3  UNL     1      12.197 -12.822  41.407  1.00  0.00     0.076 C
HETATM    5  C4  UNL     1      11.058 -13.243  42.311  1.00  0.00     0.136 C
ENDROOT
BRANCH   1   6
HETATM    6  O1  UNL     1       9.150 -14.539  41.952  1.00  0.00    -0.313 OA
ATOM      7  H1  UNL     1       8.329 -14.496  41.476  1.00  0.00     0.237 HD
ENDBRANCH   1   6
BRANCH   4   8
HETATM    8  S1  UNL     1      13.780 -13.461  41.937  1.00  0.00    -0.079 SA
HETATM    9  S2  UNL     1      14.210 -12.733  43.901  1.00  0.00    -0.013 SA
ENDBRANCH   4   8
TORSDOF 2
ENDMDL