MODEL 4
REMARK VINA RESULT: -5.019799446      3.350      5.253
REMARK  5 active torsions:
REMARK  status: ('A' for Active; 'I' for Inactive)
REMARK    1  A    between atoms: C2_2  and  O1_3
REMARK    2  A    between atoms: O1_3  and  C3_4
REMARK    3  A    between atoms: C3_4  and  N2_9
REMARK    4  A    between atoms: N1_5  and  O2_7
REMARK    5  A    between atoms: N2_9  and  N3_11
ROOT
HETATM    1  C3  UNL     1      14.503 -12.696  44.166  1.00  0.00     0.258 C
HETATM    2  N1  UNL     1      15.466 -13.482  43.883  1.00  0.00    -0.231 N
ATOM      3  H1  UNL     1      16.361 -13.327  44.346  1.00  0.00     0.198 HD
ENDROOT
BRANCH   1   4
HETATM    4  O1  UNL     1      14.736 -11.695  45.076  1.00  0.00    -0.320 OA
BRANCH   4   5
HETATM    5  C2  UNL     1      15.947 -11.081  45.344  1.00  0.00     0.174 C
HETATM    6  C1  UNL     1      15.958  -9.589  45.185  1.00  0.00     0.034 C
ENDBRANCH   4   5
ENDBRANCH   1   4
BRANCH   1   7
HETATM    7  N2  UNL     1      13.243 -12.888  43.536  1.00  0.00    -0.264 N
ATOM      8  H2  UNL     1      12.395 -12.924  44.101  1.00  0.00     0.190 HD
BRANCH   7   9
HETATM    9  N3  UNL     1      13.159 -13.025  42.171  1.00  0.00    -0.307 N
HETATM   10  C4  UNL     1      12.008 -13.111  41.615  1.00  0.00    -0.004 C
HETATM   11  C5  UNL     1      10.789 -13.062  42.446  1.00  0.00     0.064 C
HETATM   12  C6  UNL     1      11.902 -13.260  40.155  1.00  0.00     0.064 C
ATOM     13  H3  UNL     1      14.006 -13.057  41.605  1.00  0.00     0.186 HD
ENDBRANCH   7   9
ENDBRANCH   1   7
BRANCH   2  14
HETATM   14  O2  UNL     1      15.375 -14.527  42.990  1.00  0.00    -0.287 OA
ATOM     15  H2  UNL     1      16.118 -14.916  42.547  1.00  0.00     0.244 HD
ENDBRANCH   2  14
TORSDOF 5
ENDMDL