MODEL 1
REMARK VINA RESULT: -5.472074201      0.000      0.000
REMARK  4 active torsions:
REMARK  status: ('A' for Active; 'I' for Inactive)
REMARK    1  A    between atoms: N1_1  and  O1_4
REMARK    2  A    between atoms: O1_4  and  C1_5
REMARK    3  A    between atoms: C1_5  and  C2_10
REMARK    4  A    between atoms: N2_6  and  O2_8
ROOT
HETATM    1  C1  UNL     1      15.485 -11.427  45.358  1.00  0.00     0.169 C
HETATM    2  N2  UNL     1      15.563 -11.440  46.622  1.00  0.00    -0.249 N
ATOM      3  H2  UNL     1      15.517 -10.537  47.095  1.00  0.00     0.196 HD
ENDROOT
BRANCH   1   4
HETATM    4  O1  UNL     1      15.343 -10.160  44.757  1.00  0.00    -0.229 OA
BRANCH   4   5
HETATM    5  N1  UNL     1      15.322  -9.018  45.538  1.00  0.00    -0.304 N
ATOM      6  H12 UNL     1      14.686  -8.975  46.334  1.00  0.00     0.184 HD
ATOM      7  H11 UNL     1      15.936  -8.233  45.316  1.00  0.00     0.184 HD
ENDBRANCH   4   5
ENDBRANCH   1   4
BRANCH   1   8
HETATM    8  C2  UNL     1      15.525 -12.575  44.445  1.00  0.00     0.065 C
HETATM    9  C3  UNL     1      14.107 -12.822  43.960  1.00  0.00     0.013 C
HETATM   10  C4  UNL     1      14.083 -13.161  42.478  1.00  0.00     0.001 C
HETATM   11  C5  UNL     1      15.077 -14.271  42.264  1.00  0.00     0.000 C
HETATM   12  C6  UNL     1      16.458 -13.769  42.548  1.00  0.00     0.001 C
HETATM   13  C7  UNL     1      16.435 -12.415  43.277  1.00  0.00     0.013 C
ENDBRANCH   1   8
BRANCH   2  14
HETATM   14  O2  UNL     1      15.703 -12.530  47.406  1.00  0.00    -0.288 OA
ATOM     15  H2  UNL     1      15.711 -12.545  48.356  1.00  0.00     0.244 HD
ENDBRANCH   2  14
TORSDOF 4
ENDMDL