MODEL 3
REMARK VINA RESULT: -8.838674315      3.011      5.079
REMARK  16 active torsions:
REMARK  status: ('A' for Active; 'I' for Inactive)
REMARK    1  A    between atoms: N1_2  and  C3_4
REMARK    2  A    between atoms: C3_4  and  C4_5
REMARK    3  A    between atoms: C4_5  and  C5_6
REMARK    4  A    between atoms: C5_6  and  N2_7
REMARK    5  A    between atoms: N2_7  and  S1_9
REMARK    6  A    between atoms: S1_9  and  C6_12
REMARK    7  A    between atoms: C8_16  and  C9_17
REMARK       I    between atoms: C9_17  and  N4_19
REMARK    8  A    between atoms: N4_19  and  C10_21
REMARK    9  A    between atoms: C10_21  and  C11_22
REMARK       I    between atoms: C11_22  and  N5_24
REMARK   10  A    between atoms: N5_24  and  C12_26
REMARK   11  A    between atoms: C12_26  and  C13_27
REMARK   12  A    between atoms: C13_27  and  C14_28
REMARK   13  A    between atoms: C15_29  and  N6_30
REMARK   14  A    between atoms: C16_35  and  C17_36
REMARK   15  A    between atoms: C17_36  and  O5_37
REMARK   16  A    between atoms: O5_37  and  C18_38
ROOT
HETATM    1  C11 UNL     1      37.039  -7.826   2.493  1.00  0.00     0.235 C
HETATM    2  O4  UNL     1      36.693  -7.211   3.550  1.00  0.00    -0.272 OA
HETATM    3  N5  UNL     1      38.133  -7.310   1.766  1.00  0.00    -0.359 N
ATOM      4  H5  UNL     1      38.432  -7.766   0.904  1.00  0.00     0.162 HD
ENDROOT
BRANCH   3   5
HETATM    5  C12 UNL     1      38.827  -6.140   2.240  1.00  0.00     0.127 C
BRANCH   5   6
HETATM    6  C13 UNL     1      38.480  -4.862   1.594  1.00  0.00     0.063 C
BRANCH   6   7
HETATM    7  C14 UNL     1      37.509  -4.831   0.520  1.00  0.00    -0.002 A
HETATM    8  C15 UNL     1      36.154  -4.720   0.810  1.00  0.00     0.106 A
HETATM    9  N7  UNL     1      35.216  -4.856  -0.146  1.00  0.00    -0.343 N
HETATM   10  C16 UNL     1      35.538  -5.098  -1.413  1.00  0.00     0.046 A
ATOM     11  H7  UNL     1      34.232  -4.772   0.109  1.00  0.00     0.167 HD
HETATM   12  C24 UNL     1      36.858  -5.207  -1.765  1.00  0.00    -0.000 A
HETATM   13  C25 UNL     1      37.178  -5.541  -3.058  1.00  0.00     0.014 A
HETATM   14  C29 UNL     1      37.871  -5.075  -0.794  1.00  0.00    -0.014 A
HETATM   15  C26 UNL     1      38.509  -5.739  -3.386  1.00  0.00     0.001 A
HETATM   16  C27 UNL     1      39.504  -5.615  -2.460  1.00  0.00     0.001 A
HETATM   17  C28 UNL     1      39.183  -5.275  -1.138  1.00  0.00     0.013 A
BRANCH   8  18
HETATM   18  N6  UNL     1      35.787  -4.457   2.001  1.00  0.00    -0.385 N
ATOM     19  H62 UNL     1      36.100  -3.588   2.433  1.00  0.00     0.157 HD
ATOM     20  H61 UNL     1      35.207  -5.127   2.507  1.00  0.00     0.157 HD
ENDBRANCH   8  18
BRANCH  10  21
HETATM   21  C17 UNL     1      34.428  -5.243  -2.477  1.00  0.00     0.233 C
BRANCH  21  22
HETATM   22  O5  UNL     1      34.018  -6.508  -2.377  1.00  0.00    -0.345 OA
BRANCH  22  23
HETATM   23  C18 UNL     1      34.010  -7.781  -2.168  1.00  0.00     0.071 A
HETATM   24  C19 UNL     1      33.944  -8.430  -0.963  1.00  0.00     0.040 A
HETATM   25  C20 UNL     1      33.974  -9.789  -0.875  1.00  0.00     0.047 A
HETATM   26  C21 UNL     1      34.071 -10.533  -2.011  1.00  0.00     0.138 A
HETATM   27  F1  UNL     1      34.135 -11.888  -1.866  1.00  0.00    -0.204 F
HETATM   28  C22 UNL     1      34.136  -9.954  -3.258  1.00  0.00     0.075 A
HETATM   29 CL1  UNL     1      34.269 -10.970  -4.672  1.00  0.00    -0.081 Cl
HETATM   30  C23 UNL     1      34.106  -8.602  -3.331  1.00  0.00     0.063 A
ENDBRANCH  22  23
ENDBRANCH  21  22
ENDBRANCH  10  21
ENDBRANCH   6   7
ENDBRANCH   5   6
ENDBRANCH   3   5
BRANCH   1  31
HETATM   31  C10 UNL     1      36.245  -9.058   2.113  1.00  0.00     0.225 C
BRANCH  31  32
HETATM   32  N4  UNL     1      36.622 -10.038   3.155  1.00  0.00    -0.347 N
HETATM   33  C9  UNL     1      35.774 -11.121   3.339  1.00  0.00     0.268 C
HETATM   34  O3  UNL     1      34.790 -11.225   2.505  1.00  0.00    -0.266 OA
ATOM     35  H4  UNL     1      37.468  -9.922   3.714  1.00  0.00     0.163 HD
BRANCH  33  36
HETATM   36  C8  UNL     1      35.870 -12.131   4.390  1.00  0.00     0.102 A
HETATM   37  N3  UNL     1      35.299 -13.296   4.600  1.00  0.00    -0.360 N
HETATM   38  C7  UNL     1      35.913 -13.975   5.627  1.00  0.00     0.113 A
ATOM     39  H3  UNL     1      34.503 -13.651   4.071  1.00  0.00     0.165 HD
HETATM   40  C6  UNL     1      36.932 -13.194   6.098  1.00  0.00     0.097 A
HETATM   41  C30 UNL     1      36.908 -12.048   5.344  1.00  0.00     0.062 A
BRANCH  40  42
HETATM   42  S1  UNL     1      38.194 -13.524   7.271  1.00  0.00     0.260 S
HETATM   43  O1  UNL     1      38.091 -14.969   7.709  1.00  0.00    -0.200 OA
HETATM   44  O2  UNL     1      39.558 -13.374   6.644  1.00  0.00    -0.200 OA
BRANCH  42  45
HETATM   45  N2  UNL     1      38.089 -12.502   8.652  1.00  0.00    -0.315 N
ATOM     46  H2  UNL     1      37.306 -12.416   9.300  1.00  0.00     0.172 HD
BRANCH  45  47
HETATM   47  C5  UNL     1      39.345 -11.790   8.698  1.00  0.00     0.137 C
BRANCH  47  48
HETATM   48  C4  UNL     1      40.021 -11.717  10.013  1.00  0.00     0.064 C
BRANCH  48  49
HETATM   49  C3  UNL     1      41.374 -12.381   9.876  1.00  0.00     0.058 C
BRANCH  49  50
HETATM   50  N1  UNL     1      41.376 -13.736   9.525  1.00  0.00    -0.402 N
HETATM   51  C1  UNL     1      40.728 -14.678  10.335  1.00  0.00     0.148 C
HETATM   52  C2  UNL     1      42.323 -14.183   8.568  1.00  0.00     0.148 C
ENDBRANCH  49  50
ENDBRANCH  48  49
ENDBRANCH  47  48
ENDBRANCH  45  47
ENDBRANCH  42  45
ENDBRANCH  40  42
ENDBRANCH  33  36
ENDBRANCH  31  32
ENDBRANCH   1  31
TORSDOF 16
ENDMDL