MODEL 1
REMARK VINA RESULT: -8.271509344      0.000      0.000
REMARK  15 active torsions:
REMARK  status: ('A' for Active; 'I' for Inactive)
REMARK    1  A    between atoms: C3_4  and  O1_5
REMARK    2  A    between atoms: O1_5  and  C4_6
REMARK    3  A    between atoms: C4_6  and  C5_7
REMARK    4  A    between atoms: C5_7  and  C6_8
REMARK    5  A    between atoms: C6_8  and  O2_9
REMARK    6  A    between atoms: O2_9  and  C7_10
REMARK    7  A    between atoms: C16_21  and  C17_22
REMARK       I    between atoms: C17_22  and  N2_24
REMARK    8  A    between atoms: C19_27  and  C20_28
REMARK    9  A    between atoms: C20_28  and  C21_29
REMARK   10  A    between atoms: C21_29  and  C22_30
REMARK   11  A    between atoms: C22_30  and  N3_31
REMARK       I    between atoms: N3_31  and  C23_33
REMARK   12  A    between atoms: C25_42  and  C26_43
REMARK   13  A    between atoms: C26_43  and  C27_44
REMARK   14  A    between atoms: C27_44  and  C28_45
REMARK   15  A    between atoms: C28_45  and  N7_46
ROOT
HETATM    1  N1  UNL     1      33.228  -6.543  -1.290  1.00  0.00    -0.191 NA
HETATM    2  C1  UNL     1      33.466  -7.643  -1.450  1.00  0.00     0.103 C
HETATM    3  C2  UNL     1      33.783  -9.043  -1.632  1.00  0.00     0.093 A
HETATM    4  C3  UNL     1      34.418  -9.747  -0.612  1.00  0.00     0.090 A
HETATM    5  C13 UNL     1      34.738 -11.082  -0.713  1.00  0.00     0.038 A
HETATM    6  C14 UNL     1      34.417 -11.753  -1.871  1.00  0.00     0.004 A
HETATM    7  C15 UNL     1      33.795 -11.100  -2.891  1.00  0.00     0.019 A
HETATM    8  C16 UNL     1      33.475  -9.745  -2.781  1.00  0.00     0.056 A
ENDROOT
BRANCH   4   9
HETATM    9  O1  UNL     1      34.730  -9.041   0.540  1.00  0.00    -0.349 OA
BRANCH   9  10
HETATM   10  C4  UNL     1      35.766  -9.480   1.362  1.00  0.00     0.178 C
BRANCH  10  11
HETATM   11  C5  UNL     1      35.513  -9.054   2.803  1.00  0.00     0.053 C
BRANCH  11  12
HETATM   12  C6  UNL     1      36.819  -8.596   3.383  1.00  0.00     0.178 C
BRANCH  12  13
HETATM   13  O2  UNL     1      37.060  -7.254   3.276  1.00  0.00    -0.349 OA
BRANCH  13  14
HETATM   14  C7  UNL     1      37.529  -6.442   2.319  1.00  0.00     0.090 A
HETATM   15  C8  UNL     1      38.371  -6.765   1.281  1.00  0.00     0.040 A
HETATM   16  C9  UNL     1      38.802  -5.848   0.338  1.00  0.00     0.026 A
HETATM   17  C10 UNL     1      38.381  -4.542   0.424  1.00  0.00     0.035 A
HETATM   18 CL1  UNL     1      38.927  -3.388  -0.770  1.00  0.00    -0.084 Cl
HETATM   19  C11 UNL     1      37.536  -4.170   1.448  1.00  0.00     0.050 A
HETATM   20  C12 UNL     1      37.126  -5.100   2.363  1.00  0.00     0.069 A
HETATM   21 CL2  UNL     1      36.058  -4.564   3.633  1.00  0.00    -0.081 Cl
ENDBRANCH  13  14
ENDBRANCH  12  13
ENDBRANCH  11  12
ENDBRANCH  10  11
ENDBRANCH   9  10
ENDBRANCH   4   9
BRANCH   8  22
HETATM   22  C17 UNL     1      32.820  -9.086  -3.894  1.00  0.00     0.263 C
HETATM   23  O3  UNL     1      31.576  -9.192  -3.950  1.00  0.00    -0.267 OA
HETATM   24  N2  UNL     1      33.470  -8.338  -4.924  1.00  0.00    -0.268 N
HETATM   25  C18 UNL     1      34.890  -8.343  -4.831  1.00  0.00     0.250 C
HETATM   26  C25 UNL     1      32.834  -7.683  -5.992  1.00  0.00     0.188 C
HETATM   27  O4  UNL     1      35.561  -8.515  -3.806  1.00  0.00    -0.271 OA
HETATM   28  C19 UNL     1      35.678  -8.108  -6.146  1.00  0.00     0.177 C
HETATM   29  N6  UNL     1      35.134  -6.766  -6.443  1.00  0.00    -0.346 N
HETATM   30  C24 UNL     1      33.740  -6.694  -6.632  1.00  0.00     0.241 C
ATOM     31  H6  UNL     1      35.732  -5.941  -6.507  1.00  0.00     0.163 HD
HETATM   32  O5  UNL     1      33.262  -5.765  -7.363  1.00  0.00    -0.271 OA
BRANCH  28  33
HETATM   33  C20 UNL     1      37.107  -8.169  -5.871  1.00  0.00     0.036 C
BRANCH  33  34
HETATM   34  C21 UNL     1      37.814  -6.864  -5.919  1.00  0.00     0.022 C
BRANCH  34  35
HETATM   35  C22 UNL     1      38.171  -6.292  -4.609  1.00  0.00     0.122 C
BRANCH  35  36
HETATM   36  N3  UNL     1      37.261  -5.166  -4.332  1.00  0.00    -0.365 N
HETATM   37  C23 UNL     1      36.588  -5.097  -3.109  1.00  0.00     0.181 C
HETATM   38  N4  UNL     1      36.382  -6.126  -2.352  1.00  0.00    -0.374 N
HETATM   39  N5  UNL     1      36.099  -3.840  -2.664  1.00  0.00    -0.064 NA
ATOM     40  H42 UNL     1      36.733  -7.028  -2.671  1.00  0.00     0.158 HD
ATOM     41  H41 UNL     1      35.891  -6.074  -1.459  1.00  0.00     0.158 HD
ATOM     42  H3  UNL     1      37.122  -4.439  -5.034  1.00  0.00     0.162 HD
ENDBRANCH  35  36
ENDBRANCH  34  35
ENDBRANCH  33  34
ENDBRANCH  28  33
BRANCH  26  43
HETATM   43  C26 UNL     1      31.463  -7.129  -5.829  1.00  0.00     0.037 C
BRANCH  43  44
HETATM   44  C27 UNL     1      30.398  -7.590  -6.736  1.00  0.00     0.022 C
BRANCH  44  45
HETATM   45  C28 UNL     1      29.648  -6.327  -7.206  1.00  0.00     0.122 C
BRANCH  45  46
HETATM   46  N7  UNL     1      30.510  -5.502  -8.021  1.00  0.00    -0.367 N
HETATM   47  C29 UNL     1      30.156  -5.308  -9.247  1.00  0.00     0.196 C
HETATM   48  N8  UNL     1      31.037  -4.481 -10.032  1.00  0.00    -0.067 NA
HETATM   49  N9  UNL     1      28.999  -5.838  -9.847  1.00  0.00    -0.067 NA
ATOM     50  H7  UNL     1      31.363  -5.090  -7.644  1.00  0.00     0.161 HD
ENDBRANCH  45  46
ENDBRANCH  44  45
ENDBRANCH  43  44
ENDBRANCH  26  43
ENDBRANCH   8  22
TORSDOF 15
ENDMDL