MODEL 4
REMARK VINA RESULT: -7.878482473      1.731      2.385
REMARK  18 active torsions:
REMARK  status: ('A' for Active; 'I' for Inactive)
REMARK    1  A    between atoms: C2_2  and  C3_3
REMARK    2  A    between atoms: C3_3  and  C4_7
REMARK    3  A    between atoms: C4_7  and  O1_8
REMARK    4  A    between atoms: C4_7  and  C5_10
REMARK    5  A    between atoms: C6_11  and  C7_12
REMARK    6  A    between atoms: C7_12  and  C8_14
REMARK    7  A    between atoms: C9_15  and  C10_16
REMARK    8  A    between atoms: C11_17  and  N2_18
REMARK    9  A    between atoms: N3_27  and  C16_28
REMARK   10  A    between atoms: C16_28  and  C17_29
REMARK   11  A    between atoms: C17_29  and  C19_31
REMARK       I    between atoms: C19_31  and  N4_33
REMARK       I    between atoms: N4_33  and  C20_35
REMARK   12  A    between atoms: C20_35  and  C21_37
REMARK   13  A    between atoms: C21_37  and  N5_38
REMARK   14  A    between atoms: C21_37  and  C22_46
REMARK   15  A    between atoms: N5_38  and  S1_40
REMARK   16  A    between atoms: S1_40  and  N6_41
REMARK   17  A    between atoms: C25_49  and  C26_50
REMARK   18  A    between atoms: C27_51  and  C28_52
ROOT
HETATM    1  C10 UNL     1      37.769  -4.890  -1.432  1.00  0.00     0.068 C
HETATM    2  C11 UNL     1      37.565  -3.433  -1.318  1.00  0.00     0.229 C
HETATM    3  C12 UNL     1      36.349  -2.880  -1.945  1.00  0.00     0.228 C
HETATM    4  F2  UNL     1      36.632  -2.361  -3.215  1.00  0.00    -0.245 F
HETATM    5  C13 UNL     1      35.169  -3.822  -2.068  1.00  0.00     0.058 C
HETATM    6  C14 UNL     1      34.388  -3.790  -0.779  1.00  0.00     0.041 C
HETATM    7  C15 UNL     1      34.256  -3.125  -3.092  1.00  0.00     0.041 C
HETATM    8  N3  UNL     1      35.506  -5.129  -2.420  1.00  0.00    -0.372 N
HETATM    9  C25 UNL     1      36.838  -5.561  -2.426  1.00  0.00     0.116 C
ENDROOT
BRANCH   8  10
HETATM   10  C16 UNL     1      34.669  -5.906  -3.245  1.00  0.00     0.073 C
BRANCH  10  11
HETATM   11  C17 UNL     1      33.945  -7.052  -2.603  1.00  0.00     0.112 C
HETATM   12  C18 UNL     1      34.429  -7.260  -1.211  1.00  0.00     0.025 C
BRANCH  11  13
HETATM   13  C19 UNL     1      34.080  -8.263  -3.485  1.00  0.00     0.233 C
HETATM   14  O2  UNL     1      34.522  -8.051  -4.672  1.00  0.00    -0.272 OA
HETATM   15  N4  UNL     1      33.742  -9.536  -3.033  1.00  0.00    -0.295 N
HETATM   16  C20 UNL     1      33.812 -10.724  -3.731  1.00  0.00     0.248 C
ATOM     17  H4  UNL     1      33.401  -9.597  -2.073  1.00  0.00     0.171 HD
HETATM   18  O3  UNL     1      33.402 -11.779  -3.092  1.00  0.00    -0.271 OA
BRANCH  16  19
HETATM   19  C21 UNL     1      34.289 -10.926  -5.100  1.00  0.00     0.190 C
BRANCH  19  20
HETATM   20  N5  UNL     1      33.095 -11.377  -5.904  1.00  0.00    -0.289 N
ATOM     21  H5  UNL     1      32.815 -12.352  -6.015  1.00  0.00     0.174 HD
BRANCH  20  22
HETATM   22  S1  UNL     1      32.275 -10.060  -6.603  1.00  0.00     0.313 S
HETATM   23  O4  UNL     1      31.441  -9.416  -5.514  1.00  0.00    -0.183 OA
HETATM   24  O5  UNL     1      31.340 -10.507  -7.707  1.00  0.00    -0.183 OA
BRANCH  22  25
HETATM   25  N6  UNL     1      33.299  -8.839  -7.247  1.00  0.00    -0.312 N
ATOM     26  H62 UNL     1      34.096  -8.477  -6.725  1.00  0.00     0.170 HD
ATOM     27  H61 UNL     1      33.041  -8.517  -8.180  1.00  0.00     0.170 HD
ENDBRANCH  22  25
ENDBRANCH  20  22
ENDBRANCH  19  20
BRANCH  19  28
HETATM   28  C22 UNL     1      35.316 -12.007  -5.243  1.00  0.00     0.010 C
HETATM   29  C23 UNL     1      34.682 -13.244  -5.846  1.00  0.00     0.012 C
HETATM   30  C24 UNL     1      36.490 -11.601  -6.042  1.00  0.00     0.012 C
ENDBRANCH  19  28
ENDBRANCH  16  19
ENDBRANCH  11  13
ENDBRANCH  10  11
ENDBRANCH   8  10
BRANCH   9  31
HETATM   31  C26 UNL     1      37.445  -5.613  -3.801  1.00  0.00    -0.004 C
HETATM   32  C27 UNL     1      37.958  -6.721  -4.272  1.00  0.00    -0.020 C
BRANCH  32  33
HETATM   33  C28 UNL     1      38.545  -6.691  -5.656  1.00  0.00    -0.034 C
HETATM   34  C29 UNL     1      39.657  -7.689  -5.810  1.00  0.00     0.018 C
HETATM   35  C30 UNL     1      39.180  -5.300  -5.767  1.00  0.00     0.018 C
HETATM   36  C31 UNL     1      37.503  -6.847  -6.717  1.00  0.00     0.018 C
ENDBRANCH  32  33
ENDBRANCH   9  31
BRANCH   1  37
HETATM   37  C9  UNL     1      37.794  -5.657  -0.165  1.00  0.00    -0.019 C
HETATM   38  C8  UNL     1      38.815  -6.041   0.533  1.00  0.00     0.010 C
BRANCH  38  39
HETATM   39  C7  UNL     1      38.706  -6.823   1.815  1.00  0.00     0.215 C
HETATM   40  F1  UNL     1      39.102  -5.905   2.806  1.00  0.00    -0.241 F
BRANCH  39  41
HETATM   41  C6  UNL     1      37.320  -7.192   2.145  1.00  0.00     0.013 C
HETATM   42  C5  UNL     1      36.972  -8.466   2.146  1.00  0.00     0.010 C
BRANCH  42  43
HETATM   43  C4  UNL     1      35.584  -8.948   2.467  1.00  0.00     0.190 C
BRANCH  43  44
HETATM   44  C3  UNL     1      35.446  -9.052   3.930  1.00  0.00     0.034 C
HETATM   45  N1  UNL     1      34.621  -8.311   4.569  1.00  0.00    -0.400 N
ATOM     46  H12 UNL     1      34.526  -8.383   5.582  1.00  0.00     0.156 HD
ATOM     47  H11 UNL     1      34.050  -7.636   4.060  1.00  0.00     0.156 HD
BRANCH  44  48
HETATM   48  C2  UNL     1      36.260 -10.013   4.656  1.00  0.00     0.017 C
HETATM   49  C1  UNL     1      35.692 -11.070   5.248  1.00  0.00     0.013 C
ENDBRANCH  44  48
ENDBRANCH  43  44
BRANCH  43  50
HETATM   50  O1  UNL     1      35.328 -10.179   1.838  1.00  0.00    -0.386 OA
ATOM     51  H1  UNL     1      35.605 -10.169   0.930  1.00  0.00     0.210 HD
ENDBRANCH  43  50
ENDBRANCH  42  43
ENDBRANCH  39  41
ENDBRANCH  38  39
ENDBRANCH   1  37
BRANCH   2  52
HETATM   52  N2  UNL     1      38.707  -2.750  -1.977  1.00  0.00    -0.071 N
ATOM     53  H23 UNL     1      39.149  -3.326  -2.694  1.00  0.00     0.274 HD
ATOM     54  H22 UNL     1      38.411  -1.982  -2.579  1.00  0.00     0.274 HD
ATOM     55  H21 UNL     1      39.362  -2.452  -1.254  1.00  0.00     0.274 HD
ENDBRANCH   2  52
TORSDOF 18
ENDMDL