MODEL 2
REMARK VINA RESULT: -8.541332273      3.526     10.296
REMARK  18 active torsions:
REMARK  status: ('A' for Active; 'I' for Inactive)
REMARK    1  A    between atoms: C1_2  and  C2_3
REMARK    2  A    between atoms: C2_3  and  N1_4
REMARK    3  A    between atoms: N1_4  and  C3_5
REMARK    4  A    between atoms: N1_4  and  C4_7
REMARK    5  A    between atoms: C4_7  and  C5_8
REMARK    6  A    between atoms: C5_8  and  C6_9
REMARK    7  A    between atoms: C6_9  and  N2_10
REMARK    8  A    between atoms: N2_10  and  C7_12
REMARK    9  A    between atoms: C8_15  and  N4_16
REMARK   10  A    between atoms: N4_16  and  C9_18
REMARK   11  A    between atoms: C9_18  and  C10_19
REMARK   12  A    between atoms: C10_19  and  C11_20
REMARK   13  A    between atoms: C11_20  and  N5_21
REMARK   14  A    between atoms: N5_21  and  C12_23
REMARK   15  A    between atoms: C19_34  and  C20_35
REMARK   16  A    between atoms: C23_40  and  N9_41
REMARK   17  A    between atoms: C24_43  and  C25_44
REMARK   18  A    between atoms: C25_44  and  N10_45
ROOT
HETATM    1  C7  UNL     1      34.847  -7.938   0.151  1.00  0.00     0.680 A
HETATM    2  N3  UNL     1      35.275  -8.641   1.208  1.00  0.00    -0.176 N
ATOM      3  H3  UNL     1      34.765  -9.487   1.462  1.00  0.00     0.186 HD
HETATM    4  C8  UNL     1      36.336  -8.294   1.949  1.00  0.00     0.129 A
HETATM    5  C15 UNL     1      37.026  -7.155   1.614  1.00  0.00     0.036 A
HETATM    6  C16 UNL     1      38.111  -6.776   2.368  1.00  0.00     0.017 A
HETATM    7  C17 UNL     1      38.804  -5.628   2.042  1.00  0.00     0.002 A
HETATM    8  C18 UNL     1      38.370  -4.912   0.967  1.00  0.00     0.014 A
HETATM    9  C19 UNL     1      37.268  -5.273   0.178  1.00  0.00     0.003 A
HETATM   10  C31 UNL     1      36.598  -6.408   0.518  1.00  0.00     0.074 A
HETATM   11  N12 UNL     1      35.529  -6.802  -0.190  1.00  0.00    -0.190 N
ATOM     12  H12 UNL     1      35.221  -6.250  -0.991  1.00  0.00     0.184 HD
ENDROOT
BRANCH   9  13
HETATM   13  C20 UNL     1      36.954  -4.418  -0.967  1.00  0.00    -0.019 A
HETATM   14  C21 UNL     1      35.964  -3.462  -0.952  1.00  0.00     0.029 A
HETATM   15  C22 UNL     1      35.699  -2.667  -2.051  1.00  0.00     0.090 A
HETATM   16  N8  UNL     1      36.425  -2.825  -3.179  1.00  0.00    -0.352 N
HETATM   17  C23 UNL     1      37.406  -3.734  -3.274  1.00  0.00     0.105 A
ATOM     18  H8  UNL     1      36.220  -2.233  -3.985  1.00  0.00     0.166 HD
HETATM   19  C30 UNL     1      37.666  -4.545  -2.129  1.00  0.00     0.060 A
BRANCH  17  20
HETATM   20  N9  UNL     1      38.092  -3.915  -4.274  1.00  0.00    -0.354 N
HETATM   21  C24 UNL     1      38.282  -4.462  -5.500  1.00  0.00     0.092 C
ATOM     22  H9  UNL     1      38.948  -3.391  -4.093  1.00  0.00     0.166 HD
BRANCH  21  23
HETATM   23  C25 UNL     1      37.524  -5.736  -5.823  1.00  0.00     0.317 C
BRANCH  23  24
HETATM   24  N10 UNL     1      38.444  -6.805  -6.090  1.00  0.00     0.096 N
HETATM   25  C26 UNL     1      37.871  -7.882  -6.832  1.00  0.00     0.300 C
HETATM   26  C27 UNL     1      38.044  -9.236  -6.234  1.00  0.00     0.262 C
HETATM   27  N11 UNL     1      39.362  -9.512  -5.751  1.00  0.00    -0.072 N
HETATM   28  C28 UNL     1      40.064  -8.366  -5.250  1.00  0.00     0.262 C
ATOM     29 2H11 UNL     1      39.335 -10.248  -5.045  1.00  0.00     0.277 HD
ATOM     30 1H11 UNL     1      39.914  -9.979  -6.471  1.00  0.00     0.277 HD
HETATM   31  C29 UNL     1      39.182  -7.211  -4.919  1.00  0.00     0.300 C
ENDBRANCH  23  24
ENDBRANCH  21  23
ENDBRANCH  17  20
ENDBRANCH   9  13
BRANCH   4  32
HETATM   32  N4  UNL     1      36.742  -8.974   2.964  1.00  0.00    -0.375 N
ATOM     33  H4  UNL     1      37.657  -9.420   2.887  1.00  0.00     0.161 HD
BRANCH  32  34
HETATM   34  C9  UNL     1      36.028  -9.163   4.191  1.00  0.00     0.123 C
BRANCH  34  35
HETATM   35  C10 UNL     1      36.480 -10.438   4.906  1.00  0.00     0.040 C
BRANCH  35  36
HETATM   36  C11 UNL     1      35.274 -11.329   5.157  1.00  0.00     0.139 C
BRANCH  36  37
HETATM   37  N5  UNL     1      34.405 -11.330   4.014  1.00  0.00    -0.226 N
ATOM     38  H5  UNL     1      33.770 -10.541   3.888  1.00  0.00     0.177 HD
BRANCH  37  39
HETATM   39  C12 UNL     1      34.387 -12.269   3.144  1.00  0.00     0.677 A
HETATM   40  N6  UNL     1      34.504 -13.576   3.405  1.00  0.00    -0.201 N
HETATM   41  C13 UNL     1      34.438 -14.264   2.225  1.00  0.00     0.123 A
ATOM     42  H6  UNL     1      34.622 -13.991   4.330  1.00  0.00     0.183 HD
HETATM   43  C14 UNL     1      34.275 -13.314   1.233  1.00  0.00     0.123 A
HETATM   44  N7  UNL     1      34.247 -12.097   1.826  1.00  0.00    -0.201 N
ATOM     45  H7  UNL     1      34.138 -11.202   1.349  1.00  0.00     0.183 HD
ENDBRANCH  37  39
ENDBRANCH  36  37
ENDBRANCH  35  36
ENDBRANCH  34  35
ENDBRANCH  32  34
ENDBRANCH   4  32
BRANCH   1  46
HETATM   46  N2  UNL     1      33.830  -8.285  -0.553  1.00  0.00    -0.226 N
ATOM     47  H2  UNL     1      33.161  -7.559  -0.810  1.00  0.00     0.177 HD
BRANCH  46  48
HETATM   48  C6  UNL     1      33.563  -9.647  -1.010  1.00  0.00     0.143 C
BRANCH  48  49
HETATM   49  C5  UNL     1      34.185  -9.800  -2.359  1.00  0.00     0.064 C
BRANCH  49  50
HETATM   50  C4  UNL     1      33.431  -9.413  -3.549  1.00  0.00     0.061 C
BRANCH  50  51
HETATM   51  N1  UNL     1      33.884  -8.444  -4.448  1.00  0.00    -0.380 N
BRANCH  51  52
HETATM   52  C2  UNL     1      32.952  -7.590  -5.109  1.00  0.00     0.138 C
BRANCH  52  53
HETATM   53  C1  UNL     1      31.571  -8.191  -5.180  1.00  0.00     0.134 C
HETATM   54 CL1  UNL     1      30.524  -7.148  -6.174  1.00  0.00    -0.129 Cl
ENDBRANCH  52  53
ENDBRANCH  51  52
BRANCH  51  55
HETATM   55  C3  UNL     1      35.043  -7.705  -3.961  1.00  0.00     0.237 C
HETATM   56 CL2  UNL     1      34.510  -6.084  -3.462  1.00  0.00    -0.109 Cl
ENDBRANCH  51  55
ENDBRANCH  50  51
ENDBRANCH  49  50
ENDBRANCH  48  49
ENDBRANCH  46  48
ENDBRANCH   1  46
TORSDOF 18
ENDMDL