MODEL 2
REMARK VINA RESULT: -8.287582130      1.193      1.625
REMARK  19 active torsions:
REMARK  status: ('A' for Active; 'I' for Inactive)
REMARK    1  A    between atoms: N1_1  and  C1_5
REMARK    2  A    between atoms: C1_5  and  C2_6
REMARK    3  A    between atoms: C2_6  and  C3_7
REMARK    4  A    between atoms: C3_7  and  C4_8
REMARK    5  A    between atoms: C4_8  and  N2_9
REMARK    6  A    between atoms: N2_9  and  C5_11
REMARK    7  A    between atoms: C5_11  and  N3_13
REMARK    8  A    between atoms: N3_13  and  C6_15
REMARK    9  A    between atoms: C6_15  and  C7_16
REMARK   10  A    between atoms: C9_18  and  N4_19
REMARK   11  A    between atoms: N4_19  and  S2_21
REMARK   12  A    between atoms: S2_21  and  C10_24
REMARK   13  A    between atoms: C13_27  and  C14_28
REMARK       I    between atoms: C14_28  and  N5_30
REMARK   14  A    between atoms: N5_30  and  C15_32
REMARK   15  A    between atoms: C15_32  and  C16_33
REMARK   16  A    between atoms: C16_33  and  C17_34
REMARK   17  A    between atoms: C17_34  and  C18_35
REMARK   18  A    between atoms: C18_35  and  N6_36
REMARK       I    between atoms: N6_36  and  C19_38
REMARK   19  A    between atoms: C19_38  and  C20_40
ROOT
HETATM    1  S2  UNL     1      37.052  -5.397   2.104  1.00  0.00     0.264 S
HETATM    2  O1  UNL     1      36.840  -4.603   3.350  1.00  0.00    -0.200 OA
HETATM    3  O2  UNL     1      38.503  -5.284   1.664  1.00  0.00    -0.200 OA
ENDROOT
BRANCH   1   4
HETATM    4  N4  UNL     1      36.001  -4.834   0.878  1.00  0.00    -0.266 N
ATOM      5  H4  UNL     1      35.251  -4.185   1.113  1.00  0.00     0.180 HD
BRANCH   4   6
HETATM    6  C9  UNL     1      36.148  -5.218  -0.323  1.00  0.00     0.117 A
HETATM    7  C8  UNL     1      35.145  -5.738  -1.101  1.00  0.00     0.075 A
HETATM    8  C7  UNL     1      35.385  -6.112  -2.437  1.00  0.00     0.031 A
HETATM    9  N8  UNL     1      36.619  -5.939  -2.898  1.00  0.00    -0.354 N
HETATM   10  C28 UNL     1      37.613  -5.434  -2.154  1.00  0.00     0.182 A
ATOM     11  H8  UNL     1      36.819  -6.204  -3.863  1.00  0.00     0.166 HD
HETATM   12  N7  UNL     1      37.360  -5.084  -0.887  1.00  0.00    -0.338 N
ATOM     13  H7  UNL     1      38.120  -4.701  -0.326  1.00  0.00     0.168 HD
BRANCH   8  14
HETATM   14  C6  UNL     1      34.292  -6.651  -3.277  1.00  0.00     0.179 C
BRANCH  14  15
HETATM   15  N3  UNL     1      33.271  -7.328  -2.522  1.00  0.00    -0.362 N
ATOM     16  H3  UNL     1      32.926  -6.854  -1.687  1.00  0.00     0.162 HD
BRANCH  15  17
HETATM   17  C5  UNL     1      32.706  -8.568  -2.820  1.00  0.00     0.167 C
HETATM   18  S1  UNL     1      32.681  -9.078  -4.395  1.00  0.00    -0.041 SA
BRANCH  17  19
HETATM   19  N2  UNL     1      32.154  -9.407  -1.849  1.00  0.00    -0.367 N
ATOM     20  H2  UNL     1      31.293  -9.130  -1.377  1.00  0.00     0.161 HD
BRANCH  19  21
HETATM   21  C4  UNL     1      32.783 -10.662  -1.502  1.00  0.00     0.122 C
BRANCH  21  22
HETATM   22  C3  UNL     1      34.147 -10.436  -0.893  1.00  0.00     0.021 C
BRANCH  22  23
HETATM   23  C2  UNL     1      34.729 -11.708  -0.325  1.00  0.00     0.029 C
BRANCH  23  24
HETATM   24  C1  UNL     1      33.678 -12.785  -0.167  1.00  0.00     0.229 C
BRANCH  24  25
HETATM   25  N1  UNL     1      34.319 -14.077  -0.311  1.00  0.00    -0.079 N
ATOM     26  H13 UNL     1      35.285 -14.074   0.016  1.00  0.00     0.274 HD
ATOM     27  H12 UNL     1      33.953 -14.771   0.342  1.00  0.00     0.274 HD
ATOM     28  H11 UNL     1      34.236 -14.372  -1.284  1.00  0.00     0.274 HD
ENDBRANCH  24  25
ENDBRANCH  23  24
ENDBRANCH  22  23
ENDBRANCH  21  22
ENDBRANCH  19  21
ENDBRANCH  17  19
ENDBRANCH  15  17
ENDBRANCH  14  15
ENDBRANCH   8  14
ENDBRANCH   4   6
ENDBRANCH   1   4
BRANCH   1  29
HETATM   29  C10 UNL     1      36.719  -7.088   2.491  1.00  0.00     0.081 A
HETATM   30  C11 UNL     1      37.033  -8.087   1.603  1.00  0.00     0.026 A
HETATM   31  C12 UNL     1      36.779  -9.410   1.918  1.00  0.00     0.020 A
HETATM   32  C13 UNL     1      36.198  -9.796   3.134  1.00  0.00     0.053 A
HETATM   33  C26 UNL     1      35.889  -8.780   4.010  1.00  0.00     0.051 A
HETATM   34 CL1  UNL     1      35.175  -9.149   5.578  1.00  0.00    -0.083 Cl
HETATM   35  C27 UNL     1      36.147  -7.445   3.691  1.00  0.00     0.050 A
BRANCH  32  36
HETATM   36  C14 UNL     1      35.949 -11.206   3.404  1.00  0.00     0.253 C
HETATM   37  O3  UNL     1      36.897 -11.912   3.813  1.00  0.00    -0.268 OA
HETATM   38  N5  UNL     1      34.680 -11.830   3.227  1.00  0.00    -0.357 N
ATOM     39  H5  UNL     1      33.913 -11.246   2.893  1.00  0.00     0.162 HD
BRANCH  38  40
HETATM   40  C15 UNL     1      34.396 -13.205   3.478  1.00  0.00     0.123 C
BRANCH  40  41
HETATM   41  C16 UNL     1      33.597 -13.388   4.715  1.00  0.00     0.021 C
BRANCH  41  42
HETATM   42  C17 UNL     1      34.173 -14.433   5.648  1.00  0.00     0.021 C
BRANCH  42  43
HETATM   43  C18 UNL     1      35.628 -14.643   5.433  1.00  0.00     0.123 C
BRANCH  43  44
HETATM   44  N6  UNL     1      36.445 -13.692   6.191  1.00  0.00    -0.357 N
HETATM   45  C19 UNL     1      37.510 -14.118   6.981  1.00  0.00     0.254 C
HETATM   46  O4  UNL     1      37.801 -15.380   7.038  1.00  0.00    -0.268 OA
ATOM     47  H6  UNL     1      36.229 -12.696   6.139  1.00  0.00     0.162 HD
BRANCH  45  48
HETATM   48  C20 UNL     1      38.353 -13.209   7.775  1.00  0.00     0.070 A
HETATM   49  C21 UNL     1      38.350 -13.348   9.167  1.00  0.00     0.020 A
HETATM   50  C22 UNL     1      39.118 -12.559   9.969  1.00  0.00     0.001 A
HETATM   51  C23 UNL     1      39.947 -11.575   9.445  1.00  0.00     0.003 A
HETATM   52  C24 UNL     1      39.941 -11.450   8.075  1.00  0.00     0.043 A
HETATM   53  C25 UNL     1      39.156 -12.254   7.241  1.00  0.00     0.132 A
HETATM   54  F1  UNL     1      39.250 -11.985   5.929  1.00  0.00    -0.205 F
ENDBRANCH  45  48
ENDBRANCH  43  44
ENDBRANCH  42  43
ENDBRANCH  41  42
ENDBRANCH  40  41
ENDBRANCH  38  40
ENDBRANCH  32  36
ENDBRANCH   1  29
TORSDOF 19
ENDMDL