MODEL 5
REMARK VINA RESULT: -9.182431820      2.830      8.322
REMARK  18 active torsions:
REMARK  status: ('A' for Active; 'I' for Inactive)
REMARK    1  A    between atoms: C3_3  and  N1_4
REMARK    2  A    between atoms: N1_4  and  C4_5
REMARK    3  A    between atoms: N1_4  and  C26_45
REMARK    4  A    between atoms: C4_5  and  C5_6
REMARK    5  A    between atoms: C8_9  and  C9_10
REMARK    6  A    between atoms: C9_10  and  N2_11
REMARK    7  A    between atoms: C9_10  and  C10_15
REMARK       I    between atoms: C10_15  and  N3_17
REMARK    8  A    between atoms: N3_17  and  C11_18
REMARK    9  A    between atoms: C11_18  and  C12_19
REMARK   10  A    between atoms: C12_19  and  N4_20
REMARK   11  A    between atoms: C13_22  and  C14_23
REMARK   12  A    between atoms: C13_22  and  C17_28
REMARK   13  A    between atoms: C14_23  and  C15_24
REMARK   14  A    between atoms: C15_24  and  C16_25
REMARK   15  A    between atoms: C17_28  and  O4_29
REMARK   16  A    between atoms: O4_29  and  C18_30
REMARK   17  A    between atoms: N5_38  and  N6_40
REMARK   18  A    between atoms: C26_45  and  C27_46
ROOT
HETATM    1  C1  UNL     1      34.103  -3.766  -0.007  1.00  0.00     0.013 C
HETATM    2  C2  UNL     1      35.194  -4.266  -0.065  1.00  0.00    -0.087 C
HETATM    3  C3  UNL     1      36.494  -4.870  -0.184  1.00  0.00     0.365 C
ENDROOT
BRANCH   3   4
HETATM    4  N1  UNL     1      37.633  -4.103   0.187  1.00  0.00     0.107 N
BRANCH   4   5
HETATM    5  C4  UNL     1      38.510  -4.961   1.008  1.00  0.00     0.312 C
BRANCH   5   6
HETATM    6  C5  UNL     1      37.855  -6.023   1.761  1.00  0.00    -0.030 A
HETATM    7  C6  UNL     1      37.093  -5.742   2.899  1.00  0.00     0.009 A
HETATM    8  C7  UNL     1      36.402  -6.686   3.613  1.00  0.00     0.010 A
HETATM    9  C8  UNL     1      36.420  -8.043   3.225  1.00  0.00    -0.018 A
HETATM   10  C24 UNL     1      37.163  -8.327   2.124  1.00  0.00     0.010 A
HETATM   11  C25 UNL     1      37.868  -7.359   1.397  1.00  0.00     0.009 A
BRANCH   9  12
HETATM   12  C9  UNL     1      35.579  -9.002   3.954  1.00  0.00     0.322 C
BRANCH  12  13
HETATM   13  N2  UNL     1      34.532  -8.309   4.695  1.00  0.00    -0.061 N
ATOM     14  H23 UNL     1      34.233  -8.839   5.513  1.00  0.00     0.275 HD
ATOM     15  H22 UNL     1      34.891  -7.482   5.172  1.00  0.00     0.275 HD
ATOM     16  H21 UNL     1      33.748  -8.082   4.084  1.00  0.00     0.275 HD
ENDBRANCH  12  13
BRANCH  12  17
HETATM   17  C10 UNL     1      36.280 -10.025   4.808  1.00  0.00     0.322 C
HETATM   18  O1  UNL     1      36.945  -9.465   5.760  1.00  0.00    -0.255 OA
HETATM   19  N3  UNL     1      36.187 -11.320   4.574  1.00  0.00    -0.406 NA
BRANCH  19  20
HETATM   20  C11 UNL     1      36.093 -12.712   4.332  1.00  0.00     0.299 C
BRANCH  20  21
HETATM   21  C12 UNL     1      34.949 -12.981   3.311  1.00  0.00     0.126 C
HETATM   22  N5  UNL     1      34.125 -13.843   3.556  1.00  0.00    -0.293 N
ATOM     23  H5  UNL     1      33.458 -13.884   2.786  1.00  0.00     0.187 HD
BRANCH  21  24
HETATM   24  N4  UNL     1      34.964 -12.233   2.154  1.00  0.00    -0.348 N
HETATM   25  C13 UNL     1      34.565 -12.140   1.025  1.00  0.00     0.013 C
ATOM     26  H4  UNL     1      35.559 -11.424   2.328  1.00  0.00     0.167 HD
BRANCH  25  27
HETATM   27  C14 UNL     1      33.667 -13.018   0.223  1.00  0.00     0.065 C
BRANCH  27  28
HETATM   28  C15 UNL     1      34.366 -14.005  -0.655  1.00  0.00     0.119 C
BRANCH  28  29
HETATM   29  C16 UNL     1      34.193 -13.502  -2.092  1.00  0.00     0.172 C
HETATM   30  O2  UNL     1      35.106 -13.044  -2.776  1.00  0.00    -0.648 OA
HETATM   31  O3  UNL     1      32.892 -13.590  -2.630  1.00  0.00    -0.648 OA
ENDBRANCH  28  29
ENDBRANCH  27  28
ENDBRANCH  25  27
BRANCH  25  32
HETATM   32  C17 UNL     1      34.987 -10.874   0.234  1.00  0.00     0.228 C
BRANCH  32  33
HETATM   33  O4  UNL     1      33.823 -10.294  -0.264  1.00  0.00    -0.343 OA
BRANCH  33  34
HETATM   34  C18 UNL     1      33.658  -9.492  -1.365  1.00  0.00     0.107 A
HETATM   35  C19 UNL     1      33.088  -9.864  -2.538  1.00  0.00     0.043 A
HETATM   36  C20 UNL     1      32.966  -8.962  -3.600  1.00  0.00     0.045 A
HETATM   37  C21 UNL     1      33.407  -7.669  -3.528  1.00  0.00     0.119 A
HETATM   38  F1  UNL     1      33.280  -6.799  -4.564  1.00  0.00    -0.206 F
HETATM   39  C22 UNL     1      33.996  -7.286  -2.321  1.00  0.00     0.087 A
HETATM   40  C23 UNL     1      34.112  -8.174  -1.282  1.00  0.00     0.152 A
HETATM   41  F2  UNL     1      34.682  -7.738  -0.146  1.00  0.00    -0.203 F
ENDBRANCH  33  34
ENDBRANCH  32  33
ENDBRANCH  25  32
ENDBRANCH  21  24
BRANCH  22  42
HETATM   42  N6  UNL     1      33.779 -14.754   4.469  1.00  0.00    -0.344 N
ATOM     43  H62 UNL     1      34.349 -14.577   5.295  1.00  0.00     0.176 HD
ATOM     44  H61 UNL     1      33.159 -15.548   4.630  1.00  0.00     0.176 HD
ENDBRANCH  22  42
ENDBRANCH  20  21
ENDBRANCH  19  20
ENDBRANCH  12  17
ENDBRANCH   9  12
ENDBRANCH   5   6
ENDBRANCH   4   5
BRANCH   4  45
HETATM   45  C26 UNL     1      38.506  -3.681  -0.868  1.00  0.00     0.312 C
BRANCH  45  46
HETATM   46  C27 UNL     1      38.462  -4.344  -2.162  1.00  0.00    -0.028 A
HETATM   47  C28 UNL     1      37.764  -3.852  -3.229  1.00  0.00     0.011 A
HETATM   48  C29 UNL     1      37.831  -4.542  -4.428  1.00  0.00     0.032 A
HETATM   49  C30 UNL     1      38.583  -5.700  -4.575  1.00  0.00     0.063 A
HETATM   50  N7  UNL     1      38.842  -6.551  -5.606  1.00  0.00    -0.307 N
HETATM   51  C32 UNL     1      39.272  -6.161  -3.485  1.00  0.00     0.063 A
HETATM   52  C31 UNL     1      39.664  -7.535  -5.188  1.00  0.00     0.325 A
ATOM     53  H7  UNL     1      38.469  -6.459  -6.551  1.00  0.00     0.170 HD
HETATM   54  O5  UNL     1      40.135  -8.519  -5.820  1.00  0.00    -0.247 OA
HETATM   55  N8  UNL     1      39.926  -7.292  -3.889  1.00  0.00    -0.306 N
ATOM     56  H8  UNL     1      40.524  -7.867  -3.294  1.00  0.00     0.170 HD
HETATM   57  C33 UNL     1      39.216  -5.504  -2.299  1.00  0.00     0.040 A
ENDBRANCH  45  46
ENDBRANCH   4  45
ENDBRANCH   3   4
TORSDOF 18
ENDMDL