MODEL 4
REMARK VINA RESULT: -8.074980732      4.337      5.937
REMARK  19 active torsions:
REMARK  status: ('A' for Active; 'I' for Inactive)
REMARK       I    between atoms: N1_1  and  C1_4
REMARK       I    between atoms: C1_4  and  N3_6
REMARK    1  A    between atoms: N3_6  and  C2_8
REMARK    2  A    between atoms: C2_8  and  C3_9
REMARK    3  A    between atoms: C3_9  and  C4_10
REMARK    4  A    between atoms: C4_10  and  N4_11
REMARK       I    between atoms: N4_11  and  C5_12
REMARK    5  A    between atoms: C5_12  and  C6_14
REMARK    6  A    between atoms: C6_14  and  C7_15
REMARK    7  A    between atoms: C8_17  and  N5_18
REMARK    8  A    between atoms: N5_18  and  C9_20
REMARK    9  A    between atoms: C9_20  and  O2_21
REMARK   10  A    between atoms: C9_20  and  N6_23
REMARK   11  A    between atoms: N6_23  and  C10_25
REMARK   12  A    between atoms: C10_25  and  C11_26
REMARK   13  A    between atoms: C11_26  and  N7_27
REMARK   14  A    between atoms: C11_26  and  C12_30
REMARK   15  A    between atoms: C20_40  and  C21_41
REMARK   16  A    between atoms: C21_41  and  C22_42
REMARK   17  A    between atoms: C22_42  and  C23_43
REMARK   18  A    between atoms: C23_43  and  C24_44
REMARK   19  A    between atoms: C24_44  and  N8_45
ROOT
HETATM    1  C7  UNL     1      33.770  -7.128  -3.982  1.00  0.00     0.004 A
HETATM    2  S1  UNL     1      34.240  -7.731  -2.450  1.00  0.00    -0.076 SA
HETATM    3  C8  UNL     1      33.278  -8.933  -1.799  1.00  0.00     0.080 A
HETATM    4  C18 UNL     1      32.184  -9.265  -2.614  1.00  0.00     0.080 A
HETATM    5  C19 UNL     1      31.875  -8.692  -3.809  1.00  0.00     0.126 A
HETATM    6  F1  UNL     1      30.762  -9.176  -4.492  1.00  0.00    -0.205 F
HETATM    7  C20 UNL     1      32.542  -7.717  -4.479  1.00  0.00    -0.006 A
ENDROOT
BRANCH   3   8
HETATM    8  N5  UNL     1      33.488  -9.529  -0.738  1.00  0.00    -0.317 N
ATOM      9  H5  UNL     1      32.707 -10.056  -0.349  1.00  0.00     0.170 HD
BRANCH   8  10
HETATM   10  C9  UNL     1      34.664  -9.558  -0.024  1.00  0.00     0.217 C
BRANCH  10  11
HETATM   11  O2  UNL     1      35.465 -10.565  -0.258  1.00  0.00    -0.333 OA
ATOM     12  H2  UNL     1      36.332 -10.516   0.126  1.00  0.00     0.220 HD
ENDBRANCH  10  11
BRANCH  10  13
HETATM   13  N6  UNL     1      35.102  -8.621   0.885  1.00  0.00    -0.354 N
ATOM     14  H6  UNL     1      34.699  -7.688   0.978  1.00  0.00     0.163 HD
BRANCH  13  15
HETATM   15  C10 UNL     1      36.189  -9.105   1.687  1.00  0.00     0.152 C
BRANCH  15  16
HETATM   16  C11 UNL     1      36.325  -8.375   3.076  1.00  0.00     0.125 C
BRANCH  16  17
HETATM   17  N7  UNL     1      36.682  -9.231   4.086  1.00  0.00    -0.421 N
ATOM     18  H72 UNL     1      36.190  -9.432   4.956  1.00  0.00     0.150 HD
ATOM     19  H71 UNL     1      37.640  -9.080   4.404  1.00  0.00     0.150 HD
ENDBRANCH  16  17
BRANCH  16  20
HETATM   20  C12 UNL     1      36.926  -7.101   2.705  1.00  0.00    -0.034 A
HETATM   21  C13 UNL     1      37.984  -7.006   1.857  1.00  0.00     0.011 A
HETATM   22  C14 UNL     1      38.478  -5.771   1.426  1.00  0.00     0.019 A
HETATM   23  C15 UNL     1      37.908  -4.587   1.819  1.00  0.00     0.011 A
HETATM   24 BR1  UNL     1      38.557  -2.948   1.178  1.00  0.00    -0.051 Br
HETATM   25  C16 UNL     1      36.805  -4.672   2.698  1.00  0.00     0.019 A
HETATM   26  C17 UNL     1      36.364  -5.895   3.118  1.00  0.00     0.011 A
ENDBRANCH  16  20
ENDBRANCH  15  16
ENDBRANCH  13  15
ENDBRANCH  10  13
ENDBRANCH   8  10
ENDBRANCH   3   8
BRANCH   1  27
HETATM   27  C6  UNL     1      34.728  -6.498  -4.825  1.00  0.00     0.165 C
BRANCH  27  28
HETATM   28  C5  UNL     1      34.408  -4.973  -4.153  1.00  0.00     0.291 C
HETATM   29  N4  UNL     1      35.571  -4.853  -3.392  1.00  0.00    -0.415 NA
HETATM   30  O1  UNL     1      33.473  -4.430  -4.364  1.00  0.00    -0.257 OA
BRANCH  29  31
HETATM   31  C4  UNL     1      36.657  -4.728  -2.674  1.00  0.00     0.223 C
BRANCH  31  32
HETATM   32  C3  UNL     1      36.425  -3.217  -2.292  1.00  0.00     0.053 C
BRANCH  32  33
HETATM   33  C2  UNL     1      35.636  -3.008  -1.145  1.00  0.00     0.125 C
BRANCH  33  34
HETATM   34  N3  UNL     1      35.337  -4.392  -0.671  1.00  0.00    -0.365 N
HETATM   35  C1  UNL     1      34.053  -4.395  -0.176  1.00  0.00     0.181 C
HETATM   36  N1  UNL     1      33.905  -3.552   0.893  1.00  0.00    -0.374 N
HETATM   37  N2  UNL     1      32.965  -5.071  -0.696  1.00  0.00    -0.064 NA
ATOM     38  H12 UNL     1      32.953  -3.554   1.260  1.00  0.00     0.158 HD
ATOM     39  H11 UNL     1      34.707  -3.052   1.276  1.00  0.00     0.158 HD
ATOM     40  H3  UNL     1      35.970  -5.191  -0.708  1.00  0.00     0.162 HD
ENDBRANCH  33  34
ENDBRANCH  32  33
ENDBRANCH  31  32
ENDBRANCH  29  31
ENDBRANCH  27  28
ENDBRANCH   1  27
BRANCH   7  41
HETATM   41  C21 UNL     1      32.061  -7.020  -5.682  1.00  0.00     0.043 C
BRANCH  41  42
HETATM   42  C22 UNL     1      31.867  -7.744  -6.951  1.00  0.00     0.010 C
BRANCH  42  43
HETATM   43  C23 UNL     1      30.391  -7.565  -7.275  1.00  0.00     0.047 C
BRANCH  43  44
HETATM   44  C24 UNL     1      29.941  -6.399  -7.988  1.00  0.00     0.088 C
BRANCH  44  45
HETATM   45  N8  UNL     1      29.909  -6.420  -9.408  1.00  0.00    -0.283 N
HETATM   46  C25 UNL     1      28.996  -5.586 -10.057  1.00  0.00     0.116 A
HETATM   47  C26 UNL     1      29.214  -5.658 -11.376  1.00  0.00     0.038 A
HETATM   48  C27 UNL     1      30.274  -6.542 -11.535  1.00  0.00     0.109 A
HETATM   49  N9  UNL     1      30.639  -6.968 -10.325  1.00  0.00    -0.306 N
ATOM     50  H9  UNL     1      31.391  -7.635 -10.147  1.00  0.00     0.186 HD
ENDBRANCH  44  45
ENDBRANCH  43  44
ENDBRANCH  42  43
ENDBRANCH  41  42
ENDBRANCH   7  41
TORSDOF 19
ENDMDL