MODEL 1
REMARK VINA RESULT: -8.577009935      0.000      0.000
REMARK  16 active torsions:
REMARK  status: ('A' for Active; 'I' for Inactive)
REMARK    1  A    between atoms: N3_4  and  C2_6
REMARK    2  A    between atoms: C2_6  and  C3_7
REMARK    3  A    between atoms: C3_7  and  C4_8
REMARK    4  A    between atoms: C4_8  and  N4_9
REMARK    5  A    between atoms: N4_9  and  C5_12
REMARK    6  A    between atoms: C5_12  and  C6_13
REMARK    7  A    between atoms: C6_13  and  C7_14
REMARK    8  A    between atoms: C7_14  and  N5_15
REMARK    9  A    between atoms: C7_14  and  C14_28
REMARK   10  A    between atoms: N5_15  and  S1_17
REMARK   11  A    between atoms: S1_17  and  C8_20
REMARK   12  A    between atoms: C21_35  and  S2_36
REMARK   13  A    between atoms: S2_36  and  N6_39
REMARK   14  A    between atoms: N6_39  and  C22_41
REMARK   15  A    between atoms: C22_41  and  C23_42
REMARK   16  A    between atoms: C23_42  and  O5_43
ROOT
HETATM    1  C7  UNL     1      36.299  -8.569   2.399  1.00  0.00     0.127 C
ENDROOT
BRANCH   1   2
HETATM    2  C6  UNL     1      36.717  -9.742   1.521  1.00  0.00     0.058 C
BRANCH   2   3
HETATM    3  C5  UNL     1      35.520 -10.482   1.044  1.00  0.00     0.234 C
BRANCH   3   4
HETATM    4  N4  UNL     1      34.828  -9.951  -0.077  1.00  0.00    -0.075 N
ATOM      5  H42 UNL     1      35.273  -9.122  -0.470  1.00  0.00     0.277 HD
ATOM      6  H41 UNL     1      33.939  -9.514   0.168  1.00  0.00     0.277 HD
BRANCH   4   7
HETATM    7  C4  UNL     1      34.690 -11.037  -1.033  1.00  0.00     0.234 C
BRANCH   7   8
HETATM    8  C3  UNL     1      33.266 -11.353  -1.365  1.00  0.00     0.047 C
BRANCH   8   9
HETATM    9  C2  UNL     1      32.491 -10.048  -1.365  1.00  0.00     0.123 C
BRANCH   9  10
HETATM   10  N3  UNL     1      32.933  -9.156  -2.416  1.00  0.00    -0.367 N
HETATM   11  C1  UNL     1      32.071  -8.689  -3.256  1.00  0.00     0.196 C
HETATM   12  N1  UNL     1      30.686  -9.056  -3.143  1.00  0.00    -0.067 NA
HETATM   13  N2  UNL     1      32.469  -7.810  -4.299  1.00  0.00    -0.067 NA
ATOM     14  H3  UNL     1      33.917  -8.900  -2.492  1.00  0.00     0.161 HD
ENDBRANCH   9  10
ENDBRANCH   8   9
ENDBRANCH   7   8
ENDBRANCH   4   7
ENDBRANCH   3   4
ENDBRANCH   2   3
ENDBRANCH   1   2
BRANCH   1  15
HETATM   15  N5  UNL     1      36.688  -8.631   3.705  1.00  0.00    -0.306 N
ATOM     16  H5  UNL     1      37.403  -7.952   3.969  1.00  0.00     0.173 HD
BRANCH  15  17
HETATM   17  S1  UNL     1      36.199  -9.612   4.919  1.00  0.00     0.262 S
HETATM   18  O1  UNL     1      37.081  -9.571   6.164  1.00  0.00    -0.200 OA
HETATM   19  O2  UNL     1      34.870  -9.056   5.460  1.00  0.00    -0.200 OA
BRANCH  17  20
HETATM   20  C8  UNL     1      35.911 -11.297   4.576  1.00  0.00     0.118 A
HETATM   21  C9  UNL     1      34.623 -11.690   4.204  1.00  0.00     0.030 A
HETATM   22  C10 UNL     1      34.327 -12.993   3.875  1.00  0.00     0.021 A
HETATM   23  C11 UNL     1      35.308 -13.946   3.907  1.00  0.00     0.013 A
HETATM   24 BR1  UNL     1      34.885 -15.746   3.448  1.00  0.00    -0.051 Br
HETATM   25  C12 UNL     1      36.586 -13.597   4.269  1.00  0.00     0.063 A
HETATM   26  C13 UNL     1      36.866 -12.272   4.601  1.00  0.00     0.141 A
HETATM   27  F1  UNL     1      38.145 -12.000   4.992  1.00  0.00    -0.204 F
ENDBRANCH  17  20
ENDBRANCH  15  17
ENDBRANCH   1  15
BRANCH   1  28
HETATM   28  C14 UNL     1      36.981  -7.371   1.766  1.00  0.00    -0.034 A
HETATM   29  C15 UNL     1      38.184  -6.884   2.158  1.00  0.00     0.010 A
HETATM   30  C16 UNL     1      38.783  -5.787   1.576  1.00  0.00     0.013 A
HETATM   31  C17 UNL     1      38.128  -5.141   0.537  1.00  0.00    -0.024 A
HETATM   32  C18 UNL     1      38.699  -4.048  -0.074  1.00  0.00     0.012 A
HETATM   33  C24 UNL     1      36.900  -5.617   0.120  1.00  0.00    -0.002 A
HETATM   34  C19 UNL     1      38.037  -3.437  -1.099  1.00  0.00     0.002 A
HETATM   35  C20 UNL     1      36.799  -3.928  -1.509  1.00  0.00     0.026 A
HETATM   36  C21 UNL     1      36.187  -5.019  -0.926  1.00  0.00     0.090 A
HETATM   37  C25 UNL     1      36.318  -6.724   0.719  1.00  0.00     0.023 A
BRANCH  36  38
HETATM   38  S2  UNL     1      34.634  -5.627  -1.447  1.00  0.00     0.259 S
HETATM   39  O3  UNL     1      34.377  -5.298  -2.887  1.00  0.00    -0.201 OA
HETATM   40  O4  UNL     1      34.624  -7.165  -1.337  1.00  0.00    -0.201 OA
BRANCH  38  41
HETATM   41  N6  UNL     1      33.323  -5.051  -0.513  1.00  0.00    -0.313 N
ATOM     42  H6  UNL     1      32.424  -5.531  -0.469  1.00  0.00     0.172 HD
BRANCH  41  43
HETATM   43  C22 UNL     1      33.587  -3.840   0.204  1.00  0.00     0.158 C
BRANCH  43  44
HETATM   44  C23 UNL     1      32.331  -3.380   0.949  1.00  0.00     0.184 C
BRANCH  44  45
HETATM   45  O5  UNL     1      31.208  -4.094   0.516  1.00  0.00    -0.399 OA
ATOM     46  H5  UNL     1      30.661  -4.340   1.253  1.00  0.00     0.209 HD
ENDBRANCH  44  45
ENDBRANCH  43  44
ENDBRANCH  41  43
ENDBRANCH  38  41
ENDBRANCH  36  38
ENDBRANCH   1  28
TORSDOF 16
ENDMDL