MODEL 3
REMARK VINA RESULT: -7.773449297      3.304      7.226
REMARK  16 active torsions:
REMARK  status: ('A' for Active; 'I' for Inactive)
REMARK    1  A    between atoms: C2_2  and  C3_3
REMARK    2  A    between atoms: C3_3  and  C5_5
REMARK    3  A    between atoms: C7_10  and  C8_11
REMARK    4  A    between atoms: C8_11  and  C9_12
REMARK    5  A    between atoms: C9_12  and  C10_13
REMARK    6  A    between atoms: C11_18  and  O4_19
REMARK    7  A    between atoms: C14_23  and  C15_24
REMARK       I    between atoms: C15_24  and  N3_26
REMARK    8  A    between atoms: N3_26  and  C16_28
REMARK    9  A    between atoms: C16_28  and  C17_29
REMARK   10  A    between atoms: C16_28  and  C22_37
REMARK   11  A    between atoms: C17_29  and  O6_30
REMARK   12  A    between atoms: O6_30  and  C18_31
REMARK   13  A    between atoms: C18_31  and  C19_32
REMARK   14  A    between atoms: C19_32  and  C20_33
REMARK   15  A    between atoms: C22_37  and  C23_38
REMARK   16  A    between atoms: C27_45  and  C28_46
ROOT
HETATM    1  C5  UNL     1      35.874  -6.415  -0.113  1.00  0.00     0.180 C
HETATM    2  N1  UNL     1      35.335  -7.556   0.570  1.00  0.00    -0.346 N
ATOM      3  H1  UNL     1      34.954  -7.309   1.484  1.00  0.00     0.163 HD
HETATM    4  C6  UNL     1      35.199  -8.916   0.299  1.00  0.00     0.241 C
HETATM    5  O1  UNL     1      35.941  -9.777   0.929  1.00  0.00    -0.271 OA
HETATM    6  C7  UNL     1      34.315  -9.675  -0.627  1.00  0.00     0.176 C
HETATM    7  N2  UNL     1      33.275  -8.920  -1.243  1.00  0.00    -0.361 N
ATOM      8  H2  UNL     1      33.044  -8.070  -0.728  1.00  0.00     0.162 HD
HETATM    9  C11 UNL     1      32.513  -9.083  -2.379  1.00  0.00     0.118 C
HETATM   10  C12 UNL     1      32.723  -9.164  -3.812  1.00  0.00     0.088 C
HETATM   11  C13 UNL     1      31.475  -8.578  -4.545  1.00  0.00     0.021 C
HETATM   12  C14 UNL     1      33.916  -8.750  -4.515  1.00  0.00     0.188 C
HETATM   13  N4  UNL     1      35.070  -8.224  -3.872  1.00  0.00    -0.345 N
ATOM     14  H4  UNL     1      35.614  -8.915  -3.353  1.00  0.00     0.163 HD
HETATM   15  C26 UNL     1      35.597  -6.910  -3.825  1.00  0.00     0.241 C
HETATM   16  O7  UNL     1      36.838  -6.738  -4.146  1.00  0.00    -0.271 OA
HETATM   17  C27 UNL     1      34.875  -5.667  -3.444  1.00  0.00     0.180 C
HETATM   18  N5  UNL     1      34.405  -5.601  -2.123  1.00  0.00    -0.346 N
ATOM     19  H5  UNL     1      33.385  -5.596  -2.094  1.00  0.00     0.163 HD
HETATM   20  C31 UNL     1      34.949  -5.541  -0.833  1.00  0.00     0.241 C
HETATM   21  O8  UNL     1      34.542  -4.507  -0.172  1.00  0.00    -0.271 OA
ENDROOT
BRANCH  12  22
HETATM   22  C15 UNL     1      34.341  -9.834  -5.487  1.00  0.00     0.241 C
HETATM   23  O5  UNL     1      35.002  -9.433  -6.491  1.00  0.00    -0.271 OA
HETATM   24  N3  UNL     1      34.047 -11.194  -5.328  1.00  0.00    -0.353 N
ATOM     25  H3  UNL     1      33.522 -11.514  -4.513  1.00  0.00     0.163 HD
BRANCH  24  26
HETATM   26  C16 UNL     1      34.489 -12.138  -6.320  1.00  0.00     0.108 C
BRANCH  26  27
HETATM   27  C17 UNL     1      35.141 -13.286  -5.575  1.00  0.00     0.192 C
BRANCH  27  28
HETATM   28  O6  UNL     1      34.611 -14.468  -5.958  1.00  0.00    -0.389 OA
BRANCH  28  29
HETATM   29  C18 UNL     1      34.210 -15.287  -4.945  1.00  0.00     0.173 C
BRANCH  29  30
HETATM   30  C19 UNL     1      32.681 -15.259  -4.832  1.00  0.00     0.105 C
BRANCH  30  31
HETATM   31  C20 UNL     1      32.152 -16.448  -5.574  1.00  0.00     0.242 C
HETATM   32  C21 UNL     1      32.946 -17.701  -5.208  1.00  0.00     0.090 C
HETATM   33  F1  UNL     1      32.248 -16.297  -6.937  1.00  0.00    -0.207 F
HETATM   34  F2  UNL     1      30.823 -16.618  -5.178  1.00  0.00    -0.207 F
ENDBRANCH  30  31
ENDBRANCH  29  30
ENDBRANCH  28  29
ENDBRANCH  27  28
ENDBRANCH  26  27
BRANCH  26  35
HETATM   35  C22 UNL     1      33.489 -12.577  -7.309  1.00  0.00     0.031 C
BRANCH  35  36
HETATM   36  C23 UNL     1      32.092 -12.092  -7.191  1.00  0.00    -0.021 C
HETATM   37  C24 UNL     1      31.214 -13.233  -7.779  1.00  0.00     0.009 C
HETATM   38  C25 UNL     1      31.742 -10.885  -8.020  1.00  0.00     0.009 C
ENDBRANCH  35  36
ENDBRANCH  26  35
ENDBRANCH  24  26
ENDBRANCH  12  22
BRANCH   9  39
HETATM   39  O4  UNL     1      31.230  -9.197  -2.115  1.00  0.00    -0.349 OA
ATOM     40  H4  UNL     1      30.784  -9.785  -2.713  1.00  0.00     0.219 HD
ENDBRANCH   9  39
BRANCH  17  41
HETATM   41  C28 UNL     1      35.580  -4.438  -3.968  1.00  0.00     0.009 C
HETATM   42  C29 UNL     1      36.377  -3.683  -2.950  1.00  0.00     0.012 C
HETATM   43  C30 UNL     1      34.685  -3.597  -4.817  1.00  0.00     0.012 C
ENDBRANCH  17  41
BRANCH   6  44
HETATM   44  C8  UNL     1      33.898 -11.013  -0.055  1.00  0.00     0.045 C
BRANCH  44  45
HETATM   45  C9  UNL     1      34.290 -12.235  -0.745  1.00  0.00     0.116 C
BRANCH  45  46
HETATM   46  C10 UNL     1      33.262 -12.788  -1.639  1.00  0.00     0.172 C
HETATM   47  O2  UNL     1      33.135 -12.479  -2.837  1.00  0.00    -0.648 OA
HETATM   48  O3  UNL     1      32.367 -13.729  -1.089  1.00  0.00    -0.648 OA
ENDBRANCH  45  46
ENDBRANCH  44  45
ENDBRANCH   6  44
BRANCH   1  49
HETATM   49  C3  UNL     1      36.699  -5.623   0.906  1.00  0.00     0.013 C
HETATM   50  C4  UNL     1      37.916  -5.011   0.256  1.00  0.00     0.012 C
BRANCH  49  51
HETATM   51  C2  UNL     1      37.127  -6.338   2.113  1.00  0.00     0.002 C
HETATM   52  C1  UNL     1      38.664  -6.225   2.170  1.00  0.00     0.005 C
ENDBRANCH  49  51
ENDBRANCH   1  49
TORSDOF 16
ENDMDL