MODEL 2
REMARK VINA RESULT: -10.252304313      1.693      3.665
REMARK  7 active torsions:
REMARK  status: ('A' for Active; 'I' for Inactive)
REMARK    1  A    between atoms: O1_1  and  C1_3
REMARK    2  A    between atoms: C9_11  and  C10_12
REMARK    3  A    between atoms: C10_12  and  C11_13
REMARK    4  A    between atoms: C11_13  and  C12_14
REMARK    5  A    between atoms: C12_14  and  C13_15
REMARK    6  A    between atoms: C13_15  and  C14_16
REMARK    7  A    between atoms: C14_16  and  C15_17
ROOT
HETATM    1  C1  UNL     1      30.356  20.661  42.907  1.00  0.00     0.186 A
HETATM    2  C2  UNL     1      31.065  19.583  43.623  1.00  0.00    -0.014 A
HETATM    3  C3  UNL     1      31.989  18.654  43.129  1.00  0.00     0.011 A
HETATM    4  C4  UNL     1      32.526  17.729  43.981  1.00  0.00     0.001 A
HETATM    5  C5  UNL     1      32.141  17.740  45.298  1.00  0.00     0.001 A
HETATM    6  C6  UNL     1      31.214  18.673  45.788  1.00  0.00     0.013 A
HETATM    7  C7  UNL     1      30.669  19.606  44.942  1.00  0.00    -0.016 A
HETATM    8  C8  UNL     1      29.710  20.702  45.170  1.00  0.00    -0.010 A
HETATM    9  C9  UNL     1      29.055  21.149  46.295  1.00  0.00    -0.046 A
HETATM   10  C21 UNL     1      28.234  22.266  46.122  1.00  0.00     0.008 A
HETATM   11  C22 UNL     1      28.079  22.889  44.906  1.00  0.00     0.001 A
HETATM   12  C23 UNL     1      28.734  22.433  43.795  1.00  0.00     0.011 A
HETATM   13  C24 UNL     1      29.560  21.320  43.949  1.00  0.00    -0.013 A
ENDROOT
BRANCH   9  14
HETATM   14  C10 UNL     1      29.132  20.495  47.625  1.00  0.00     0.039 C
BRANCH  14  15
HETATM   15  C11 UNL     1      29.817  21.330  48.667  1.00  0.00     0.005 C
BRANCH  15  16
HETATM   16  C12 UNL     1      31.297  21.053  48.644  1.00  0.00     0.001 C
BRANCH  16  17
HETATM   17  C13 UNL     1      31.624  19.758  49.329  1.00  0.00     0.005 C
BRANCH  17  18
HETATM   18  C14 UNL     1      33.123  19.529  49.274  1.00  0.00     0.038 C
BRANCH  18  19
HETATM   19  C15 UNL     1      33.785  19.503  50.575  1.00  0.00    -0.058 A
HETATM   20  C16 UNL     1      35.154  19.588  50.719  1.00  0.00     0.007 A
HETATM   21  C17 UNL     1      35.686  19.565  51.970  1.00  0.00     0.001 A
HETATM   22  C18 UNL     1      34.891  19.462  53.112  1.00  0.00     0.000 A
HETATM   23  C19 UNL     1      33.517  19.378  52.968  1.00  0.00     0.001 A
HETATM   24  C20 UNL     1      32.991  19.400  51.712  1.00  0.00     0.007 A
ENDBRANCH  18  19
ENDBRANCH  17  18
ENDBRANCH  16  17
ENDBRANCH  15  16
ENDBRANCH  14  15
ENDBRANCH   9  14
BRANCH   1  25
HETATM   25  O1  UNL     1      31.234  21.547  42.282  1.00  0.00    -0.386 OA
ATOM     26  H1  UNL     1      31.077  22.448  42.537  1.00  0.00     0.210 HD
ENDBRANCH   1  25
TORSDOF 7
ENDMDL