MODEL 4
REMARK VINA RESULT: -7.006321393      2.002      4.944
REMARK  6 active torsions:
REMARK  status: ('A' for Active; 'I' for Inactive)
REMARK    1  A    between atoms: N1_1  and  C1_5
REMARK    2  A    between atoms: C1_5  and  C2_6
REMARK    3  A    between atoms: C5_9  and  C6_10
REMARK    4  A    between atoms: C6_10  and  C7_11
REMARK    5  A    between atoms: C6_10  and  C13_17
REMARK    6  A    between atoms: C6_10  and  C19_23
ROOT
HETATM    1  C6  UNL     1      38.270  14.751  58.232  1.00  0.00     0.068 C
ENDROOT
BRANCH   1   2
HETATM    2  C5  UNL     1      39.716  14.435  58.357  1.00  0.00    -0.036 A
HETATM    3  C4  UNL     1      40.562  15.076  57.459  1.00  0.00     0.009 A
HETATM    4  C3  UNL     1      41.909  14.837  57.490  1.00  0.00     0.009 A
HETATM    5  C2  UNL     1      42.468  13.963  58.401  1.00  0.00    -0.033 A
HETATM    6  C26 UNL     1      41.653  13.320  59.297  1.00  0.00     0.009 A
HETATM    7  C25 UNL     1      40.281  13.576  59.249  1.00  0.00     0.009 A
BRANCH   5   8
HETATM    8  C1  UNL     1      43.948  13.778  58.348  1.00  0.00     0.268 C
BRANCH   8   9
HETATM    9  N1  UNL     1      44.538  14.406  57.200  1.00  0.00    -0.075 N
ATOM     10  H13 UNL     1      43.928  15.132  56.824  1.00  0.00     0.274 HD
ATOM     11  H12 UNL     1      45.335  14.983  57.466  1.00  0.00     0.274 HD
ATOM     12  H11 UNL     1      44.796  13.733  56.479  1.00  0.00     0.274 HD
ENDBRANCH   8   9
ENDBRANCH   5   8
ENDBRANCH   1   2
BRANCH   1  13
HETATM   13  C7  UNL     1      37.777  15.001  59.613  1.00  0.00    -0.036 A
HETATM   14  C8  UNL     1      38.302  15.951  60.449  1.00  0.00     0.009 A
HETATM   15  C9  UNL     1      37.773  16.154  61.722  1.00  0.00     0.001 A
HETATM   16  C10 UNL     1      36.709  15.402  62.162  1.00  0.00     0.000 A
HETATM   17  C11 UNL     1      36.202  14.455  61.299  1.00  0.00     0.001 A
HETATM   18  C12 UNL     1      36.700  14.231  60.041  1.00  0.00     0.009 A
ENDBRANCH   1  13
BRANCH   1  19
HETATM   19  C13 UNL     1      38.026  15.906  57.300  1.00  0.00    -0.036 A
HETATM   20  C14 UNL     1      37.763  15.785  55.969  1.00  0.00     0.009 A
HETATM   21  C15 UNL     1      37.562  16.889  55.155  1.00  0.00     0.001 A
HETATM   22  C16 UNL     1      37.623  18.174  55.667  1.00  0.00     0.000 A
HETATM   23  C17 UNL     1      37.888  18.290  57.008  1.00  0.00     0.001 A
HETATM   24  C18 UNL     1      38.087  17.208  57.819  1.00  0.00     0.009 A
ENDBRANCH   1  19
BRANCH   1  25
HETATM   25  C19 UNL     1      37.477  13.645  57.636  1.00  0.00    -0.036 A
HETATM   26  C20 UNL     1      38.001  12.402  57.400  1.00  0.00     0.009 A
HETATM   27  C21 UNL     1      37.197  11.432  56.847  1.00  0.00     0.001 A
HETATM   28  C22 UNL     1      35.879  11.701  56.530  1.00  0.00     0.000 A
HETATM   29  C23 UNL     1      35.351  12.950  56.766  1.00  0.00     0.001 A
HETATM   30  C24 UNL     1      36.138  13.926  57.318  1.00  0.00     0.009 A
ENDBRANCH   1  25
TORSDOF 6
ENDMDL