MODEL 4
REMARK VINA RESULT: -10.417070149      1.967      8.491
REMARK  6 active torsions:
REMARK  status: ('A' for Active; 'I' for Inactive)
REMARK    1  A    between atoms: C4_4  and  C5_5
REMARK    2  A    between atoms: C5_5  and  C6_6
REMARK    3  A    between atoms: C6_6  and  O1_7
REMARK    4  A    between atoms: O1_7  and  C7_8
REMARK    5  A    between atoms: C11_12  and  C12_13
REMARK    6  A    between atoms: C12_13  and  C13_14
ROOT
HETATM    1  C7  UNL     1      31.607  18.454  48.103  1.00  0.00     0.069 A
HETATM    2  C8  UNL     1      30.457  17.913  48.629  1.00  0.00     0.037 A
HETATM    3  C9  UNL     1      30.086  18.308  49.908  1.00  0.00     0.003 A
HETATM    4  C10 UNL     1      30.817  19.205  50.655  1.00  0.00     0.007 A
HETATM    5  C11 UNL     1      31.980  19.758  50.136  1.00  0.00    -0.050 A
HETATM    6  C21 UNL     1      32.339  19.367  48.878  1.00  0.00     0.044 A
ENDROOT
BRANCH   5   7
HETATM    7  C12 UNL     1      32.786  20.728  50.923  1.00  0.00     0.095 C
BRANCH   7   8
HETATM    8  C13 UNL     1      33.767  19.961  51.713  1.00  0.00     0.014 A
HETATM    9  C14 UNL     1      33.591  19.491  53.013  1.00  0.00     0.039 A
HETATM   10  C15 UNL     1      34.714  18.827  53.410  1.00  0.00    -0.008 A
HETATM   11  C16 UNL     1      35.096  18.172  54.562  1.00  0.00     0.014 A
HETATM   12  C20 UNL     1      35.591  18.886  52.349  1.00  0.00     0.042 A
HETATM   13  C17 UNL     1      36.331  17.572  54.691  1.00  0.00     0.001 A
HETATM   14  C18 UNL     1      37.211  17.624  53.644  1.00  0.00     0.002 A
HETATM   15  C19 UNL     1      36.827  18.283  52.484  1.00  0.00     0.030 A
HETATM   16  N1  UNL     1      34.990  19.573  51.353  1.00  0.00    -0.359 N
ATOM     17  H1  UNL     1      35.414  19.768  50.447  1.00  0.00     0.166 HD
ENDBRANCH   7   8
ENDBRANCH   5   7
BRANCH   1  18
HETATM   18  O1  UNL     1      32.091  18.164  46.861  1.00  0.00    -0.351 OA
BRANCH  18  19
HETATM   19  C6  UNL     1      32.165  18.853  45.679  1.00  0.00     0.180 C
BRANCH  19  20
HETATM   20  C5  UNL     1      30.918  19.513  45.180  1.00  0.00     0.065 C
BRANCH  20  21
HETATM   21  C4  UNL     1      30.970  20.996  45.257  1.00  0.00    -0.056 A
HETATM   22  C3  UNL     1      31.468  21.666  46.351  1.00  0.00     0.007 A
HETATM   23  C2  UNL     1      31.504  23.045  46.384  1.00  0.00     0.001 A
HETATM   24  C1  UNL     1      31.045  23.785  45.329  1.00  0.00     0.000 A
HETATM   25  C23 UNL     1      30.545  23.136  44.231  1.00  0.00     0.001 A
HETATM   26  C22 UNL     1      30.513  21.758  44.207  1.00  0.00     0.007 A
ENDBRANCH  20  21
ENDBRANCH  19  20
ENDBRANCH  18  19
ENDBRANCH   1  18
TORSDOF 6
ENDMDL