MODEL 4
REMARK VINA RESULT: -9.745503415      0.893      2.332
REMARK  6 active torsions:
REMARK  status: ('A' for Active; 'I' for Inactive)
REMARK    1  A    between atoms: C4_4  and  C5_5
REMARK    2  A    between atoms: C5_5  and  C6_6
REMARK    3  A    between atoms: C6_6  and  C7_7
REMARK    4  A    between atoms: C7_7  and  C8_8
REMARK    5  A    between atoms: C7_7  and  C13_15
REMARK    6  A    between atoms: C8_8  and  C9_9
ROOT
HETATM    1  C7  UNL     1      31.970  19.930  47.062  1.00  0.00     0.025 C
ENDROOT
BRANCH   1   2
HETATM    2  C6  UNL     1      32.602  21.219  46.582  1.00  0.00     0.014 C
BRANCH   2   3
HETATM    3  C5  UNL     1      31.588  22.308  46.840  1.00  0.00     0.039 C
BRANCH   3   4
HETATM    4  C4  UNL     1      30.625  22.437  45.715  1.00  0.00    -0.058 A
HETATM    5  C3  UNL     1      29.287  22.429  46.060  1.00  0.00     0.007 A
HETATM    6  C2  UNL     1      28.272  22.540  45.140  1.00  0.00     0.001 A
HETATM    7  C1  UNL     1      28.619  22.664  43.801  1.00  0.00     0.000 A
HETATM    8  C23 UNL     1      29.952  22.672  43.460  1.00  0.00     0.001 A
HETATM    9  C22 UNL     1      30.976  22.559  44.402  1.00  0.00     0.007 A
ENDBRANCH   3   4
ENDBRANCH   2   3
ENDBRANCH   1   2
BRANCH   1  10
HETATM   10  C8  UNL     1      32.548  18.755  46.259  1.00  0.00     0.066 C
BRANCH  10  11
HETATM   11  C9  UNL     1      32.057  18.720  44.867  1.00  0.00     0.009 A
HETATM   12  C10 UNL     1      30.791  19.019  44.421  1.00  0.00     0.026 A
HETATM   13  C11 UNL     1      30.752  18.861  43.046  1.00  0.00     0.019 A
HETATM   14  C12 UNL     1      32.022  18.460  42.675  1.00  0.00     0.088 A
HETATM   15  N1  UNL     1      32.787  18.384  43.785  1.00  0.00    -0.369 N
ATOM     16  H1  UNL     1      33.770  18.112  43.801  1.00  0.00     0.165 HD
ENDBRANCH  10  11
ENDBRANCH   1  10
BRANCH   1  17
HETATM   17  C13 UNL     1      32.400  19.668  48.440  1.00  0.00    -0.040 A
HETATM   18  C14 UNL     1      33.715  19.809  48.793  1.00  0.00     0.025 A
HETATM   19  C15 UNL     1      34.142  19.495  50.091  1.00  0.00     0.089 A
HETATM   20  N2  UNL     1      33.309  19.051  51.031  1.00  0.00    -0.365 N
HETATM   21  C16 UNL     1      32.009  18.904  50.707  1.00  0.00     0.042 A
ATOM     22  H2  UNL     1      33.645  18.829  51.968  1.00  0.00     0.165 HD
HETATM   23  C17 UNL     1      31.106  18.450  51.667  1.00  0.00     0.030 A
HETATM   24  C21 UNL     1      31.545  19.205  49.431  1.00  0.00    -0.003 A
HETATM   25  C18 UNL     1      29.780  18.316  51.316  1.00  0.00     0.002 A
HETATM   26  C19 UNL     1      29.314  18.612  50.059  1.00  0.00     0.001 A
HETATM   27  C20 UNL     1      30.215  19.065  49.102  1.00  0.00     0.014 A
ENDBRANCH   1  17
TORSDOF 6
ENDMDL