MODEL 2
REMARK VINA RESULT: -9.496334987      3.474      5.814
REMARK  6 active torsions:
REMARK  status: ('A' for Active; 'I' for Inactive)
REMARK    1  A    between atoms: C4_4  and  C5_5
REMARK    2  A    between atoms: C5_5  and  C6_6
REMARK    3  A    between atoms: C6_6  and  C7_7
REMARK    4  A    between atoms: C12_14  and  O1_15
REMARK    5  A    between atoms: O1_15  and  C13_16
REMARK    6  A    between atoms: C13_16  and  C14_17
ROOT
HETATM    1  C7  UNL     1      30.457  21.037  48.210  1.00  0.00    -0.030 A
HETATM    2  C8  UNL     1      29.306  20.299  47.991  1.00  0.00     0.096 A
HETATM    3  N1  UNL     1      29.233  19.316  48.882  1.00  0.00    -0.365 N
ATOM      4  H1  UNL     1      28.491  18.620  48.953  1.00  0.00     0.165 HD
HETATM    5  C9  UNL     1      30.331  19.408  49.684  1.00  0.00     0.043 A
HETATM    6  C10 UNL     1      30.698  18.620  50.745  1.00  0.00     0.033 A
HETATM    7  C11 UNL     1      31.879  18.947  51.388  1.00  0.00     0.039 A
HETATM    8  C12 UNL     1      32.673  20.004  51.008  1.00  0.00     0.070 A
HETATM    9  C20 UNL     1      32.291  20.795  49.934  1.00  0.00     0.051 A
HETATM   10  C21 UNL     1      31.114  20.472  49.292  1.00  0.00     0.001 A
ENDROOT
BRANCH   1  11
HETATM   11  C6  UNL     1      30.868  22.197  47.422  1.00  0.00     0.045 C
BRANCH  11  12
HETATM   12  C5  UNL     1      31.801  21.887  46.278  1.00  0.00     0.043 C
BRANCH  12  13
HETATM   13  C4  UNL     1      31.043  21.464  45.073  1.00  0.00    -0.058 A
HETATM   14  C3  UNL     1      30.260  22.339  44.336  1.00  0.00     0.007 A
HETATM   15  C2  UNL     1      29.579  21.889  43.226  1.00  0.00     0.001 A
HETATM   16  C1  UNL     1      29.662  20.569  42.827  1.00  0.00     0.000 A
HETATM   17  C23 UNL     1      30.439  19.710  43.562  1.00  0.00     0.001 A
HETATM   18  C22 UNL     1      31.120  20.151  44.669  1.00  0.00     0.007 A
ENDBRANCH  12  13
ENDBRANCH  11  12
ENDBRANCH   1  11
BRANCH   8  19
HETATM   19  O1  UNL     1      33.823  20.272  51.682  1.00  0.00    -0.347 OA
BRANCH  19  20
HETATM   20  C13 UNL     1      35.020  19.624  51.311  1.00  0.00     0.214 C
BRANCH  20  21
HETATM   21  C14 UNL     1      35.717  19.033  52.481  1.00  0.00    -0.034 A
HETATM   22  C15 UNL     1      36.915  18.355  52.397  1.00  0.00     0.009 A
HETATM   23  C16 UNL     1      37.452  17.855  53.565  1.00  0.00     0.001 A
HETATM   24  C17 UNL     1      36.838  18.009  54.804  1.00  0.00     0.000 A
HETATM   25  C18 UNL     1      35.644  18.688  54.873  1.00  0.00     0.001 A
HETATM   26  C19 UNL     1      35.090  19.196  53.717  1.00  0.00     0.009 A
ENDBRANCH  20  21
ENDBRANCH  19  20
ENDBRANCH   8  19
TORSDOF 6
ENDMDL