MODEL 1
REMARK VINA RESULT: -11.062217564      0.000      0.000
REMARK  6 active torsions:
REMARK  status: ('A' for Active; 'I' for Inactive)
REMARK    1  A    between atoms: C4_4  and  C5_5
REMARK    2  A    between atoms: C9_9  and  C10_10
REMARK    3  A    between atoms: C10_10  and  C11_11
REMARK    4  A    between atoms: C11_11  and  C12_12
REMARK    5  A    between atoms: C12_12  and  C13_13
REMARK    6  A    between atoms: C15_17  and  C16_18
ROOT
HETATM    1  C11 UNL     1      33.176  19.561  51.658  1.00  0.00     0.011 C
ENDROOT
BRANCH   1   2
HETATM    2  C10 UNL     1      33.477  19.226  53.118  1.00  0.00     0.039 C
BRANCH   2   3
HETATM    3  C9  UNL     1      34.902  18.831  53.276  1.00  0.00    -0.057 A
HETATM    4  C8  UNL     1      35.681  18.688  52.146  1.00  0.00     0.007 A
HETATM    5  C7  UNL     1      37.019  18.319  52.266  1.00  0.00     0.001 A
HETATM    6  C6  UNL     1      37.565  18.097  53.513  1.00  0.00     0.012 A
HETATM    7  C5  UNL     1      36.784  18.240  54.636  1.00  0.00    -0.025 A
HETATM    8  C22 UNL     1      35.440  18.610  54.532  1.00  0.00     0.019 A
BRANCH   7   9
HETATM    9  C4  UNL     1      37.394  17.998  55.929  1.00  0.00    -0.026 A
HETATM   10  C3  UNL     1      37.797  19.076  56.704  1.00  0.00     0.012 A
HETATM   11  C2  UNL     1      38.385  18.902  57.945  1.00  0.00     0.001 A
HETATM   12  C1  UNL     1      38.581  17.629  58.437  1.00  0.00     0.000 A
HETATM   13  C24 UNL     1      38.191  16.533  57.685  1.00  0.00     0.001 A
HETATM   14  C23 UNL     1      37.607  16.739  56.450  1.00  0.00     0.012 A
ENDBRANCH   7   9
ENDBRANCH   2   3
ENDBRANCH   1   2
BRANCH   1  15
HETATM   15  C12 UNL     1      32.228  18.496  51.169  1.00  0.00     0.059 C
BRANCH  15  16
HETATM   16  C13 UNL     1      31.207  19.020  50.228  1.00  0.00     0.026 A
HETATM   17  C14 UNL     1      29.902  18.585  50.131  1.00  0.00     0.114 A
HETATM   18  N1  UNL     1      29.308  19.315  49.159  1.00  0.00    -0.350 N
HETATM   19  C15 UNL     1      30.182  20.189  48.642  1.00  0.00     0.115 A
ATOM     20  H1  UNL     1      28.337  19.215  48.864  1.00  0.00     0.166 HD
HETATM   21  N2  UNL     1      31.335  19.997  49.304  1.00  0.00    -0.344 N
ATOM     22  H2  UNL     1      32.194  20.519  49.131  1.00  0.00     0.167 HD
BRANCH  19  23
HETATM   23  C16 UNL     1      29.895  21.145  47.568  1.00  0.00     0.008 A
HETATM   24  C17 UNL     1      28.633  21.291  47.054  1.00  0.00     0.015 A
HETATM   25  C18 UNL     1      28.333  22.185  46.038  1.00  0.00     0.001 A
HETATM   26  C19 UNL     1      29.325  22.979  45.502  1.00  0.00     0.000 A
HETATM   27  C20 UNL     1      30.596  22.836  46.018  1.00  0.00     0.001 A
HETATM   28  C21 UNL     1      30.899  21.931  47.042  1.00  0.00     0.015 A
ENDBRANCH  19  23
ENDBRANCH  15  16
ENDBRANCH   1  15
TORSDOF 6
ENDMDL