MODEL 3
REMARK VINA RESULT: -9.678612430      1.709      3.089
REMARK  6 active torsions:
REMARK  status: ('A' for Active; 'I' for Inactive)
REMARK    1  A    between atoms: C4_4  and  C5_5
REMARK    2  A    between atoms: C5_5  and  C6_6
REMARK    3  A    between atoms: C11_11  and  O1_12
REMARK    4  A    between atoms: O1_12  and  C12_13
REMARK    5  A    between atoms: C12_13  and  C13_14
REMARK    6  A    between atoms: C13_14  and  C14_15
ROOT
HETATM    1  C6  UNL     1      31.740  20.197  47.013  1.00  0.00    -0.021 A
HETATM    2  C7  UNL     1      31.756  19.742  45.725  1.00  0.00     0.010 A
HETATM    3  C8  UNL     1      32.014  18.431  45.446  1.00  0.00     0.001 A
HETATM    4  C9  UNL     1      32.257  17.584  46.497  1.00  0.00     0.003 A
HETATM    5  C10 UNL     1      32.243  18.041  47.820  1.00  0.00     0.037 A
HETATM    6  C11 UNL     1      31.983  19.356  48.112  1.00  0.00     0.075 A
ENDROOT
BRANCH   6   7
HETATM    7  O1  UNL     1      31.952  19.885  49.360  1.00  0.00    -0.350 OA
BRANCH   7   8
HETATM    8  C12 UNL     1      32.241  19.399  50.604  1.00  0.00     0.180 C
BRANCH   8   9
HETATM    9  C13 UNL     1      33.052  20.366  51.427  1.00  0.00     0.067 C
BRANCH   9  10
HETATM   10  C14 UNL     1      34.424  19.766  51.609  1.00  0.00    -0.028 A
HETATM   11  C15 UNL     1      35.461  19.755  50.691  1.00  0.00     0.096 A
HETATM   12  N1  UNL     1      36.536  19.130  51.203  1.00  0.00    -0.365 N
HETATM   13  C16 UNL     1      36.187  18.745  52.439  1.00  0.00     0.042 A
ATOM     14  H1  UNL     1      37.434  18.979  50.743  1.00  0.00     0.165 HD
HETATM   15  C17 UNL     1      36.899  18.059  53.428  1.00  0.00     0.030 A
HETATM   16  C21 UNL     1      34.901  19.116  52.726  1.00  0.00    -0.002 A
HETATM   17  C18 UNL     1      36.297  17.785  54.632  1.00  0.00     0.002 A
HETATM   18  C19 UNL     1      35.005  18.156  54.923  1.00  0.00     0.001 A
HETATM   19  C20 UNL     1      34.306  18.833  53.945  1.00  0.00     0.014 A
ENDBRANCH   9  10
ENDBRANCH   8   9
ENDBRANCH   7   8
ENDBRANCH   6   7
BRANCH   1  20
HETATM   20  C5  UNL     1      31.459  21.624  47.319  1.00  0.00     0.080 C
BRANCH  20  21
HETATM   21  C4  UNL     1      30.200  22.068  46.661  1.00  0.00    -0.054 A
HETATM   22  C3  UNL     1      29.016  21.539  47.062  1.00  0.00     0.007 A
HETATM   23  C2  UNL     1      27.842  21.936  46.466  1.00  0.00     0.001 A
HETATM   24  C1  UNL     1      27.831  22.870  45.457  1.00  0.00     0.000 A
HETATM   25  C23 UNL     1      29.051  23.393  45.067  1.00  0.00     0.001 A
HETATM   26  C22 UNL     1      30.221  23.001  45.657  1.00  0.00     0.007 A
ENDBRANCH  20  21
ENDBRANCH   1  20
TORSDOF 6
ENDMDL