MODEL 2
REMARK VINA RESULT: -8.967206277      0.878      2.019
REMARK  6 active torsions:
REMARK  status: ('A' for Active; 'I' for Inactive)
REMARK    1  A    between atoms: C4_4  and  C5_5
REMARK    2  A    between atoms: C5_5  and  C6_6
REMARK    3  A    between atoms: C6_6  and  C7_7
REMARK    4  A    between atoms: C7_7  and  C8_8
REMARK    5  A    between atoms: C8_8  and  C9_9
REMARK    6  A    between atoms: C8_8  and  C15_15
ROOT
HETATM    1  C8  UNL     1      31.632  19.260  46.580  1.00  0.00     0.054 C
ENDROOT
BRANCH   1   2
HETATM    2  C7  UNL     1      32.664  19.013  45.531  1.00  0.00     0.014 C
BRANCH   2   3
HETATM    3  C6  UNL     1      32.342  17.879  44.605  1.00  0.00     0.006 C
BRANCH   3   4
HETATM    4  C5  UNL     1      32.404  18.277  43.149  1.00  0.00     0.038 C
BRANCH   4   5
HETATM    5  C4  UNL     1      31.392  19.343  42.930  1.00  0.00    -0.058 A
HETATM    6  C3  UNL     1      31.714  20.633  42.561  1.00  0.00     0.007 A
HETATM    7  C2  UNL     1      30.770  21.615  42.361  1.00  0.00     0.001 A
HETATM    8  C1  UNL     1      29.419  21.312  42.535  1.00  0.00     0.000 A
HETATM    9  C23 UNL     1      29.076  20.036  42.902  1.00  0.00     0.001 A
HETATM   10  C22 UNL     1      30.037  19.078  43.094  1.00  0.00     0.007 A
ENDBRANCH   4   5
ENDBRANCH   3   4
ENDBRANCH   2   3
ENDBRANCH   1   2
BRANCH   1  11
HETATM   11  C9  UNL     1      31.021  20.589  46.313  1.00  0.00    -0.050 A
HETATM   12  C10 UNL     1      31.809  21.693  46.013  1.00  0.00     0.008 A
HETATM   13  C11 UNL     1      31.260  22.944  45.749  1.00  0.00     0.001 A
HETATM   14  C12 UNL     1      29.890  23.128  45.778  1.00  0.00     0.000 A
HETATM   15  C13 UNL     1      29.115  22.027  46.076  1.00  0.00     0.001 A
HETATM   16  C14 UNL     1      29.660  20.789  46.337  1.00  0.00     0.008 A
ENDBRANCH   1  11
BRANCH   1  17
HETATM   17  C15 UNL     1      32.131  19.251  47.960  1.00  0.00    -0.020 A
HETATM   18  C16 UNL     1      33.420  19.552  48.415  1.00  0.00     0.098 A
HETATM   19  N1  UNL     1      33.403  19.426  49.749  1.00  0.00    -0.351 N
HETATM   20  C17 UNL     1      32.191  19.063  50.207  1.00  0.00     0.115 A
ATOM     21  H1  UNL     1      34.213  19.586  50.347  1.00  0.00     0.166 HD
HETATM   22  N2  UNL     1      31.704  18.816  51.457  1.00  0.00    -0.352 N
HETATM   23  C21 UNL     1      31.387  18.952  49.079  1.00  0.00     0.016 A
HETATM   24  C18 UNL     1      30.447  18.459  51.672  1.00  0.00     0.089 A
ATOM     25  H2  UNL     1      32.332  18.910  52.256  1.00  0.00     0.166 HD
HETATM   26  C19 UNL     1      29.611  18.334  50.595  1.00  0.00     0.018 A
HETATM   27  C20 UNL     1      30.066  18.575  49.311  1.00  0.00     0.017 A
ENDBRANCH   1  17
TORSDOF 6
ENDMDL