MODEL 4
REMARK VINA RESULT: -7.899727953      2.093      7.238
REMARK  6 active torsions:
REMARK  status: ('A' for Active; 'I' for Inactive)
REMARK    1  A    between atoms: C4_4  and  C5_5
REMARK    2  A    between atoms: C5_5  and  C6_6
REMARK    3  A    between atoms: C5_5  and  C17_19
REMARK    4  A    between atoms: C6_6  and  C7_7
REMARK    5  A    between atoms: C7_7  and  C8_8
REMARK    6  A    between atoms: C8_8  and  C9_9
ROOT
HETATM    1  C5  UNL     1      31.360  20.403  47.343  1.00  0.00     0.051 C
ENDROOT
BRANCH   1   2
HETATM    2  C4  UNL     1      30.244  21.226  46.786  1.00  0.00    -0.050 A
HETATM    3  C3  UNL     1      28.910  20.931  46.951  1.00  0.00     0.008 A
HETATM    4  C2  UNL     1      27.910  21.714  46.421  1.00  0.00     0.001 A
HETATM    5  C1  UNL     1      28.243  22.830  45.702  1.00  0.00     0.000 A
HETATM    6  C23 UNL     1      29.579  23.169  45.508  1.00  0.00     0.001 A
HETATM    7  C22 UNL     1      30.547  22.378  46.042  1.00  0.00     0.008 A
ENDBRANCH   1   2
BRANCH   1   8
HETATM    8  C6  UNL     1      31.023  20.011  48.736  1.00  0.00     0.014 C
BRANCH   8   9
HETATM    9  C7  UNL     1      31.881  20.714  49.776  1.00  0.00     0.006 C
BRANCH   9  10
HETATM   10  C8  UNL     1      33.163  19.907  49.890  1.00  0.00     0.041 C
BRANCH  10  11
HETATM   11  C9  UNL     1      33.441  19.528  51.290  1.00  0.00    -0.030 A
HETATM   12  C10 UNL     1      32.599  19.472  52.368  1.00  0.00     0.096 A
HETATM   13  N1  UNL     1      33.285  19.072  53.453  1.00  0.00    -0.365 N
HETATM   14  C11 UNL     1      34.582  18.860  53.107  1.00  0.00     0.042 A
ATOM     15  H1  UNL     1      32.894  18.947  54.388  1.00  0.00     0.165 HD
HETATM   16  C12 UNL     1      35.669  18.449  53.859  1.00  0.00     0.030 A
HETATM   17  C16 UNL     1      34.680  19.146  51.754  1.00  0.00    -0.002 A
HETATM   18  C13 UNL     1      36.902  18.314  53.243  1.00  0.00     0.002 A
HETATM   19  C14 UNL     1      37.017  18.594  51.899  1.00  0.00     0.001 A
HETATM   20  C15 UNL     1      35.929  19.004  51.159  1.00  0.00     0.014 A
ENDBRANCH  10  11
ENDBRANCH   9  10
ENDBRANCH   8   9
ENDBRANCH   1   8
BRANCH   1  21
HETATM   21  C17 UNL     1      31.723  19.293  46.467  1.00  0.00    -0.047 A
HETATM   22  C18 UNL     1      32.124  18.064  46.933  1.00  0.00     0.025 A
HETATM   23  C19 UNL     1      32.463  17.036  46.046  1.00  0.00     0.088 A
HETATM   24  N2  UNL     1      32.402  17.235  44.707  1.00  0.00    -0.375 N
HETATM   25  C20 UNL     1      32.012  18.428  44.228  1.00  0.00     0.088 A
ATOM     26  H2  UNL     1      32.651  16.482  44.065  1.00  0.00     0.164 HD
HETATM   27  C21 UNL     1      31.675  19.450  45.093  1.00  0.00     0.025 A
ENDBRANCH   1  21
TORSDOF 6
ENDMDL