MODEL 3
REMARK VINA RESULT: -10.136491832      1.326      3.321
REMARK  7 active torsions:
REMARK  status: ('A' for Active; 'I' for Inactive)
REMARK    1  A    between atoms: C4_4  and  C5_5
REMARK    2  A    between atoms: C5_5  and  C6_6
REMARK    3  A    between atoms: C6_6  and  C7_7
REMARK    4  A    between atoms: C7_7  and  C8_8
REMARK    5  A    between atoms: C8_8  and  C9_9
REMARK    6  A    between atoms: C9_9  and  N1_10
REMARK    7  A    between atoms: N1_10  and  C10_12
ROOT
HETATM    1  C10 UNL     1      29.634  20.384  46.757  1.00  0.00     0.042 A
HETATM    2  C11 UNL     1      28.674  21.240  47.316  1.00  0.00     0.047 A
HETATM    3  C12 UNL     1      28.006  22.160  46.569  1.00  0.00     0.090 A
HETATM    4  N2  UNL     1      28.270  22.253  45.265  1.00  0.00    -0.365 N
ATOM      5  H2  UNL     1      27.768  22.942  44.706  1.00  0.00     0.165 HD
HETATM    6  C13 UNL     1      29.178  21.463  44.670  1.00  0.00     0.045 A
HETATM    7  C14 UNL     1      29.435  21.574  43.327  1.00  0.00     0.031 A
HETATM    8  C15 UNL     1      30.346  20.798  42.675  1.00  0.00     0.014 A
HETATM    9  C16 UNL     1      31.022  19.867  43.425  1.00  0.00    -0.025 A
HETATM   10  C17 UNL     1      31.961  19.060  42.777  1.00  0.00     0.012 A
HETATM   11  C18 UNL     1      32.675  18.110  43.462  1.00  0.00     0.001 A
HETATM   12  C19 UNL     1      32.462  17.949  44.811  1.00  0.00     0.001 A
HETATM   13  C20 UNL     1      31.527  18.745  45.488  1.00  0.00     0.013 A
HETATM   14  C21 UNL     1      30.829  19.682  44.792  1.00  0.00    -0.011 A
HETATM   15  C22 UNL     1      29.885  20.500  45.425  1.00  0.00     0.028 A
ENDROOT
BRANCH   1  16
HETATM   16  N1  UNL     1      30.210  19.557  47.522  1.00  0.00    -0.389 N
ATOM     17  H1  UNL     1      31.027  19.069  47.156  1.00  0.00     0.159 HD
BRANCH  16  18
HETATM   18  C9  UNL     1      29.801  19.246  48.880  1.00  0.00     0.119 C
BRANCH  18  19
HETATM   19  C8  UNL     1      30.908  18.693  49.711  1.00  0.00     0.020 C
BRANCH  19  20
HETATM   20  C7  UNL     1      32.229  18.652  48.999  1.00  0.00     0.002 C
BRANCH  20  21
HETATM   21  C6  UNL     1      33.186  19.705  49.461  1.00  0.00     0.005 C
BRANCH  21  22
HETATM   22  C5  UNL     1      32.851  20.180  50.857  1.00  0.00     0.038 C
BRANCH  22  23
HETATM   23  C4  UNL     1      33.781  19.654  51.887  1.00  0.00    -0.058 A
HETATM   24  C3  UNL     1      35.121  19.588  51.542  1.00  0.00     0.007 A
HETATM   25  C2  UNL     1      36.015  19.115  52.465  1.00  0.00     0.001 A
HETATM   26  C1  UNL     1      35.596  18.711  53.711  1.00  0.00     0.000 A
HETATM   27  C24 UNL     1      34.255  18.779  54.054  1.00  0.00     0.001 A
HETATM   28  C23 UNL     1      33.373  19.248  53.138  1.00  0.00     0.007 A
ENDBRANCH  22  23
ENDBRANCH  21  22
ENDBRANCH  20  21
ENDBRANCH  19  20
ENDBRANCH  18  19
ENDBRANCH  16  18
ENDBRANCH   1  16
TORSDOF 7
ENDMDL