MODEL 2
REMARK VINA RESULT: -4.326855738      0.984      1.107
REMARK  4 active torsions:
REMARK  status: ('A' for Active; 'I' for Inactive)
REMARK    1  A    between atoms: N1_1  and  C1_5
REMARK    2  A    between atoms: C1_5  and  N2_6
REMARK    3  A    between atoms: C1_5  and  C2_10
REMARK    4  A    between atoms: C3_11  and  C4_12
ROOT
HETATM    1  C2  UNL     1      73.803  40.313  43.487  1.00  0.00     0.036 C
HETATM    2  C3  UNL     1      73.414  39.666  44.522  1.00  0.00     0.032 C
ENDROOT
BRANCH   1   3
HETATM    3  C1  UNL     1      73.669  41.696  43.051  1.00  0.00     0.401 C
BRANCH   3   4
HETATM    4  N1  UNL     1      74.653  42.063  42.040  1.00  0.00    -0.047 N
ATOM      5  H13 UNL     1      74.577  43.021  41.698  1.00  0.00     0.277 HD
ATOM      6  H12 UNL     1      75.608  42.154  42.388  1.00  0.00     0.277 HD
ATOM      7  H11 UNL     1      74.526  41.345  41.327  1.00  0.00     0.277 HD
ENDBRANCH   3   4
BRANCH   3   8
HETATM    8  N2  UNL     1      72.378  41.801  42.313  1.00  0.00    -0.047 N
ATOM      9  H23 UNL     1      72.459  41.724  41.299  1.00  0.00     0.277 HD
ATOM     10  H22 UNL     1      71.756  41.001  42.427  1.00  0.00     0.277 HD
ATOM     11  H21 UNL     1      71.998  42.688  42.643  1.00  0.00     0.277 HD
ENDBRANCH   3   8
ENDBRANCH   1   3
BRANCH   2  12
HETATM   12  C4  UNL     1      72.669  40.199  45.633  1.00  0.00     0.066 A
HETATM   13  C5  UNL     1      73.059  40.003  46.988  1.00  0.00     0.139 A
HETATM   14  N3  UNL     1      72.163  40.624  47.731  1.00  0.00    -0.295 N
HETATM   15  N4  UNL     1      71.254  41.190  46.981  1.00  0.00    -0.243 N
ATOM     16  H3  UNL     1      72.177  40.659  48.750  1.00  0.00     0.187 HD
HETATM   17  N5  UNL     1      71.552  40.937  45.706  1.00  0.00    -0.285 N
ATOM     18  H4  UNL     1      70.455  41.731  47.312  1.00  0.00     0.208 HD
ATOM     19  H5  UNL     1      71.010  41.257  44.903  1.00  0.00     0.188 HD
ENDBRANCH   2  12
TORSDOF 4
ENDMDL