MODEL 4
REMARK VINA RESULT: -4.509627000      2.791      3.293
REMARK  4 active torsions:
REMARK  status: ('A' for Active; 'I' for Inactive)
REMARK    1  A    between atoms: C2_2  and  N1_3
REMARK    2  A    between atoms: C2_2  and  O1_7
REMARK    3  A    between atoms: O1_7  and  C3_8
REMARK    4  A    between atoms: C4_11  and  N3_12
ROOT
HETATM    1  C3  UNL     1      73.665  41.222  44.153  1.00  0.00     0.255 A
HETATM    2  N2  UNL     1      72.418  41.593  43.825  1.00  0.00    -0.153 N
ATOM      3  H2  UNL     1      71.582  41.419  44.383  1.00  0.00     0.188 HD
HETATM    4  C4  UNL     1      72.451  42.233  42.644  1.00  0.00     0.693 A
HETATM    5  N4  UNL     1      73.748  42.235  42.273  1.00  0.00    -0.129 N
ATOM      6  H4  UNL     1      74.108  42.648  41.412  1.00  0.00     0.205 HD
HETATM    7  N5  UNL     1      74.477  41.629  43.176  1.00  0.00    -0.250 N
ATOM      8  H5  UNL     1      75.488  41.492  43.138  1.00  0.00     0.191 HD
ENDROOT
BRANCH   1   9
HETATM    9  O1  UNL     1      74.014  40.544  45.295  1.00  0.00    -0.287 OA
BRANCH   9  10
HETATM   10  C2  UNL     1      74.073  41.117  46.568  1.00  0.00     0.323 C
HETATM   11  C1  UNL     1      72.719  41.082  47.221  1.00  0.00     0.071 C
BRANCH  10  12
HETATM   12  N1  UNL     1      74.517  42.499  46.495  1.00  0.00    -0.053 N
ATOM     13  H13 UNL     1      73.969  43.052  45.838  1.00  0.00     0.277 HD
ATOM     14  H12 UNL     1      74.296  43.025  47.340  1.00  0.00     0.277 HD
ATOM     15  H11 UNL     1      75.514  42.510  46.278  1.00  0.00     0.277 HD
ENDBRANCH  10  12
ENDBRANCH   9  10
ENDBRANCH   1   9
BRANCH   4  16
HETATM   16  N3  UNL     1      71.508  42.761  41.944  1.00  0.00    -0.233 N
ATOM     17  H32 UNL     1      70.878  43.481  42.297  1.00  0.00     0.174 HD
ATOM     18  H31 UNL     1      71.216  42.593  40.981  1.00  0.00     0.174 HD
ENDBRANCH   4  16
TORSDOF 4
ENDMDL