MODEL 3
REMARK VINA RESULT: -3.729741501      7.027      8.573
REMARK  6 active torsions:
REMARK  status: ('A' for Active; 'I' for Inactive)
REMARK    1  A    between atoms: C2_2  and  N1_3
REMARK    2  A    between atoms: C2_2  and  C3_7
REMARK    3  A    between atoms: C4_8  and  N2_9
REMARK    4  A    between atoms: C5_13  and  C6_14
REMARK    5  A    between atoms: C6_14  and  N3_15
REMARK    6  A    between atoms: C6_14  and  N4_19
ROOT
HETATM    1  C3  UNL     1      73.717  32.338  46.231  1.00  0.00     0.056 A
HETATM    2  C4  UNL     1      74.198  33.676  46.606  1.00  0.00     0.198 A
HETATM    3  C5  UNL     1      72.750  33.414  46.718  1.00  0.00     0.082 A
ENDROOT
BRANCH   3   4
HETATM    4  C6  UNL     1      72.101  33.083  48.038  1.00  0.00     0.384 C
BRANCH   4   5
HETATM    5  N3  UNL     1      72.729  33.723  49.151  1.00  0.00    -0.050 N
ATOM      6  H33 UNL     1      73.298  34.511  48.843  1.00  0.00     0.276 HD
ATOM      7  H32 UNL     1      72.042  34.223  49.717  1.00  0.00     0.276 HD
ATOM      8  H31 UNL     1      73.277  33.084  49.727  1.00  0.00     0.276 HD
ENDBRANCH   4   5
BRANCH   4   9
HETATM    9  N4  UNL     1      70.700  33.472  47.998  1.00  0.00    -0.050 N
ATOM     10  H43 UNL     1      70.420  33.812  47.078  1.00  0.00     0.276 HD
ATOM     11  H42 UNL     1      70.075  32.668  48.052  1.00  0.00     0.276 HD
ATOM     12  H41 UNL     1      70.517  34.154  48.734  1.00  0.00     0.276 HD
ENDBRANCH   4   9
ENDBRANCH   3   4
BRANCH   1  13
HETATM   13  C2  UNL     1      73.483  31.905  44.827  1.00  0.00     0.186 C
HETATM   14  C1  UNL     1      74.754  31.704  44.040  1.00  0.00     0.040 C
BRANCH  13  15
HETATM   15  N1  UNL     1      72.745  30.654  44.848  1.00  0.00    -0.075 N
ATOM     16  H13 UNL     1      71.781  30.775  45.159  1.00  0.00     0.274 HD
ATOM     17  H12 UNL     1      72.548  30.302  43.912  1.00  0.00     0.274 HD
ATOM     18  H11 UNL     1      73.257  29.981  45.418  1.00  0.00     0.274 HD
ENDBRANCH  13  15
ENDBRANCH   1  13
BRANCH   2  19
HETATM   19  N2  UNL     1      74.627  34.631  45.595  1.00  0.00    -0.074 N
ATOM     20  H23 UNL     1      74.522  34.192  44.680  1.00  0.00     0.274 HD
ATOM     21  H22 UNL     1      73.934  35.378  45.551  1.00  0.00     0.274 HD
ATOM     22  H21 UNL     1      75.551  35.061  45.635  1.00  0.00     0.274 HD
ENDBRANCH   2  19
TORSDOF 6
ENDMDL