MODEL 5
REMARK VINA RESULT: -5.030375726      6.798      8.777
REMARK  3 active torsions:
REMARK  status: ('A' for Active; 'I' for Inactive)
REMARK    1  A    between atoms: N1_1  and  N2_4
REMARK    2  A    between atoms: N2_4  and  N3_6
REMARK    3  A    between atoms: N3_6  and  C1_8
ROOT
HETATM    1  C1  UNL     1      72.724  32.678  45.747  1.00  0.00     0.145 A
HETATM    2  N4  UNL     1      72.952  31.497  45.158  1.00  0.00    -0.350 N
ATOM      3  H4  UNL     1      72.243  30.767  45.233  1.00  0.00     0.166 HD
HETATM    4  C2  UNL     1      74.084  31.235  44.471  1.00  0.00     0.090 A
HETATM    5  C3  UNL     1      75.041  32.221  44.369  1.00  0.00     0.019 A
HETATM    6  C4  UNL     1      74.838  33.449  44.963  1.00  0.00     0.032 A
HETATM    7  C5  UNL     1      73.671  33.691  45.662  1.00  0.00     0.091 A
HETATM    8  N5  UNL     1      73.500  34.958  46.254  1.00  0.00    -0.098 NA
ENDROOT
BRANCH   1   9
HETATM    9  N3  UNL     1      71.633  32.877  46.388  1.00  0.00    -0.270 N
ATOM     10  H3  UNL     1      70.768  33.090  45.890  1.00  0.00     0.190 HD
BRANCH   9  11
HETATM   11  N2  UNL     1      71.651  32.796  47.780  1.00  0.00    -0.248 N
ATOM     12  H2  UNL     1      72.513  32.509  48.242  1.00  0.00     0.207 HD
BRANCH  11  13
HETATM   13  N1  UNL     1      70.531  33.095  48.572  1.00  0.00    -0.331 N
ATOM     14  H12 UNL     1      70.693  33.327  49.551  1.00  0.00     0.178 HD
ATOM     15  H11 UNL     1      69.579  33.086  48.206  1.00  0.00     0.178 HD
ENDBRANCH  11  13
ENDBRANCH   9  11
ENDBRANCH   1   9
TORSDOF 3
ENDMDL