MODEL 2
REMARK VINA RESULT: -4.137996764      8.079      9.705
REMARK  5 active torsions:
REMARK  status: ('A' for Active; 'I' for Inactive)
REMARK    1  A    between atoms: C2_2  and  N1_3
REMARK    2  A    between atoms: C2_2  and  C3_7
REMARK    3  A    between atoms: C3_7  and  N2_8
REMARK    4  A    between atoms: C3_7  and  C4_12
REMARK    5  A    between atoms: C4_12  and  C6_15
ROOT
HETATM    1  C3  UNL     1      73.740  40.849  44.012  1.00  0.00     0.255 C
ENDROOT
BRANCH   1   2
HETATM    2  C2  UNL     1      73.533  42.043  43.189  1.00  0.00     0.213 C
HETATM    3  C1  UNL     1      72.267  42.240  42.481  1.00  0.00     0.042 C
BRANCH   2   4
HETATM    4  N1  UNL     1      74.612  42.101  42.201  1.00  0.00    -0.073 N
ATOM      5  H13 UNL     1      75.048  41.194  42.037  1.00  0.00     0.274 HD
ATOM      6  H12 UNL     1      74.273  42.261  41.252  1.00  0.00     0.274 HD
ATOM      7  H11 UNL     1      75.278  42.810  42.509  1.00  0.00     0.274 HD
ENDBRANCH   2   4
ENDBRANCH   1   2
BRANCH   1   8
HETATM    8  N2  UNL     1      73.365  39.647  43.252  1.00  0.00    -0.070 N
ATOM      9  H23 UNL     1      72.634  39.111  43.718  1.00  0.00     0.274 HD
ATOM     10  H22 UNL     1      72.859  39.876  42.397  1.00  0.00     0.274 HD
ATOM     11  H21 UNL     1      74.194  39.082  43.067  1.00  0.00     0.274 HD
ENDBRANCH   1   8
BRANCH   1  12
HETATM   12  C4  UNL     1      73.093  40.752  45.339  1.00  0.00     0.166 C
HETATM   13  C5  UNL     1      72.947  39.269  45.663  1.00  0.00     0.058 C
HETATM   14  F1  UNL     1      71.795  41.260  45.358  1.00  0.00    -0.237 F
BRANCH  12  15
HETATM   15  C6  UNL     1      73.920  41.325  46.467  1.00  0.00     0.249 A
HETATM   16  N3  UNL     1      73.338  42.552  47.004  1.00  0.00    -0.114 NA
HETATM   17  N4  UNL     1      74.610  42.498  46.460  1.00  0.00    -0.313 N
ATOM     18  H4  UNL     1      75.468  42.993  46.220  1.00  0.00     0.177 HD
ENDBRANCH  12  15
ENDBRANCH   1  12
TORSDOF 5
ENDMDL