MODEL 1
REMARK VINA RESULT: -4.306132140      0.000      0.000
REMARK  4 active torsions:
REMARK  status: ('A' for Active; 'I' for Inactive)
REMARK    1  A    between atoms: N1_2  and  N2_4
REMARK    2  A    between atoms: N2_4  and  C2_6
REMARK    3  A    between atoms: C2_6  and  N3_7
REMARK    4  A    between atoms: C2_6  and  C3_11
ROOT
HETATM    1  C2  UNL     1      73.872  40.172  43.647  1.00  0.00     0.347 C
ENDROOT
BRANCH   1   2
HETATM    2  N2  UNL     1      73.122  40.715  42.543  1.00  0.00    -0.306 N
ATOM      3  H2  UNL     1      72.571  40.131  41.915  1.00  0.00     0.182 HD
BRANCH   2   4
HETATM    4  N1  UNL     1      73.207  42.076  42.401  1.00  0.00    -0.343 N
HETATM    5  C1  UNL     1      71.951  42.743  42.244  1.00  0.00     0.167 C
ATOM      6  H1  UNL     1      74.096  42.575  42.406  1.00  0.00     0.179 HD
ENDBRANCH   2   4
ENDBRANCH   1   2
BRANCH   1   7
HETATM    7  N3  UNL     1      74.282  38.825  43.258  1.00  0.00    -0.051 N
ATOM      8  H33 UNL     1      73.580  38.114  43.467  1.00  0.00     0.277 HD
ATOM      9  H32 UNL     1      74.306  38.688  42.247  1.00  0.00     0.277 HD
ATOM     10  H31 UNL     1      75.180  38.647  43.709  1.00  0.00     0.277 HD
ENDBRANCH   1   7
BRANCH   1  11
HETATM   11  C3  UNL     1      73.105  40.097  44.917  1.00  0.00     0.077 A
HETATM   12  C4  UNL     1      73.219  39.108  45.879  1.00  0.00     0.118 A
HETATM   13  N4  UNL     1      72.366  39.413  46.866  1.00  0.00    -0.360 N
HETATM   14  C5  UNL     1      71.724  40.536  46.577  1.00  0.00     0.180 A
ATOM     15  H4  UNL     1      72.230  38.863  47.714  1.00  0.00     0.166 HD
HETATM   16  N5  UNL     1      72.189  40.958  45.363  1.00  0.00    -0.351 N
ATOM     17  H5  UNL     1      71.883  41.799  44.875  1.00  0.00     0.166 HD
ENDBRANCH   1  11
TORSDOF 4
ENDMDL