MODEL 3
REMARK VINA RESULT: -4.022610261      2.082      2.623
REMARK  3 active torsions:
REMARK  status: ('A' for Active; 'I' for Inactive)
REMARK    1  A    between atoms: N1_2  and  C2_5
REMARK    2  A    between atoms: C2_5  and  N2_6
REMARK    3  A    between atoms: C2_5  and  C3_10
ROOT
HETATM    1  C2  UNL     1      73.860  40.903  43.369  1.00  0.00     0.435 C
ENDROOT
BRANCH   1   2
HETATM    2  N1  UNL     1      72.884  41.048  42.325  1.00  0.00    -0.046 N
HETATM    3  C1  UNL     1      72.263  42.375  42.455  1.00  0.00     0.269 C
ATOM      4  H12 UNL     1      72.199  40.292  42.319  1.00  0.00     0.279 HD
ATOM      5  H11 UNL     1      73.275  40.887  41.397  1.00  0.00     0.279 HD
ENDBRANCH   1   2
BRANCH   1   6
HETATM    6  N2  UNL     1      73.884  42.031  44.274  1.00  0.00    -0.046 N
ATOM      7  H23 UNL     1      74.669  42.649  44.068  1.00  0.00     0.277 HD
ATOM      8  H22 UNL     1      73.114  42.672  44.080  1.00  0.00     0.277 HD
ATOM      9  H21 UNL     1      73.887  41.751  45.255  1.00  0.00     0.277 HD
ENDBRANCH   1   6
BRANCH   1  10
HETATM   10  C3  UNL     1      73.600  39.676  44.184  1.00  0.00     0.379 C
HETATM   11  N3  UNL     1      73.398  39.997  45.604  1.00  0.00    -0.043 N
HETATM   12  C4  UNL     1      73.232  38.627  46.121  1.00  0.00     0.261 C
ATOM     13  H32 UNL     1      74.121  40.564  46.048  1.00  0.00     0.280 HD
ATOM     14  H31 UNL     1      72.648  40.655  45.818  1.00  0.00     0.280 HD
HETATM   15  C5  UNL     1      74.127  37.845  45.177  1.00  0.00     0.198 C
HETATM   16  O1  UNL     1      74.645  38.796  44.268  1.00  0.00    -0.355 OA
ENDBRANCH   1  10
TORSDOF 3
ENDMDL