MODEL 4
REMARK VINA RESULT: -4.489033289      1.586      2.256
REMARK  1 active torsions:
REMARK  status: ('A' for Active; 'I' for Inactive)
REMARK       I    between atoms: N1_1  and  C1_5
REMARK       I    between atoms: C1_5  and  N2_6
REMARK       I    between atoms: C1_5  and  N3_10
REMARK    1  A    between atoms: N3_10  and  C2_12
ROOT
HETATM    1  N1  UNL     1      72.352  41.818  43.453  1.00  0.00    -0.033 N
ATOM      2  H11 UNL     1      71.483  41.284  43.430  1.00  0.00     0.278 HD
ATOM      3  H12 UNL     1      72.224  42.787  43.162  1.00  0.00     0.278 HD
ATOM      4  H13 UNL     1      72.673  41.999  44.405  1.00  0.00     0.278 HD
HETATM    5  C1  UNL     1      73.347  41.124  42.653  1.00  0.00     0.478 C
HETATM    6  N2  UNL     1      74.563  41.870  42.687  1.00  0.00    -0.033 N
ATOM      7  H21 UNL     1      75.261  41.383  42.125  1.00  0.00     0.278 HD
ATOM      8  H22 UNL     1      74.884  42.051  43.638  1.00  0.00     0.278 HD
ATOM      9  H23 UNL     1      74.434  42.839  42.395  1.00  0.00     0.278 HD
HETATM   10  N3  UNL     1      73.426  39.775  43.067  1.00  0.00    -0.348 N
ATOM     11  H3  UNL     1      73.237  39.018  42.410  1.00  0.00     0.159 HD
ENDROOT
BRANCH  10  12
HETATM   12  C2  UNL     1      73.772  39.494  44.406  1.00  0.00     0.219 C
HETATM   13  C3  UNL     1      74.351  38.175  44.709  1.00  0.00     0.055 C
HETATM   14  C4  UNL     1      73.953  37.945  46.155  1.00  0.00     0.030 C
HETATM   15  C5  UNL     1      72.827  38.902  46.361  1.00  0.00     0.170 C
HETATM   16  O1  UNL     1      72.596  39.509  45.159  1.00  0.00    -0.367 OA
ENDBRANCH  10  12
TORSDOF 1
ENDMDL