MODEL 3
REMARK VINA RESULT: -4.781891848      1.027      1.027
REMARK  4 active torsions:
REMARK  status: ('A' for Active; 'I' for Inactive)
REMARK    1  A    between atoms: O1_2  and  C2_3
REMARK    2  A    between atoms: C2_3  and  N1_4
REMARK    3  A    between atoms: C2_3  and  C3_8
REMARK    4  A    between atoms: C4_13  and  N4_14
ROOT
HETATM    1  C3  UNL     1      73.490  39.983  44.280  1.00  0.00     0.169 A
HETATM    2  N2  UNL     1      73.626  39.459  43.066  1.00  0.00    -0.271 N
ATOM      3  H2  UNL     1      73.900  38.502  42.844  1.00  0.00     0.189 HD
HETATM    4  N3  UNL     1      73.338  40.413  42.204  1.00  0.00    -0.131 N
ATOM      5  H3  UNL     1      73.356  40.303  41.190  1.00  0.00     0.205 HD
HETATM    6  C4  UNL     1      73.018  41.546  42.838  1.00  0.00     0.692 A
HETATM    7  N5  UNL     1      73.117  41.262  44.146  1.00  0.00    -0.174 N
ATOM      8  H5  UNL     1      72.938  41.913  44.911  1.00  0.00     0.185 HD
ENDROOT
BRANCH   1   9
HETATM    9  C2  UNL     1      73.688  39.358  45.616  1.00  0.00     0.388 C
BRANCH   9  10
HETATM   10  O1  UNL     1      74.921  38.782  45.762  1.00  0.00    -0.359 OA
HETATM   11  C1  UNL     1      74.799  37.472  46.152  1.00  0.00     0.204 C
ENDBRANCH   9  10
BRANCH   9  12
HETATM   12  N1  UNL     1      73.464  40.314  46.692  1.00  0.00    -0.046 N
ATOM     13  H13 UNL     1      74.143  41.075  46.677  1.00  0.00     0.277 HD
ATOM     14  H12 UNL     1      72.620  40.867  46.545  1.00  0.00     0.277 HD
ATOM     15  H11 UNL     1      73.454  39.826  47.587  1.00  0.00     0.277 HD
ENDBRANCH   9  12
ENDBRANCH   1   9
BRANCH   6  16
HETATM   16  N4  UNL     1      72.678  42.691  42.312  1.00  0.00    -0.233 N
ATOM     17  H42 UNL     1      71.795  43.184  42.444  1.00  0.00     0.174 HD
ATOM     18  H41 UNL     1      73.229  43.283  41.689  1.00  0.00     0.174 HD
ENDBRANCH   6  16
TORSDOF 4
ENDMDL