MODEL 3
REMARK VINA RESULT: -4.733906709      1.670      2.393
REMARK  3 active torsions:
REMARK  status: ('A' for Active; 'I' for Inactive)
REMARK    1  A    between atoms: C2_2  and  O1_4
REMARK    2  A    between atoms: O1_4  and  C4_5
REMARK    3  A    between atoms: C5_10  and  N3_11
ROOT
HETATM    1  C4  UNL     1      73.280  39.268  44.478  1.00  0.00     0.253 A
HETATM    2  N1  UNL     1      72.619  40.327  44.970  1.00  0.00    -0.250 N
ATOM      3  H1  UNL     1      72.018  40.310  45.794  1.00  0.00     0.191 HD
HETATM    4  N2  UNL     1      72.860  41.400  44.227  1.00  0.00    -0.129 N
ATOM      5  H2  UNL     1      72.483  42.335  44.379  1.00  0.00     0.205 HD
HETATM    6  C5  UNL     1      73.687  41.033  43.242  1.00  0.00     0.693 A
HETATM    7  N4  UNL     1      73.943  39.722  43.400  1.00  0.00    -0.153 N
ATOM      8  H4  UNL     1      74.545  39.161  42.797  1.00  0.00     0.188 HD
ENDROOT
BRANCH   1   9
HETATM    9  O1  UNL     1      73.334  37.959  44.910  1.00  0.00    -0.316 OA
BRANCH   9  10
HETATM   10  C2  UNL     1      73.623  37.649  46.260  1.00  0.00     0.123 C
HETATM   11  C1  UNL     1      74.957  38.150  46.710  1.00  0.00     0.040 C
HETATM   12  C3  UNL     1      73.583  36.128  46.397  1.00  0.00     0.040 C
ENDBRANCH   9  10
ENDBRANCH   1   9
BRANCH   6  13
HETATM   13  N3  UNL     1      74.172  41.773  42.297  1.00  0.00    -0.233 N
ATOM     14  H32 UNL     1      73.790  42.673  42.007  1.00  0.00     0.174 HD
ATOM     15  H31 UNL     1      74.984  41.583  41.710  1.00  0.00     0.174 HD
ENDBRANCH   6  13
TORSDOF 3
ENDMDL