MODEL 2
REMARK VINA RESULT: -4.478980148      1.349      2.475
REMARK  3 active torsions:
REMARK  status: ('A' for Active; 'I' for Inactive)
REMARK    1  A    between atoms: N1_1  and  C1_4
REMARK    2  A    between atoms: C4_11  and  N4_12
REMARK    3  A    between atoms: N4_12  and  N5_14
ROOT
HETATM    1  C1  UNL     1      74.768  32.632  44.632  1.00  0.00     0.142 A
HETATM    2  N2  UNL     1      74.899  33.957  44.919  1.00  0.00    -0.284 N
ATOM      3  H2  UNL     1      75.717  34.491  44.626  1.00  0.00     0.188 HD
HETATM    4  N3  UNL     1      73.916  34.512  45.595  1.00  0.00    -0.310 N
ATOM      5  H3  UNL     1      73.982  35.504  45.828  1.00  0.00     0.186 HD
HETATM    6  C2  UNL     1      72.828  33.828  45.991  1.00  0.00     0.109 A
HETATM    7  C3  UNL     1      72.677  32.490  45.711  1.00  0.00     0.053 A
HETATM    8  C4  UNL     1      73.692  31.876  45.002  1.00  0.00     0.093 A
ENDROOT
BRANCH   8   9
HETATM    9  N4  UNL     1      73.503  30.507  44.733  1.00  0.00    -0.304 N
ATOM     10  H4  UNL     1      74.310  29.887  44.802  1.00  0.00     0.186 HD
BRANCH   9  11
HETATM   11  N5  UNL     1      72.283  29.955  44.378  1.00  0.00    -0.345 N
ATOM     12  H52 UNL     1      72.146  28.964  44.576  1.00  0.00     0.176 HD
ATOM     13  H51 UNL     1      71.530  30.484  43.937  1.00  0.00     0.176 HD
ENDBRANCH   9  11
ENDBRANCH   8   9
BRANCH   1  14
HETATM   14  N1  UNL     1      75.732  32.105  43.973  1.00  0.00    -0.383 N
ATOM     15  H12 UNL     1      75.987  32.468  43.055  1.00  0.00     0.157 HD
ATOM     16  H11 UNL     1      76.206  31.325  44.427  1.00  0.00     0.157 HD
ENDBRANCH   1  14
TORSDOF 3
ENDMDL