MODEL 1
REMARK VINA RESULT: -4.817936069      0.000      0.000
REMARK  1 active torsions:
REMARK  status: ('A' for Active; 'I' for Inactive)
REMARK    1  A    between atoms: C1_4  and  C2_6
ROOT
HETATM    1  C2  UNL     1      73.458  40.980  43.984  1.00  0.00     0.133 A
HETATM    2  N3  UNL     1      73.767  39.705  43.846  1.00  0.00    -0.289 N
ATOM      3  H3  UNL     1      74.022  39.344  42.926  1.00  0.00     0.188 HD
HETATM    4  N4  UNL     1      73.752  38.922  44.845  1.00  0.00    -0.279 N
ATOM      5  H4  UNL     1      73.991  37.936  44.741  1.00  0.00     0.189 HD
HETATM    6  C3  UNL     1      73.413  39.423  46.042  1.00  0.00     0.159 A
HETATM    7  N5  UNL     1      73.335  38.799  47.188  1.00  0.00    -0.379 N
ATOM      8  H51 UNL     1      73.077  39.180  48.098  1.00  0.00     0.158 HD
ATOM      9  H52 UNL     1      73.509  37.820  47.416  1.00  0.00     0.158 HD
HETATM   10  S1  UNL     1      73.121  41.065  45.658  1.00  0.00    -0.031 SA
ENDROOT
BRANCH   1  11
HETATM   11  C1  UNL     1      73.434  41.984  42.935  1.00  0.00     0.145 C
HETATM   12  N1  UNL     1      74.498  42.225  42.253  1.00  0.00    -0.385 N
ATOM     13  H12 UNL     1      74.481  42.930  41.516  1.00  0.00     0.157 HD
ATOM     14  H11 UNL     1      75.373  41.729  42.424  1.00  0.00     0.157 HD
HETATM   15  N2  UNL     1      72.220  42.673  42.698  1.00  0.00    -0.080 NA
ENDBRANCH   1  11
TORSDOF 1
ENDMDL