MODEL 4
REMARK VINA RESULT: -4.488808969      1.215      2.015
REMARK  1 active torsions:
REMARK  status: ('A' for Active; 'I' for Inactive)
REMARK    1  A    between atoms: N1_2  and  C2_4
ROOT
HETATM    1  C2  UNL     1      73.044  33.060  45.500  1.00  0.00     0.150 A
HETATM    2  N2  UNL     1      74.050  33.940  45.382  1.00  0.00    -0.241 N
ATOM      3  H2  UNL     1      74.072  34.861  45.821  1.00  0.00     0.196 HD
HETATM    4  O1  UNL     1      74.994  33.455  44.630  1.00  0.00    -0.216 OA
HETATM    5  C3  UNL     1      74.694  32.264  44.210  1.00  0.00     0.192 A
HETATM    6  N3  UNL     1      75.345  31.450  43.456  1.00  0.00    -0.377 N
ATOM      7  H31 UNL     1      75.110  30.514  43.126  1.00  0.00     0.158 HD
ATOM      8  H32 UNL     1      76.262  31.662  43.061  1.00  0.00     0.158 HD
HETATM    9  C4  UNL     1      73.445  31.974  44.749  1.00  0.00     0.144 A
HETATM   10  N4  UNL     1      72.660  30.802  44.602  1.00  0.00    -0.094 NA
ENDROOT
BRANCH   1  11
HETATM   11  N1  UNL     1      71.865  33.287  46.254  1.00  0.00    -0.378 N
HETATM   12  C1  UNL     1      71.860  33.282  47.682  1.00  0.00     0.148 C
ATOM     13  H1  UNL     1      70.990  33.461  45.759  1.00  0.00     0.160 HD
ENDBRANCH   1  11
TORSDOF 1
ENDMDL