MODEL 3
REMARK VINA RESULT: -4.642741551      9.122      9.605
REMARK  2 active torsions:
REMARK  status: ('A' for Active; 'I' for Inactive)
REMARK    1  A    between atoms: C1_4  and  C2_6
REMARK    2  A    between atoms: C3_12  and  N5_13
ROOT
HETATM    1  C2  UNL     1      73.544  40.918  43.970  1.00  0.00     0.142 A
HETATM    2  N3  UNL     1      73.298  39.624  43.768  1.00  0.00    -0.235 N
ATOM      3  H3  UNL     1      73.054  39.200  42.874  1.00  0.00     0.197 HD
HETATM    4  O1  UNL     1      73.422  38.982  44.912  1.00  0.00    -0.155 OA
HETATM    5  N4  UNL     1      73.742  39.807  45.863  1.00  0.00    -0.224 N
ATOM      6  H4  UNL     1      73.899  39.573  46.844  1.00  0.00     0.198 HD
HETATM    7  C3  UNL     1      73.829  41.053  45.298  1.00  0.00     0.153 A
ENDROOT
BRANCH   1   8
HETATM    8  C1  UNL     1      73.509  41.957  42.960  1.00  0.00     0.142 C
HETATM    9  N1  UNL     1      74.562  42.264  42.260  1.00  0.00    -0.386 N
ATOM     10  H12 UNL     1      74.538  42.995  41.549  1.00  0.00     0.157 HD
ATOM     11  H11 UNL     1      75.415  41.739  42.453  1.00  0.00     0.157 HD
HETATM   12  N2  UNL     1      72.319  42.689  42.692  1.00  0.00    -0.081 NA
ENDBRANCH   1   8
BRANCH   7  13
HETATM   13  N5  UNL     1      74.124  42.120  45.928  1.00  0.00    -0.382 N
ATOM     14  H52 UNL     1      73.447  42.805  46.264  1.00  0.00     0.157 HD
ATOM     15  H51 UNL     1      75.051  42.454  46.192  1.00  0.00     0.157 HD
ENDBRANCH   7  13
TORSDOF 2
ENDMDL