MODEL 1
REMARK VINA RESULT: -4.707418925      0.000      0.000
REMARK  1 active torsions:
REMARK  status: ('A' for Active; 'I' for Inactive)
REMARK    1  A    between atoms: N1_2  and  C2_4
ROOT
HETATM    1  C2  UNL     1      73.501  41.485  45.486  1.00  0.00     0.248 A
HETATM    2  N2  UNL     1      73.483  40.136  45.991  1.00  0.00    -0.337 N
ATOM      3  H2  UNL     1      73.430  39.911  46.984  1.00  0.00     0.164 HD
HETATM    4  C3  UNL     1      73.541  39.250  45.073  1.00  0.00     0.191 A
HETATM    5  N3  UNL     1      73.539  37.840  45.267  1.00  0.00    -0.063 NA
HETATM    6  N4  UNL     1      73.626  39.897  43.793  1.00  0.00    -0.317 N
ATOM      7  H4  UNL     1      73.682  39.437  42.884  1.00  0.00     0.170 HD
HETATM    8  C4  UNL     1      73.618  41.290  44.030  1.00  0.00     0.120 A
HETATM    9  N5  UNL     1      73.708  42.201  43.093  1.00  0.00    -0.386 N
ATOM     10  H51 UNL     1      73.789  42.066  42.085  1.00  0.00     0.157 HD
ATOM     11  H52 UNL     1      73.702  43.207  43.264  1.00  0.00     0.157 HD
ENDROOT
BRANCH   1  12
HETATM   12  N1  UNL     1      74.576  42.223  46.068  1.00  0.00    -0.400 N
HETATM   13  C1  UNL     1      74.912  41.845  47.410  1.00  0.00     0.142 C
ATOM     14  H1  UNL     1      75.067  42.963  45.567  1.00  0.00     0.155 HD
ENDBRANCH   1  12
TORSDOF 1
ENDMDL