MODEL 3
REMARK VINA RESULT: -4.461207740      1.465      2.376
REMARK  2 active torsions:
REMARK  status: ('A' for Active; 'I' for Inactive)
REMARK    1  A    between atoms: C4_9  and  N3_10
REMARK    2  A    between atoms: N3_10  and  N4_12
ROOT
HETATM    1  N1  UNL     1      74.658  42.682  46.993  1.00  0.00    -0.234 N
ATOM      2  H11 UNL     1      74.682  43.671  46.744  1.00  0.00     0.174 HD
ATOM      3  H12 UNL     1      74.934  42.476  47.953  1.00  0.00     0.174 HD
HETATM    4  C1  UNL     1      74.293  41.874  46.127  1.00  0.00     0.677 A
HETATM    5  N2  UNL     1      74.260  40.522  46.468  1.00  0.00    -0.202 N
ATOM      6  H2  UNL     1      74.520  40.234  47.411  1.00  0.00     0.183 HD
HETATM    7  C2  UNL     1      73.895  39.610  45.585  1.00  0.00     0.110 A
HETATM    8  C3  UNL     1      73.531  39.952  44.290  1.00  0.00     0.068 A
HETATM    9  C4  UNL     1      73.556  41.289  43.935  1.00  0.00     0.136 A
HETATM   10  N5  UNL     1      73.930  42.144  44.867  1.00  0.00    -0.176 N
ATOM     11  H5  UNL     1      73.944  43.127  44.596  1.00  0.00     0.186 HD
ENDROOT
BRANCH   9  12
HETATM   12  N3  UNL     1      73.201  41.621  42.606  1.00  0.00    -0.292 N
ATOM     13  H3  UNL     1      73.710  41.246  41.806  1.00  0.00     0.188 HD
BRANCH  12  14
HETATM   14  N4  UNL     1      72.092  42.507  42.440  1.00  0.00    -0.344 N
ATOM     15  H42 UNL     1      71.660  42.637  41.525  1.00  0.00     0.176 HD
ATOM     16  H41 UNL     1      71.766  42.994  43.275  1.00  0.00     0.176 HD
ENDBRANCH  12  14
ENDBRANCH   9  12
TORSDOF 2
ENDMDL