MODEL 3
REMARK VINA RESULT: -4.381710918      1.766      3.629
REMARK  3 active torsions:
REMARK  status: ('A' for Active; 'I' for Inactive)
REMARK    1  A    between atoms: N1_1  and  C1_4
REMARK    2  A    between atoms: C2_7  and  N3_8
REMARK    3  A    between atoms: N3_8  and  N4_10
ROOT
HETATM    1  C1  UNL     1      73.544  41.235  43.703  1.00  0.00     0.677 A
HETATM    2  N2  UNL     1      73.948  42.103  44.653  1.00  0.00    -0.176 N
ATOM      3  H2  UNL     1      74.029  43.093  44.421  1.00  0.00     0.186 HD
HETATM    4  C2  UNL     1      74.243  41.700  45.884  1.00  0.00     0.136 A
HETATM    5  C3  UNL     1      74.149  40.360  46.248  1.00  0.00     0.068 A
HETATM    6  C4  UNL     1      73.736  39.461  45.272  1.00  0.00     0.110 A
HETATM    7  N5  UNL     1      73.454  39.942  44.056  1.00  0.00    -0.202 N
ATOM      8  H5  UNL     1      73.149  39.278  43.344  1.00  0.00     0.183 HD
ENDROOT
BRANCH   4   9
HETATM    9  N3  UNL     1      74.652  42.575  46.932  1.00  0.00    -0.292 N
ATOM     10  H3  UNL     1      73.936  43.107  47.428  1.00  0.00     0.188 HD
BRANCH   9  11
HETATM   11  N4  UNL     1      75.987  42.738  47.313  1.00  0.00    -0.344 N
ATOM     12  H42 UNL     1      76.168  43.108  48.245  1.00  0.00     0.176 HD
ATOM     13  H41 UNL     1      76.772  42.504  46.704  1.00  0.00     0.176 HD
ENDBRANCH   9  11
ENDBRANCH   4   9
BRANCH   1  14
HETATM   14  N1  UNL     1      73.279  41.663  42.489  1.00  0.00    -0.234 N
ATOM     15  H12 UNL     1      73.504  41.126  41.650  1.00  0.00     0.174 HD
ATOM     16  H11 UNL     1      72.844  42.576  42.352  1.00  0.00     0.174 HD
ENDBRANCH   1  14
TORSDOF 3
ENDMDL