MODEL 2
REMARK VINA RESULT: -4.426571880      1.836      2.169
REMARK  3 active torsions:
REMARK  status: ('A' for Active; 'I' for Inactive)
REMARK    1  A    between atoms: C2_2  and  N1_3
REMARK    2  A    between atoms: C2_2  and  C3_7
REMARK    3  A    between atoms: C4_10  and  N3_11
ROOT
HETATM    1  C3  UNL     1      73.716  40.026  45.122  1.00  0.00     0.192 A
HETATM    2  N2  UNL     1      73.458  40.217  43.805  1.00  0.00    -0.169 N
ATOM      3  H2  UNL     1      73.144  39.504  43.147  1.00  0.00     0.186 HD
HETATM    4  C4  UNL     1      73.686  41.507  43.518  1.00  0.00     0.698 A
HETATM    5  N4  UNL     1      74.081  42.091  44.659  1.00  0.00    -0.090 N
ATOM      6  H4  UNL     1      74.329  43.074  44.768  1.00  0.00     0.213 HD
HETATM    7  O1  UNL     1      74.095  41.186  45.617  1.00  0.00    -0.207 OA
ENDROOT
BRANCH   1   8
HETATM    8  C2  UNL     1      73.617  38.780  45.925  1.00  0.00     0.256 C
HETATM    9  C1  UNL     1      72.871  39.028  47.227  1.00  0.00     0.049 C
BRANCH   8  10
HETATM   10  N1  UNL     1      74.888  38.215  46.248  1.00  0.00    -0.068 N
ATOM     11  H13 UNL     1      74.928  37.853  47.201  1.00  0.00     0.275 HD
ATOM     12  H12 UNL     1      75.064  37.336  45.762  1.00  0.00     0.275 HD
ATOM     13  H11 UNL     1      75.600  38.920  46.062  1.00  0.00     0.275 HD
ENDBRANCH   8  10
ENDBRANCH   1   8
BRANCH   4  14
HETATM   14  N3  UNL     1      73.568  42.122  42.394  1.00  0.00    -0.233 N
ATOM     15  H32 UNL     1      73.015  42.967  42.256  1.00  0.00     0.174 HD
ATOM     16  H31 UNL     1      73.980  41.892  41.489  1.00  0.00     0.174 HD
ENDBRANCH   4  14
TORSDOF 3
ENDMDL