MODEL 3
REMARK VINA RESULT: -4.913282703      1.684      2.049
REMARK  2 active torsions:
REMARK  status: ('A' for Active; 'I' for Inactive)
REMARK    1  A    between atoms: C2_2  and  C3_4
REMARK    2  A    between atoms: C4_7  and  N3_8
ROOT
HETATM    1  C3  UNL     1      73.750  39.970  45.093  1.00  0.00     0.208 A
HETATM    2  N2  UNL     1      73.478  40.221  43.786  1.00  0.00    -0.165 N
ATOM      3  H2  UNL     1      73.168  39.520  43.113  1.00  0.00     0.186 HD
HETATM    4  C4  UNL     1      73.673  41.519  43.504  1.00  0.00     0.698 A
HETATM    5  N4  UNL     1      74.072  42.063  44.666  1.00  0.00    -0.089 N
ATOM      6  H4  UNL     1      74.308  43.046  44.809  1.00  0.00     0.213 HD
HETATM    7  O1  UNL     1      74.110  41.139  45.580  1.00  0.00    -0.203 OA
ENDROOT
BRANCH   1   8
HETATM    8  C2  UNL     1      73.665  38.692  45.800  1.00  0.00     0.090 C
HETATM    9  C1  UNL     1      74.401  37.704  45.375  1.00  0.00     0.044 C
HETATM   10  N1  UNL     1      72.781  38.612  46.906  1.00  0.00    -0.099 NA
ENDBRANCH   1   8
BRANCH   4  11
HETATM   11  N3  UNL     1      73.527  42.152  42.391  1.00  0.00    -0.233 N
ATOM     12  H32 UNL     1      74.088  42.946  42.083  1.00  0.00     0.174 HD
ATOM     13  H31 UNL     1      72.860  41.999  41.634  1.00  0.00     0.174 HD
ENDBRANCH   4  11
TORSDOF 2
ENDMDL