MODEL 4
REMARK VINA RESULT: -4.724609867      3.874      5.501
REMARK  2 active torsions:
REMARK  status: ('A' for Active; 'I' for Inactive)
REMARK    1  A    between atoms: N3_4  and  N4_6
REMARK    2  A    between atoms: N5_8  and  C2_10
ROOT
HETATM    1  N4  UNL     1      71.994  41.002  45.550  1.00  0.00    -0.238 N
ATOM      2  H4  UNL     1      71.045  41.088  45.184  1.00  0.00     0.208 HD
HETATM    3  N5  UNL     1      72.280  41.349  46.737  1.00  0.00    -0.257 N
ATOM      4  H5  UNL     1      73.234  41.256  47.085  1.00  0.00     0.191 HD
ENDROOT
BRANCH   3   5
HETATM    5  C2  UNL     1      71.255  41.869  47.577  1.00  0.00     0.191 C
HETATM    6  N6  UNL     1      70.071  41.365  47.707  1.00  0.00    -0.360 N
HETATM    7  C3  UNL     1      69.286  42.143  48.639  1.00  0.00     0.142 C
ATOM      8  H6  UNL     1      69.737  40.533  47.219  1.00  0.00     0.162 HD
HETATM    9  C4  UNL     1      70.040  43.453  48.661  1.00  0.00     0.142 C
HETATM   10  N7  UNL     1      71.391  43.021  48.389  1.00  0.00    -0.360 N
ATOM     11  H7  UNL     1      72.257  43.453  48.712  1.00  0.00     0.162 HD
ENDBRANCH   3   5
BRANCH   1  12
HETATM   12  N3  UNL     1      73.037  40.498  44.768  1.00  0.00    -0.261 N
HETATM   13  C1  UNL     1      73.538  39.328  44.948  1.00  0.00     0.216 C
HETATM   14  N1  UNL     1      73.021  38.501  45.983  1.00  0.00    -0.065 NA
HETATM   15  N2  UNL     1      74.599  38.922  44.088  1.00  0.00    -0.065 NA
ATOM     16  H3  UNL     1      73.416  41.082  44.023  1.00  0.00     0.190 HD
ENDBRANCH   1  12
TORSDOF 2
ENDMDL