MODEL 5
REMARK VINA RESULT: -6.587765015      2.618      6.586
REMARK  9 active torsions:
REMARK  status: ('A' for Active; 'I' for Inactive)
REMARK    1  A    between atoms: C2_2  and  C3_3
REMARK    2  A    between atoms: C3_3  and  C4_4
REMARK    3  A    between atoms: C4_4  and  C5_5
REMARK    4  A    between atoms: N4_13  and  C8_14
REMARK    5  A    between atoms: C8_14  and  C9_15
REMARK       I    between atoms: C9_15  and  N5_17
REMARK    6  A    between atoms: N5_17  and  C10_19
REMARK    7  A    between atoms: C10_19  and  C11_20
REMARK    8  A    between atoms: C11_20  and  N6_21
REMARK    9  A    between atoms: C14_26  and  N7_27
ROOT
HETATM    1  C5  UNL     1       1.729   6.506  24.701  1.00  0.00     0.056 A
HETATM    2  N1  UNL     1       0.434   6.142  24.882  1.00  0.00    -0.352 N
ATOM      3  H1  UNL     1      -0.160   6.442  25.656  1.00  0.00     0.166 HD
HETATM    4  C6  UNL     1       0.060   5.335  23.895  1.00  0.00     0.185 A
HETATM    5  N2  UNL     1       1.070   5.144  23.052  1.00  0.00    -0.325 N
HETATM    6  C7  UNL     1       2.118   5.865  23.535  1.00  0.00     0.152 A
HETATM    7  N3  UNL     1       3.451   5.976  22.945  1.00  0.00    -0.199 N
ATOM      8  H3  UNL     1       4.102   6.521  23.512  1.00  0.00     0.195 HD
HETATM    9  N4  UNL     1       4.004   5.498  21.788  1.00  0.00     0.026 N
HETATM   10  C13 UNL     1       4.801   4.313  21.734  1.00  0.00     0.299 C
HETATM   11  C14 UNL     1       4.382   3.242  20.766  1.00  0.00     0.220 C
HETATM   12  C21 UNL     1       2.882   2.862  20.744  1.00  0.00     0.063 C
HETATM   13  C22 UNL     1       2.297   3.862  21.633  1.00  0.00     0.094 C
HETATM   14  C23 UNL     1       2.664   3.336  22.949  1.00  0.00     0.072 C
HETATM   15  N8  UNL     1       2.929   2.896  24.007  1.00  0.00    -0.196 NA
HETATM   16  C24 UNL     1       0.906   4.252  21.867  1.00  0.00     0.158 C
HETATM   17  C25 UNL     1       2.848   5.086  21.070  1.00  0.00     0.291 C
ENDROOT
BRANCH  11  18
HETATM   18  N7  UNL     1       5.254   2.111  20.787  1.00  0.00    -0.065 N
HETATM   19  C15 UNL     1       4.889   1.067  21.724  1.00  0.00     0.273 C
HETATM   20  C16 UNL     1       6.618   2.474  21.236  1.00  0.00     0.237 C
HETATM   21  C17 UNL     1       7.440   3.039  20.122  1.00  0.00     0.028 C
HETATM   22  C18 UNL     1       7.931   1.837  19.303  1.00  0.00     0.003 C
HETATM   23  C19 UNL     1       6.806   0.824  19.357  1.00  0.00     0.028 C
HETATM   24  C20 UNL     1       5.469   1.535  19.463  1.00  0.00     0.237 C
ENDBRANCH  11  18
BRANCH   9  25
HETATM   25  C8  UNL     1       4.636   6.576  21.064  1.00  0.00     0.367 C
BRANCH  25  26
HETATM   26  C9  UNL     1       6.022   6.903  21.381  1.00  0.00     0.246 C
HETATM   27  O1  UNL     1       6.439   6.959  22.550  1.00  0.00    -0.272 OA
HETATM   28  N5  UNL     1       6.975   7.179  20.346  1.00  0.00    -0.358 N
ATOM     29  H5  UNL     1       6.679   7.150  19.370  1.00  0.00     0.162 HD
BRANCH  28  30
HETATM   30  C10 UNL     1       8.330   7.494  20.661  1.00  0.00     0.150 C
BRANCH  30  31
HETATM   31  C11 UNL     1       8.667   8.959  20.668  1.00  0.00     0.251 C
BRANCH  31  32
HETATM   32  N6  UNL     1       9.759   9.116  21.638  1.00  0.00    -0.077 N
HETATM   33  C12 UNL     1       9.276   8.781  22.958  1.00  0.00     0.267 C
ATOM     34  H62 UNL     1      10.586   8.576  21.380  1.00  0.00     0.276 HD
ATOM     35  H61 UNL     1      10.177  10.046  21.603  1.00  0.00     0.276 HD
ENDBRANCH  31  32
ENDBRANCH  30  31
ENDBRANCH  28  30
ENDBRANCH  25  26
ENDBRANCH   9  25
BRANCH   1  36
HETATM   36  C4  UNL     1       2.522   7.379  25.576  1.00  0.00     0.061 C
BRANCH  36  37
HETATM   37  C3  UNL     1       2.278   8.830  25.288  1.00  0.00     0.006 C
BRANCH  37  38
HETATM   38  C2  UNL     1       3.549   9.654  25.470  1.00  0.00    -0.004 C
HETATM   39  C1  UNL     1       4.711   8.937  24.814  1.00  0.00     0.005 C
ENDBRANCH  37  38
ENDBRANCH  36  37
ENDBRANCH   1  36
TORSDOF 9
ENDMDL