MODEL 1
REMARK VINA RESULT: -8.707660907      0.000      0.000
REMARK  9 active torsions:
REMARK  status: ('A' for Active; 'I' for Inactive)
REMARK    1  A    between atoms: C1_2  and  C2_4
REMARK    2  A    between atoms: C2_4  and  C3_5
REMARK    3  A    between atoms: C3_5  and  C4_6
REMARK    4  A    between atoms: C4_6  and  C5_7
REMARK    5  A    between atoms: C5_7  and  C6_8
REMARK       I    between atoms: C6_8  and  N2_10
REMARK    6  A    between atoms: C7_11  and  C8_12
REMARK       I    between atoms: C8_12  and  N3_14
REMARK    7  A    between atoms: C10_19  and  C11_20
REMARK       I    between atoms: C11_20  and  N6_22
REMARK    8  A    between atoms: N6_22  and  C12_23
REMARK    9  A    between atoms: C12_23  and  C13_24
ROOT
HETATM    1  C6  UNL     1       5.052   8.222  23.790  1.00  0.00     0.221 C
HETATM    2  O2  UNL     1       4.193   9.134  24.068  1.00  0.00    -0.273 OA
HETATM    3  N2  UNL     1       4.770   7.394  22.699  1.00  0.00    -0.332 N
HETATM    4  C7  UNL     1       5.739   6.424  22.206  1.00  0.00     0.194 C
HETATM    5  C10 UNL     1       5.148   5.375  21.369  1.00  0.00     0.130 C
HETATM    6  C19 UNL     1       3.675   5.673  21.007  1.00  0.00     0.015 C
HETATM    7  C20 UNL     1       3.570   7.162  20.624  1.00  0.00     0.032 C
HETATM    8  C21 UNL     1       3.429   7.412  22.087  1.00  0.00     0.097 C
HETATM    9  C22 UNL     1       2.931   5.995  22.209  1.00  0.00    -0.015 A
HETATM   10  C23 UNL     1       1.586   5.579  22.554  1.00  0.00     0.013 A
HETATM   11  C24 UNL     1       2.814   5.248  23.434  1.00  0.00     0.013 A
ENDROOT
BRANCH   5  12
HETATM   12  C11 UNL     1       5.802   5.030  20.065  1.00  0.00     0.298 C
HETATM   13  O4  UNL     1       5.476   5.756  19.094  1.00  0.00    -0.257 OA
HETATM   14  N6  UNL     1       6.685   3.977  19.982  1.00  0.00    -0.387 NA
BRANCH  14  15
HETATM   15  C12 UNL     1       7.555   2.938  19.900  1.00  0.00     0.163 C
BRANCH  15  16
HETATM   16  C13 UNL     1       6.967   1.551  19.586  1.00  0.00     0.038 C
HETATM   17  C14 UNL     1       6.317   1.695  18.219  1.00  0.00     0.011 C
HETATM   18  C15 UNL     1       6.160   0.303  17.628  1.00  0.00     0.001 C
HETATM   19  C16 UNL     1       7.517  -0.171  17.197  1.00  0.00     0.000 C
HETATM   20  C17 UNL     1       8.610   0.426  18.079  1.00  0.00     0.001 C
HETATM   21  C18 UNL     1       8.081   0.554  19.513  1.00  0.00     0.011 C
ENDBRANCH  15  16
ENDBRANCH  14  15
ENDBRANCH   5  12
BRANCH   4  22
HETATM   22  C8  UNL     1       6.943   7.039  21.618  1.00  0.00     0.247 C
HETATM   23  O3  UNL     1       8.053   6.518  21.997  1.00  0.00    -0.271 OA
HETATM   24  N3  UNL     1       6.901   8.118  20.709  1.00  0.00    -0.302 N
HETATM   25  C9  UNL     1       7.916   8.556  20.086  1.00  0.00     0.203 C
ATOM     26  H3  UNL     1       6.003   8.573  20.544  1.00  0.00     0.171 HD
HETATM   27  N4  UNL     1       7.787   9.666  19.173  1.00  0.00    -0.066 NA
HETATM   28  N5  UNL     1       9.244   8.035  20.170  1.00  0.00    -0.066 NA
ENDBRANCH   4  22
BRANCH   1  29
HETATM   29  C5  UNL     1       6.225   8.140  24.650  1.00  0.00     0.103 C
BRANCH  29  30
HETATM   30  C4  UNL     1       7.330   9.096  24.359  1.00  0.00     0.010 C
BRANCH  30  31
HETATM   31  C3  UNL     1       8.714   8.691  24.682  1.00  0.00     0.009 C
BRANCH  31  32
HETATM   32  C2  UNL     1       8.887   7.631  25.711  1.00  0.00     0.099 C
BRANCH  32  33
HETATM   33  C1  UNL     1      10.180   7.679  26.403  1.00  0.00     0.231 C
HETATM   34  N1  UNL     1      11.065   8.770  26.060  1.00  0.00    -0.062 NA
HETATM   35  O1  UNL     1      10.618   6.892  27.260  1.00  0.00    -0.277 OA
ENDBRANCH  32  33
ENDBRANCH  31  32
ENDBRANCH  30  31
ENDBRANCH  29  30
ENDBRANCH   1  29
TORSDOF 9
ENDMDL