MODEL 3
REMARK VINA RESULT: -8.848435571      0.720      1.009
REMARK  10 active torsions:
REMARK  status: ('A' for Active; 'I' for Inactive)
REMARK    1  A    between atoms: C2_2  and  C3_3
REMARK    2  A    between atoms: C3_3  and  C4_4
REMARK    3  A    between atoms: C4_4  and  C5_5
REMARK    4  A    between atoms: C5_5  and  C6_6
REMARK    5  A    between atoms: C6_6  and  C7_7
REMARK    6  A    between atoms: C7_7  and  C8_8
REMARK    7  A    between atoms: C8_8  and  N1_9
REMARK       I    between atoms: C9_11  and  N2_12
REMARK       I    between atoms: C9_11  and  N7_31
REMARK       I    between atoms: N3_15  and  C12_16
REMARK    8  A    between atoms: C12_16  and  C13_18
REMARK    9  A    between atoms: C13_18  and  C14_19
REMARK   10  A    between atoms: C16_23  and  N5_24
ROOT
HETATM    1  N1  UNL     1       5.863   3.263  21.755  1.00  0.00    -0.226 N
ATOM      2  H1  UNL     1       6.606   3.773  22.232  1.00  0.00     0.177 HD
HETATM    3  C9  UNL     1       5.028   4.072  21.392  1.00  0.00     0.682 C
HETATM    4  N2  UNL     1       5.368   5.476  21.754  1.00  0.00    -0.214 N
HETATM    5  C10 UNL     1       4.731   6.093  22.879  1.00  0.00     0.161 C
HETATM    6  C11 UNL     1       5.003   7.604  22.888  1.00  0.00     0.146 C
HETATM    7  N3  UNL     1       6.443   7.763  22.820  1.00  0.00    -0.349 N
HETATM    8  C12 UNL     1       7.163   8.530  23.779  1.00  0.00     0.225 C
HETATM    9  O1  UNL     1       6.598   9.109  24.742  1.00  0.00    -0.273 OA
HETATM   10  C17 UNL     1       7.162   7.133  21.744  1.00  0.00     0.146 C
HETATM   11  C18 UNL     1       6.341   6.162  20.947  1.00  0.00     0.161 C
HETATM   12  N7  UNL     1       3.813   3.888  20.711  1.00  0.00    -0.124 N
HETATM   13  C19 UNL     1       2.947   5.015  20.306  1.00  0.00     0.387 C
HETATM   14  N8  UNL     1       2.322   4.572  19.081  1.00  0.00    -0.050 N
HETATM   15  C20 UNL     1       3.106   4.956  17.918  1.00  0.00     0.274 C
HETATM   16  C21 UNL     1       1.000   5.125  18.913  1.00  0.00     0.274 C
HETATM   17  C22 UNL     1       2.237   3.150  19.105  1.00  0.00     0.341 C
HETATM   18  C23 UNL     1       3.135   2.766  20.248  1.00  0.00     0.266 C
HETATM   19  O2  UNL     1       3.198   1.604  20.648  1.00  0.00    -0.271 OA
ENDROOT
BRANCH   1  20
HETATM   20  C8  UNL     1       6.189   1.940  21.770  1.00  0.00     0.138 C
BRANCH  20  21
HETATM   21  C7  UNL     1       6.628   1.375  20.408  1.00  0.00     0.020 C
BRANCH  21  22
HETATM   22  C6  UNL     1       7.611   2.351  19.816  1.00  0.00     0.002 C
BRANCH  22  23
HETATM   23  C5  UNL     1       8.741   1.628  19.159  1.00  0.00     0.000 C
BRANCH  23  24
HETATM   24  C4  UNL     1       8.409   0.198  18.905  1.00  0.00     0.000 C
BRANCH  24  25
HETATM   25  C3  UNL     1       8.415  -0.078  17.427  1.00  0.00    -0.000 C
BRANCH  25  26
HETATM   26  C2  UNL     1       6.997  -0.241  16.898  1.00  0.00    -0.005 C
HETATM   27  C1  UNL     1       6.635   0.994  16.124  1.00  0.00     0.005 C
ENDBRANCH  25  26
ENDBRANCH  24  25
ENDBRANCH  23  24
ENDBRANCH  22  23
ENDBRANCH  21  22
ENDBRANCH  20  21
ENDBRANCH   1  20
BRANCH   8  28
HETATM   28  C13 UNL     1       8.625   8.652  23.644  1.00  0.00     0.162 C
BRANCH  28  29
HETATM   29  C14 UNL     1       9.291   8.255  24.886  1.00  0.00     0.051 A
HETATM   30  C15 UNL     1      10.532   8.654  25.351  1.00  0.00     0.132 A
HETATM   31  N4  UNL     1      10.751   8.056  26.520  1.00  0.00    -0.200 N
HETATM   32  C16 UNL     1       9.670   7.301  26.780  1.00  0.00     0.675 A
ATOM     33  H4  UNL     1      11.581   8.152  27.106  1.00  0.00     0.183 HD
HETATM   34  N6  UNL     1       8.773   7.412  25.794  1.00  0.00    -0.194 N
ATOM     35  H6  UNL     1       7.867   6.947  25.742  1.00  0.00     0.184 HD
BRANCH  32  36
HETATM   36  N5  UNL     1       9.491   6.563  27.825  1.00  0.00    -0.234 N
ATOM     37  H52 UNL     1       8.671   6.630  28.427  1.00  0.00     0.174 HD
ATOM     38  H51 UNL     1      10.128   5.844  28.168  1.00  0.00     0.174 HD
ENDBRANCH  32  36
ENDBRANCH  28  29
ENDBRANCH   8  28
TORSDOF 10
ENDMDL