MODEL 4
REMARK VINA RESULT: -7.807855682      2.193      3.148
REMARK  9 active torsions:
REMARK  status: ('A' for Active; 'I' for Inactive)
REMARK    1  A    between atoms: C2_2  and  N1_3
REMARK    2  A    between atoms: N1_3  and  C5_6
REMARK    3  A    between atoms: C5_6  and  C6_7
REMARK    4  A    between atoms: C6_7  and  C7_8
REMARK    5  A    between atoms: C7_8  and  N2_9
REMARK    6  A    between atoms: C10_12  and  C11_13
REMARK    7  A    between atoms: C11_13  and  C12_14
REMARK    8  A    between atoms: C13_17  and  C14_18
REMARK    9  A    between atoms: C14_18  and  C15_19
ROOT
HETATM    1  C12 UNL     1       4.654   5.411  22.470  1.00  0.00     0.082 A
HETATM    2  N3  UNL     1       5.688   6.217  22.346  1.00  0.00    -0.366 N
ATOM      3  H3  UNL     1       6.596   5.922  21.989  1.00  0.00     0.161 HD
HETATM    4  C13 UNL     1       5.398   7.551  22.767  1.00  0.00     0.180 A
HETATM    5  C21 UNL     1       3.970   7.501  23.120  1.00  0.00     0.247 A
HETATM    6  O1  UNL     1       3.237   8.452  23.499  1.00  0.00    -0.271 OA
HETATM    7  N8  UNL     1       3.549   6.142  22.951  1.00  0.00    -0.310 N
HETATM    8  C22 UNL     1       2.196   5.641  23.273  1.00  0.00     0.160 C
ENDROOT
BRANCH   1   9
HETATM    9  C11 UNL     1       4.784   4.006  22.085  1.00  0.00     0.081 C
BRANCH   9  10
HETATM   10  C10 UNL     1       5.823   3.622  21.114  1.00  0.00    -0.004 C
HETATM   11  C9  UNL     1       6.108   2.118  21.387  1.00  0.00     0.035 C
HETATM   12  C8  UNL     1       5.279   1.316  20.428  1.00  0.00     0.272 C
HETATM   13  N2  UNL     1       5.791   1.418  19.079  1.00  0.00     0.088 N
HETATM   14  C24 UNL     1       6.240   2.774  18.815  1.00  0.00     0.272 C
HETATM   15  C23 UNL     1       5.437   3.766  19.667  1.00  0.00     0.035 C
BRANCH  13  16
HETATM   16  C7  UNL     1       6.918   0.536  18.821  1.00  0.00     0.274 C
BRANCH  16  17
HETATM   17  C6  UNL     1       7.124   0.247  17.386  1.00  0.00     0.058 C
BRANCH  17  18
HETATM   18  C5  UNL     1       5.962  -0.221  16.597  1.00  0.00     0.238 C
BRANCH  18  19
HETATM   19  N1  UNL     1       5.517   0.538  15.488  1.00  0.00    -0.075 N
HETATM   20  C3  UNL     1       5.342  -0.139  14.243  1.00  0.00     0.272 C
HETATM   21  C4  UNL     1       4.232   1.207  15.812  1.00  0.00     0.272 C
BRANCH  19  22
HETATM   22  C2  UNL     1       6.461   1.646  15.260  1.00  0.00     0.232 C
HETATM   23  C1  UNL     1       6.210   2.385  13.989  1.00  0.00     0.034 C
ENDBRANCH  19  22
ENDBRANCH  18  19
ENDBRANCH  17  18
ENDBRANCH  16  17
ENDBRANCH  13  16
ENDBRANCH   9  10
ENDBRANCH   1   9
BRANCH   4  24
HETATM   24  C14 UNL     1       6.148   7.765  24.077  1.00  0.00     0.077 C
BRANCH  24  25
HETATM   25  C15 UNL     1       7.396   8.521  23.879  1.00  0.00    -0.009 A
HETATM   26  C16 UNL     1       7.602   9.519  22.951  1.00  0.00     0.099 A
HETATM   27  N4  UNL     1       8.867   9.990  23.064  1.00  0.00    -0.349 N
HETATM   28  C17 UNL     1       9.489   9.307  24.060  1.00  0.00     0.149 A
ATOM     29  H4  UNL     1       9.282  10.731  22.499  1.00  0.00     0.166 HD
HETATM   30  N5  UNL     1      10.625   9.151  24.752  1.00  0.00    -0.174 N
HETATM   31  C20 UNL     1       8.577   8.398  24.562  1.00  0.00     0.101 A
HETATM   32  C18 UNL     1      10.445   8.178  25.664  1.00  0.00     0.679 A
ATOM     33  H5  UNL     1      11.484   9.683  24.611  1.00  0.00     0.186 HD
HETATM   34  N6  UNL     1      11.305   7.743  26.514  1.00  0.00    -0.230 N
HETATM   35  N7  UNL     1       9.192   7.718  25.547  1.00  0.00    -0.188 N
HETATM   36  C19 UNL     1      10.927   6.678  27.426  1.00  0.00     0.165 C
ATOM     37  H6  UNL     1      12.243   8.141  26.548  1.00  0.00     0.177 HD
ATOM     38  H7  UNL     1       8.775   6.977  26.109  1.00  0.00     0.184 HD
ENDBRANCH  24  25
ENDBRANCH   4  24
TORSDOF 9
ENDMDL