MODEL 1
REMARK VINA RESULT: -6.636801519      0.000      0.000
REMARK  9 active torsions:
REMARK  status: ('A' for Active; 'I' for Inactive)
REMARK       I    between atoms: C2_2  and  N1_4
REMARK    1  A    between atoms: C3_5  and  C4_6
REMARK       I    between atoms: C4_6  and  N2_8
REMARK    2  A    between atoms: N2_8  and  C5_10
REMARK    3  A    between atoms: C5_10  and  C6_11
REMARK    4  A    between atoms: C6_11  and  C7_12
REMARK    5  A    between atoms: C7_12  and  C8_13
REMARK    6  A    between atoms: C8_13  and  N3_14
REMARK       I    between atoms: N3_14  and  C9_16
REMARK    7  A    between atoms: C14_23  and  N5_24
REMARK    8  A    between atoms: N5_24  and  C15_25
REMARK    9  A    between atoms: C15_25  and  C16_26
ROOT
HETATM    1  C1  UNL     1       2.864   7.646  24.037  1.00  0.00     0.117 C
HETATM    2  C2  UNL     1       3.268   6.345  23.463  1.00  0.00     0.217 C
HETATM    3  O1  UNL     1       2.638   5.352  23.923  1.00  0.00    -0.274 OA
HETATM    4  N1  UNL     1       4.292   6.268  22.468  1.00  0.00    -0.332 N
HETATM    5  C3  UNL     1       4.981   7.480  22.073  1.00  0.00     0.180 C
HETATM    6  C10 UNL     1       5.858   7.124  20.945  1.00  0.00     0.042 C
HETATM    7  C11 UNL     1       5.425   5.762  20.524  1.00  0.00     0.013 C
HETATM    8  C12 UNL     1       4.306   5.841  19.514  1.00  0.00     0.009 C
HETATM    9  C13 UNL     1       3.218   4.935  20.038  1.00  0.00     0.036 C
HETATM   10  C14 UNL     1       3.728   4.216  21.237  1.00  0.00     0.214 C
HETATM   11  C23 UNL     1       4.799   5.124  21.730  1.00  0.00     0.123 C
ENDROOT
BRANCH   5  12
HETATM   12  C4  UNL     1       5.775   8.024  23.233  1.00  0.00     0.240 C
HETATM   13  O2  UNL     1       5.709   9.203  23.619  1.00  0.00    -0.271 OA
HETATM   14  N2  UNL     1       6.634   7.129  23.902  1.00  0.00    -0.359 N
ATOM     15  H2  UNL     1       6.700   6.159  23.594  1.00  0.00     0.162 HD
BRANCH  14  16
HETATM   16  C5  UNL     1       7.418   7.584  25.015  1.00  0.00     0.122 C
BRANCH  16  17
HETATM   17  C6  UNL     1       8.860   7.703  24.601  1.00  0.00     0.021 C
BRANCH  17  18
HETATM   18  C7  UNL     1       9.215   9.081  24.112  1.00  0.00     0.021 C
BRANCH  18  19
HETATM   19  C8  UNL     1       9.245   9.163  22.610  1.00  0.00     0.124 C
BRANCH  19  20
HETATM   20  N3  UNL     1       8.290  10.075  22.045  1.00  0.00    -0.345 N
HETATM   21  C9  UNL     1       8.009  10.101  20.661  1.00  0.00     0.328 C
HETATM   22  N4  UNL     1       7.055  11.025  20.143  1.00  0.00    -0.040 NA
HETATM   23  O3  UNL     1       8.552   9.348  19.818  1.00  0.00    -0.251 OA
ATOM     24  H3  UNL     1       7.801  10.724  22.662  1.00  0.00     0.163 HD
ENDBRANCH  19  20
ENDBRANCH  18  19
ENDBRANCH  17  18
ENDBRANCH  16  17
ENDBRANCH  14  16
ENDBRANCH   5  12
BRANCH  10  25
HETATM   25  N5  UNL     1       4.074   2.834  21.084  1.00  0.00    -0.047 N
HETATM   26  C17 UNL     1       4.642   2.432  22.393  1.00  0.00     0.243 C
HETATM   27  C18 UNL     1       3.605   1.646  23.116  1.00  0.00     0.014 C
HETATM   28  C19 UNL     1       3.707   0.223  22.534  1.00  0.00     0.008 C
HETATM   29  C22 UNL     1       2.324   2.054  22.427  1.00  0.00     0.039 C
HETATM   30  C20 UNL     1       3.325   0.501  21.090  1.00  0.00     0.034 C
HETATM   31  C21 UNL     1       2.933   1.980  21.018  1.00  0.00     0.192 C
BRANCH  25  32
HETATM   32  C15 UNL     1       5.057   2.492  20.131  1.00  0.00     0.351 C
BRANCH  32  33
HETATM   33  C16 UNL     1       6.397   2.130  20.574  1.00  0.00     0.199 C
HETATM   34  O4  UNL     1       7.277   3.049  20.405  1.00  0.00    -0.647 OA
HETATM   35  O5  UNL     1       6.859   0.981  21.134  1.00  0.00    -0.647 OA
ENDBRANCH  32  33
ENDBRANCH  25  32
ENDBRANCH  10  25
TORSDOF 9
ENDMDL