MODEL 2
REMARK VINA RESULT: -7.770600496      1.477      2.169
REMARK  10 active torsions:
REMARK  status: ('A' for Active; 'I' for Inactive)
REMARK    1  A    between atoms: C3_3  and  C4_4
REMARK    2  A    between atoms: C4_4  and  N1_5
REMARK    3  A    between atoms: N2_8  and  C7_9
REMARK    4  A    between atoms: C7_9  and  C8_10
REMARK    5  A    between atoms: C8_10  and  N3_11
REMARK       I    between atoms: N3_11  and  C9_13
REMARK    6  A    between atoms: C9_13  and  C10_15
REMARK    7  A    between atoms: C15_20  and  C16_21
REMARK    8  A    between atoms: C17_24  and  C18_25
REMARK    9  A    between atoms: C18_25  and  C19_26
REMARK   10  A    between atoms: C19_26  and  C20_27
ROOT
HETATM    1  C1  UNL     1      11.465   8.060  26.305  1.00  0.00     0.112 C
HETATM    2  C2  UNL     1      10.248   8.367  25.548  1.00  0.00    -0.109 C
HETATM    3  C3  UNL     1       9.250   8.620  24.913  1.00  0.00    -0.077 C
ENDROOT
BRANCH   3   4
HETATM    4  C4  UNL     1       8.056   8.929  24.127  1.00  0.00     0.366 C
BRANCH   4   5
HETATM    5  N1  UNL     1       8.424   9.053  22.734  1.00  0.00     0.108 N
HETATM    6  C5  UNL     1       8.857   7.754  22.268  1.00  0.00     0.302 C
HETATM    7  C6  UNL     1       8.528   7.558  20.799  1.00  0.00     0.280 C
HETATM    8  N2  UNL     1       7.087   7.585  20.546  1.00  0.00     0.019 N
HETATM    9  C22 UNL     1       6.430   8.299  21.682  1.00  0.00     0.287 C
HETATM   10  C25 UNL     1       6.862   8.433  19.447  1.00  0.00     0.415 C
HETATM   11  C23 UNL     1       7.243   9.498  22.005  1.00  0.00     0.268 C
HETATM   12  C24 UNL     1       7.592  10.387  20.859  1.00  0.00     0.162 C
HETATM   13  N4  UNL     1       7.393   9.774  19.581  1.00  0.00    -0.335 N
ATOM     14  H4  UNL     1       7.632  10.297  18.738  1.00  0.00     0.164 HD
HETATM   15  O4  UNL     1       6.279   8.215  18.383  1.00  0.00    -0.239 OA
BRANCH   8  16
HETATM   16  C7  UNL     1       6.523   6.293  20.537  1.00  0.00     0.269 C
BRANCH  16  17
HETATM   17  C8  UNL     1       7.327   5.110  20.895  1.00  0.00     0.151 C
BRANCH  17  18
HETATM   18  N3  UNL     1       6.997   3.895  20.184  1.00  0.00    -0.359 N
HETATM   19  C9  UNL     1       6.106   2.962  20.756  1.00  0.00     0.222 C
HETATM   20  O1  UNL     1       5.608   3.191  21.871  1.00  0.00    -0.273 OA
ATOM     21  H3  UNL     1       7.408   3.712  19.269  1.00  0.00     0.162 HD
BRANCH  19  22
HETATM   22  C10 UNL     1       5.767   1.726  20.041  1.00  0.00     0.083 C
HETATM   23  C11 UNL     1       4.305   1.420  20.024  1.00  0.00     0.014 C
HETATM   24  C12 UNL     1       3.405   2.159  19.170  1.00  0.00     0.001 C
HETATM   25  C13 UNL     1       3.908   3.274  18.319  1.00  0.00     0.001 C
HETATM   26  C14 UNL     1       4.974   2.869  17.350  1.00  0.00     0.016 C
HETATM   27  C15 UNL     1       5.473   1.453  17.626  1.00  0.00     0.091 C
HETATM   28  C17 UNL     1       6.478   1.572  18.738  1.00  0.00     0.013 C
BRANCH  27  29
HETATM   29  C16 UNL     1       6.074   0.981  16.364  1.00  0.00     0.177 C
HETATM   30  O2  UNL     1       5.883  -0.207  16.014  1.00  0.00    -0.648 OA
HETATM   31  O3  UNL     1       6.847   1.778  15.531  1.00  0.00    -0.648 OA
ENDBRANCH  27  29
BRANCH  28  32
HETATM   32  C18 UNL     1       7.482   0.440  18.719  1.00  0.00     0.006 C
BRANCH  32  33
HETATM   33  C19 UNL     1       8.861   0.888  19.078  1.00  0.00     0.000 C
BRANCH  33  34
HETATM   34  C20 UNL     1       9.936   0.181  18.292  1.00  0.00    -0.005 C
HETATM   35  C21 UNL     1       9.374  -0.580  17.116  1.00  0.00     0.005 C
ENDBRANCH  33  34
ENDBRANCH  32  33
ENDBRANCH  28  32
ENDBRANCH  19  22
ENDBRANCH  17  18
ENDBRANCH  16  17
ENDBRANCH   8  16
ENDBRANCH   4   5
ENDBRANCH   3   4
TORSDOF 10
ENDMDL