MODEL 2
REMARK VINA RESULT: -7.327393458      2.195      8.420
REMARK  13 active torsions:
REMARK  status: ('A' for Active; 'I' for Inactive)
REMARK    1  A    between atoms: C2_2  and  C3_3
REMARK    2  A    between atoms: C3_3  and  N1_4
REMARK    3  A    between atoms: C7_8  and  N2_9
REMARK    4  A    between atoms: C7_8  and  C12_20
REMARK       I    between atoms: N2_9  and  C8_11
REMARK       I    between atoms: C8_11  and  N3_13
REMARK    5  A    between atoms: C9_15  and  N4_17
REMARK       I    between atoms: C12_20  and  N5_22
REMARK    6  A    between atoms: N5_22  and  C13_24
REMARK    7  A    between atoms: C13_24  and  C14_25
REMARK    8  A    between atoms: C14_25  and  N6_26
REMARK    9  A    between atoms: N6_26  and  C15_27
REMARK   10  A    between atoms: C15_27  and  C16_28
REMARK   11  A    between atoms: C16_28  and  C17_29
REMARK   12  A    between atoms: C18_30  and  C19_31
REMARK   13  A    between atoms: C19_31  and  N7_32
ROOT
HETATM    1  C12 UNL     1       6.861   5.416  20.755  1.00  0.00     0.267 C
HETATM    2  O2  UNL     1       7.666   4.494  20.974  1.00  0.00    -0.269 OA
HETATM    3  N5  UNL     1       5.750   5.244  19.916  1.00  0.00    -0.356 N
ATOM      4  H5  UNL     1       5.119   6.032  19.772  1.00  0.00     0.162 HD
ENDROOT
BRANCH   1   5
HETATM    5  C7  UNL     1       7.119   6.745  21.429  1.00  0.00     0.196 C
HETATM    6  N1  UNL     1       6.060   7.584  21.124  1.00  0.00    -0.336 N
HETATM    7  C4  UNL     1       6.413   8.774  20.471  1.00  0.00     0.066 C
HETATM    8  C5  UNL     1       7.803   8.533  19.954  1.00  0.00     0.050 C
HETATM    9  C6  UNL     1       8.305   7.371  20.732  1.00  0.00     0.070 C
BRANCH   6  10
HETATM   10  C3  UNL     1       4.887   7.551  21.894  1.00  0.00     0.092 C
BRANCH  10  11
HETATM   11  C2  UNL     1       3.702   7.646  20.963  1.00  0.00     0.007 C
HETATM   12  C1  UNL     1       2.676   6.840  21.047  1.00  0.00     0.012 C
ENDBRANCH  10  11
ENDBRANCH   6  10
BRANCH   5  13
HETATM   13  N2  UNL     1       7.478   6.551  22.807  1.00  0.00    -0.308 N
HETATM   14  C8  UNL     1       7.784   7.536  23.735  1.00  0.00     0.323 C
HETATM   15  O1  UNL     1       7.765   8.744  23.417  1.00  0.00    -0.247 OA
HETATM   16  N3  UNL     1       8.123   7.197  25.066  1.00  0.00    -0.299 N
HETATM   17  C9  UNL     1       9.171   7.591  25.670  1.00  0.00     0.076 C
ATOM     18  H3  UNL     1       7.480   6.593  25.579  1.00  0.00     0.171 HD
HETATM   19  C10 UNL     1       9.430   7.174  27.071  1.00  0.00     0.089 C
ATOM     20  H2  UNL     1       7.512   5.587  23.138  1.00  0.00     0.167 HD
BRANCH  17  21
HETATM   21  N4  UNL     1      10.117   8.430  25.032  1.00  0.00    -0.384 N
HETATM   22  C11 UNL     1      11.450   8.661  25.491  1.00  0.00     0.147 C
ATOM     23  H4  UNL     1       9.823   8.907  24.179  1.00  0.00     0.160 HD
ENDBRANCH  17  21
ENDBRANCH   5  13
ENDBRANCH   1   5
BRANCH   3  24
HETATM   24  C13 UNL     1       5.466   4.004  19.253  1.00  0.00     0.150 C
BRANCH  24  25
HETATM   25  C14 UNL     1       4.241   3.287  19.760  1.00  0.00     0.257 C
BRANCH  25  26
HETATM   26  N6  UNL     1       4.556   2.072  20.461  1.00  0.00    -0.065 N
HETATM   27  C20 UNL     1       3.323   1.317  20.583  1.00  0.00     0.237 C
HETATM   28  C21 UNL     1       3.457   0.188  21.586  1.00  0.00     0.028 C
HETATM   29  C22 UNL     1       3.472   0.783  22.967  1.00  0.00     0.003 C
HETATM   30  C23 UNL     1       3.794   2.262  22.799  1.00  0.00     0.028 C
HETATM   31  C24 UNL     1       4.933   2.470  21.825  1.00  0.00     0.237 C
BRANCH  26  32
HETATM   32  C15 UNL     1       5.536   1.247  19.885  1.00  0.00     0.249 C
BRANCH  32  33
HETATM   33  C16 UNL     1       6.859   1.174  20.544  1.00  0.00     0.122 C
BRANCH  33  34
HETATM   34  C17 UNL     1       7.923   0.718  19.645  1.00  0.00    -0.103 C
HETATM   35  C18 UNL     1       8.801   0.318  18.891  1.00  0.00    -0.079 C
BRANCH  35  36
HETATM   36  C19 UNL     1       9.851  -0.160  18.022  1.00  0.00     0.323 C
BRANCH  36  37
HETATM   37  N7  UNL     1       9.345  -0.202  16.667  1.00  0.00    -0.069 N
ATOM     38  H73 UNL     1       8.672  -0.955  16.524  1.00  0.00     0.275 HD
ATOM     39  H72 UNL     1       8.726   0.581  16.456  1.00  0.00     0.275 HD
ATOM     40  H71 UNL     1      10.137  -0.258  16.026  1.00  0.00     0.275 HD
ENDBRANCH  36  37
ENDBRANCH  35  36
ENDBRANCH  33  34
ENDBRANCH  32  33
ENDBRANCH  26  32
ENDBRANCH  25  26
ENDBRANCH  24  25
ENDBRANCH   3  24
TORSDOF 13
ENDMDL