MODEL 3
REMARK VINA RESULT: -8.202185425      5.127      6.167
REMARK  11 active torsions:
REMARK  status: ('A' for Active; 'I' for Inactive)
REMARK    1  A    between atoms: C2_2  and  C3_3
REMARK    2  A    between atoms: C3_3  and  N1_4
REMARK    3  A    between atoms: N1_4  and  C4_5
REMARK    4  A    between atoms: C4_5  and  C5_6
REMARK       I    between atoms: C5_6  and  N2_8
REMARK    5  A    between atoms: C8_11  and  C9_12
REMARK       I    between atoms: C9_12  and  N3_14
REMARK    6  A    between atoms: N3_14  and  C10_16
REMARK    7  A    between atoms: C10_16  and  C11_17
REMARK    8  A    between atoms: C11_17  and  C14_20
REMARK    9  A    between atoms: C14_20  and  N4_21
REMARK   10  A    between atoms: N4_21  and  C15_23
REMARK   11  A    between atoms: C16_28  and  N7_29
ROOT
HETATM    1  C9  UNL     1       6.852   8.527  19.943  1.00  0.00     0.221 C
HETATM    2  O2  UNL     1       7.780   7.742  19.664  1.00  0.00    -0.273 OA
HETATM    3  N3  UNL     1       6.281   8.537  21.234  1.00  0.00    -0.360 N
ATOM      4  H3  UNL     1       5.523   9.183  21.449  1.00  0.00     0.162 HD
ENDROOT
BRANCH   3   5
HETATM    5  C10 UNL     1       6.762   7.640  22.245  1.00  0.00     0.133 C
BRANCH   5   6
HETATM    6  C11 UNL     1       7.245   8.363  23.472  1.00  0.00    -0.015 C
HETATM    7  C12 UNL     1       6.007   8.835  24.236  1.00  0.00     0.018 C
HETATM    8  C13 UNL     1       8.062   9.574  23.145  1.00  0.00     0.018 C
BRANCH   6   9
HETATM    9  C14 UNL     1       7.978   7.420  24.413  1.00  0.00     0.148 C
BRANCH   9  10
HETATM   10  N4  UNL     1       8.657   8.224  25.405  1.00  0.00    -0.224 N
ATOM     11  H4  UNL     1       8.407   9.209  25.500  1.00  0.00     0.177 HD
BRANCH  10  12
HETATM   12  C15 UNL     1       9.571   7.731  26.177  1.00  0.00     0.707 A
HETATM   13  N5  UNL     1       9.259   6.984  27.271  1.00  0.00    -0.117 N
HETATM   14  N6  UNL     1      10.395   6.628  27.850  1.00  0.00    -0.117 N
ATOM     15  H5  UNL     1       8.321   6.742  27.589  1.00  0.00     0.206 HD
HETATM   16  C16 UNL     1      11.428   7.135  27.143  1.00  0.00     0.707 A
ATOM     17  H6  UNL     1      10.476   6.062  28.694  1.00  0.00     0.206 HD
HETATM   18  N8  UNL     1      10.899   7.812  26.114  1.00  0.00    -0.020 N
ATOM     19  H8  UNL     1      11.428   8.310  25.398  1.00  0.00     0.203 HD
BRANCH  16  20
HETATM   20  N7  UNL     1      12.677   6.981  27.426  1.00  0.00    -0.229 N
HETATM   21  C17 UNL     1      13.699   7.347  26.475  1.00  0.00     0.165 C
ATOM     22  H7  UNL     1      12.945   6.597  28.333  1.00  0.00     0.177 HD
ENDBRANCH  16  20
ENDBRANCH  10  12
ENDBRANCH   9  10
ENDBRANCH   6   9
ENDBRANCH   5   6
ENDBRANCH   3   5
BRANCH   1  23
HETATM   23  C8  UNL     1       6.343   9.460  18.907  1.00  0.00     0.081 C
HETATM   24  C7  UNL     1       5.045   8.971  18.325  1.00  0.00     0.034 C
HETATM   25  C6  UNL     1       5.366   7.905  17.316  1.00  0.00     0.126 C
HETATM   26  N2  UNL     1       6.099   8.556  16.248  1.00  0.00    -0.351 N
HETATM   27  C5  UNL     1       5.645   8.374  14.918  1.00  0.00     0.245 C
HETATM   28  C19 UNL     1       7.253   9.365  16.534  1.00  0.00     0.126 C
HETATM   29  O1  UNL     1       4.620   7.653  14.761  1.00  0.00    -0.272 OA
HETATM   30  C18 UNL     1       7.377   9.855  17.918  1.00  0.00     0.034 C
BRANCH  27  31
HETATM   31  C4  UNL     1       6.380   9.024  13.836  1.00  0.00     0.339 C
BRANCH  31  32
HETATM   32  N1  UNL     1       7.207   8.098  13.031  1.00  0.00    -0.059 N
HETATM   33  C20 UNL     1       7.463   6.919  13.752  1.00  0.00     0.238 C
HETATM   34  C21 UNL     1       8.946   6.842  14.078  1.00  0.00     0.029 C
HETATM   35  C22 UNL     1       9.581   7.840  13.137  1.00  0.00     0.029 C
HETATM   36  C23 UNL     1       8.468   8.826  12.893  1.00  0.00     0.238 C
BRANCH  32  37
HETATM   37  C3  UNL     1       6.604   8.054  11.758  1.00  0.00     0.237 C
BRANCH  37  38
HETATM   38  C2  UNL     1       6.959   9.029  10.717  1.00  0.00     0.023 C
HETATM   39  C1  UNL     1       6.571   8.682   9.307  1.00  0.00     0.007 C
ENDBRANCH  37  38
ENDBRANCH  32  37
ENDBRANCH  31  32
ENDBRANCH  27  31
ENDBRANCH   1  23
TORSDOF 11
ENDMDL