MODEL 1
REMARK VINA RESULT: -9.043411907      0.000      0.000
REMARK  9 active torsions:
REMARK  status: ('A' for Active; 'I' for Inactive)
REMARK    1  A    between atoms: N1_3  and  C3_4
REMARK    2  A    between atoms: C3_4  and  C4_5
REMARK    3  A    between atoms: C4_5  and  C5_6
REMARK    4  A    between atoms: C5_6  and  C6_7
REMARK    5  A    between atoms: C6_7  and  C7_8
REMARK    6  A    between atoms: C7_8  and  N2_9
REMARK       I    between atoms: N2_9  and  C8_11
REMARK    7  A    between atoms: N5_18  and  C11_19
REMARK    8  A    between atoms: C11_19  and  C12_20
REMARK    9  A    between atoms: C12_20  and  C13_21
REMARK       I    between atoms: N6_24  and  C16_25
REMARK       I    between atoms: C16_25  and  N7_27
ROOT
HETATM    1  C1  UNL     1       4.497   5.910  19.391  1.00  0.00     0.056 C
HETATM    2  C2  UNL     1       5.032   6.258  20.764  1.00  0.00     0.185 C
HETATM    3  N1  UNL     1       4.354   5.703  21.840  1.00  0.00    -0.371 N
HETATM    4  C9  UNL     1       3.919   4.350  21.739  1.00  0.00     0.144 C
HETATM    5  C10 UNL     1       4.898   3.316  22.169  1.00  0.00     0.147 C
HETATM    6  N5  UNL     1       6.114   3.301  21.410  1.00  0.00    -0.333 N
HETATM    7  C20 UNL     1       6.822   4.443  20.945  1.00  0.00     0.321 C
HETATM    8  O2  UNL     1       8.002   4.195  20.544  1.00  0.00    -0.247 OA
HETATM    9  N10 UNL     1       6.451   5.814  20.849  1.00  0.00    -0.317 N
HETATM   10  C21 UNL     1       7.482   6.808  20.829  1.00  0.00     0.156 C
ENDROOT
BRANCH   6  11
HETATM   11  C11 UNL     1       6.656   1.994  21.100  1.00  0.00     0.128 C
BRANCH  11  12
HETATM   12  C12 UNL     1       6.112   1.479  19.769  1.00  0.00     0.024 C
BRANCH  12  13
HETATM   13  C13 UNL     1       7.180   0.570  19.160  1.00  0.00    -0.010 C
HETATM   14  C14 UNL     1       6.714   0.157  17.784  1.00  0.00     0.024 C
HETATM   15  C15 UNL     1       7.878   0.148  16.790  1.00  0.00     0.128 C
HETATM   16  N6  UNL     1       9.065  -0.389  17.422  1.00  0.00    -0.334 N
HETATM   17  C16 UNL     1       9.744  -1.476  16.841  1.00  0.00     0.324 C
HETATM   18  C18 UNL     1       9.528   0.213  18.645  1.00  0.00     0.128 C
HETATM   19  O1  UNL     1      10.773  -1.926  17.424  1.00  0.00    -0.247 OA
HETATM   20  N7  UNL     1       9.332  -2.090  15.637  1.00  0.00    -0.285 N
HETATM   21  C17 UNL     1       9.552  -3.332  15.443  1.00  0.00     0.204 C
ATOM     22  H7  UNL     1       8.857  -1.539  14.921  1.00  0.00     0.172 HD
HETATM   23  N8  UNL     1       9.131  -3.930  14.228  1.00  0.00    -0.066 NA
HETATM   24  N9  UNL     1      10.206  -4.111  16.416  1.00  0.00    -0.066 NA
HETATM   25  C19 UNL     1       8.513   1.273  19.080  1.00  0.00     0.024 C
ENDBRANCH  12  13
ENDBRANCH  11  12
ENDBRANCH   6  11
BRANCH   3  26
HETATM   26  C3  UNL     1       3.923   6.424  22.937  1.00  0.00     0.060 C
BRANCH  26  27
HETATM   27  C4  UNL     1       4.686   7.582  23.481  1.00  0.00     0.044 C
BRANCH  27  28
HETATM   28  C5  UNL     1       5.934   7.216  24.174  1.00  0.00     0.007 C
BRANCH  28  29
HETATM   29  C6  UNL     1       6.557   8.410  24.910  1.00  0.00     0.020 C
BRANCH  29  30
HETATM   30  C7  UNL     1       8.042   8.460  24.800  1.00  0.00     0.122 C
BRANCH  30  31
HETATM   31  N2  UNL     1       8.615   7.352  25.526  1.00  0.00    -0.365 N
HETATM   32  C8  UNL     1       9.624   7.448  26.508  1.00  0.00     0.181 C
HETATM   33  N3  UNL     1       9.310   7.007  27.710  1.00  0.00    -0.374 N
HETATM   34  N4  UNL     1      10.924   7.979  26.267  1.00  0.00    -0.064 NA
ATOM     35  H32 UNL     1       8.379   6.627  27.882  1.00  0.00     0.158 HD
ATOM     36  H31 UNL     1      10.038   7.077  28.420  1.00  0.00     0.158 HD
ATOM     37  H2  UNL     1       8.260   6.421  25.310  1.00  0.00     0.162 HD
ENDBRANCH  30  31
ENDBRANCH  29  30
ENDBRANCH  28  29
ENDBRANCH  27  28
ENDBRANCH  26  27
ENDBRANCH   3  26
TORSDOF 9
ENDMDL