MODEL 4
REMARK VINA RESULT: -6.419792401      3.034      5.343
REMARK  11 active torsions:
REMARK  status: ('A' for Active; 'I' for Inactive)
REMARK    1  A    between atoms: C2_2  and  C3_3
REMARK    2  A    between atoms: C5_8  and  C6_9
REMARK    3  A    between atoms: C6_9  and  N2_10
REMARK    4  A    between atoms: N3_13  and  C9_14
REMARK    5  A    between atoms: C9_14  and  C10_15
REMARK    6  A    between atoms: C10_15  and  C11_16
REMARK    7  A    between atoms: C11_16  and  C12_17
REMARK    8  A    between atoms: C12_17  and  C13_18
REMARK    9  A    between atoms: C19_24  and  C20_25
REMARK   10  A    between atoms: C24_31  and  O4_32
REMARK   11  A    between atoms: C25_34  and  O5_35
ROOT
HETATM    1  C3  UNL     1       7.218   8.655  22.035  1.00  0.00     0.082 C
HETATM    2  N1  UNL     1       5.976   8.863  21.324  1.00  0.00    -0.345 N
ATOM      3  H1  UNL     1       5.818   9.716  20.788  1.00  0.00     0.163 HD
HETATM    4  C4  UNL     1       4.963   7.834  21.390  1.00  0.00     0.232 C
HETATM    5  O1  UNL     1       3.824   8.158  21.035  1.00  0.00    -0.272 OA
HETATM    6  C5  UNL     1       5.394   6.499  21.881  1.00  0.00     0.106 C
HETATM    7  C19 UNL     1       5.446   6.603  23.366  1.00  0.00     0.109 C
HETATM    8  C21 UNL     1       6.556   7.329  24.007  1.00  0.00     0.024 C
HETATM    9  C22 UNL     1       6.898   8.681  23.486  1.00  0.00     0.017 C
HETATM   10  C23 UNL     1       8.183   9.107  24.216  1.00  0.00     0.013 C
HETATM   11  C24 UNL     1       6.777   6.316  21.262  1.00  0.00     0.170 C
HETATM   12  C25 UNL     1       7.809   7.292  21.750  1.00  0.00     0.180 C
ENDROOT
BRANCH   6  13
HETATM   13  C6  UNL     1       4.503   5.373  21.614  1.00  0.00     0.260 C
BRANCH  13  14
HETATM   14  N2  UNL     1       4.763   4.085  21.197  1.00  0.00    -0.061 N
HETATM   15  C7  UNL     1       4.692   4.255  19.704  1.00  0.00     0.265 C
HETATM   16  C8  UNL     1       5.265   3.116  18.966  1.00  0.00     0.265 C
HETATM   17  N3  UNL     1       4.925   1.931  19.776  1.00  0.00    -0.062 N
HETATM   18  C15 UNL     1       3.555   2.185  20.186  1.00  0.00     0.265 C
HETATM   19  C17 UNL     1       5.848   1.988  20.877  1.00  0.00     0.265 C
HETATM   20  C16 UNL     1       3.691   3.102  21.420  1.00  0.00     0.265 C
HETATM   21  C18 UNL     1       5.999   3.434  21.403  1.00  0.00     0.265 C
BRANCH  17  22
HETATM   22  C9  UNL     1       5.086   0.772  18.949  1.00  0.00     0.237 C
BRANCH  22  23
HETATM   23  C10 UNL     1       5.997   0.976  17.789  1.00  0.00     0.028 C
BRANCH  23  24
HETATM   24  C11 UNL     1       7.199   0.077  17.931  1.00  0.00     0.002 C
BRANCH  24  25
HETATM   25  C12 UNL     1       8.270   0.666  18.793  1.00  0.00    -0.000 C
BRANCH  25  26
HETATM   26  C13 UNL     1       9.636   0.078  18.471  1.00  0.00    -0.005 C
HETATM   27  C14 UNL     1       9.523  -0.751  17.218  1.00  0.00     0.005 C
ENDBRANCH  25  26
ENDBRANCH  24  25
ENDBRANCH  23  24
ENDBRANCH  22  23
ENDBRANCH  17  22
ENDBRANCH  13  14
ENDBRANCH   6  13
BRANCH   7  28
HETATM   28  C20 UNL     1       4.177   7.074  23.943  1.00  0.00     0.178 C
HETATM   29  O2  UNL     1       3.213   6.236  24.056  1.00  0.00    -0.648 OA
HETATM   30  O3  UNL     1       3.852   8.330  24.399  1.00  0.00    -0.648 OA
ENDBRANCH   7  28
BRANCH  11  31
HETATM   31  O4  UNL     1       6.810   6.433  19.908  1.00  0.00    -0.392 OA
ATOM     32  H4  UNL     1       7.100   7.280  19.590  1.00  0.00     0.210 HD
ENDBRANCH  11  31
BRANCH  12  33
HETATM   33  O5  UNL     1       8.772   7.556  20.729  1.00  0.00    -0.390 OA
ATOM     34  H5  UNL     1       8.956   6.695  20.372  1.00  0.00     0.210 HD
ENDBRANCH  12  33
BRANCH   1  35
HETATM   35  C2  UNL     1       8.188   9.753  21.686  1.00  0.00    -0.003 C
HETATM   36  C1  UNL     1       7.825  10.771  20.920  1.00  0.00     0.009 C
ENDBRANCH   1  35
TORSDOF 11
ENDMDL