MODEL 1
REMARK VINA RESULT: -6.037549830      0.000      0.000
REMARK  6 active torsions:
REMARK  status: ('A' for Active; 'I' for Inactive)
REMARK    1  A    between atoms: C3_6  and  C4_7
REMARK    2  A    between atoms: C4_7  and  N2_8
REMARK    3  A    between atoms: N2_8  and  C5_11
REMARK    4  A    between atoms: C5_11  and  C6_12
REMARK    5  A    between atoms: C6_12  and  N3_13
REMARK    6  A    between atoms: N3_13  and  C7_15
ROOT
HETATM    1  N2  UNL     1      13.364  32.593  37.432  1.00  0.00    -0.072 N
ATOM      2  H21 UNL     1      12.813  33.417  37.194  1.00  0.00     0.277 HD
ATOM      3  H22 UNL     1      14.189  33.047  37.825  1.00  0.00     0.277 HD
ENDROOT
BRANCH   1   4
HETATM    4  C4  UNL     1      13.711  31.852  36.243  1.00  0.00     0.265 C
BRANCH   4   5
HETATM    5  C3  UNL     1      14.258  30.517  36.625  1.00  0.00     0.211 C
HETATM    6  N1  UNL     1      15.693  30.431  36.318  1.00  0.00    -0.069 N
HETATM    7  C2  UNL     1      15.942  29.022  36.584  1.00  0.00     0.233 C
ATOM      8  H12 UNL     1      16.290  31.087  36.821  1.00  0.00     0.277 HD
ATOM      9  H11 UNL     1      15.965  30.759  35.391  1.00  0.00     0.277 HD
HETATM   10  C1  UNL     1      14.710  28.296  36.040  1.00  0.00     0.029 C
HETATM   11  C10 UNL     1      13.734  29.399  35.711  1.00  0.00     0.036 C
ENDBRANCH   4   5
ENDBRANCH   1   4
BRANCH   1  12
HETATM   12  C5  UNL     1      12.695  31.809  38.433  1.00  0.00     0.251 C
BRANCH  12  13
HETATM   13  C6  UNL     1      11.187  31.980  38.209  1.00  0.00     0.141 C
BRANCH  13  14
HETATM   14  N3  UNL     1      10.651  32.640  39.362  1.00  0.00    -0.415 N
ATOM     15  H3  UNL     1      10.691  32.229  40.294  1.00  0.00     0.153 HD
BRANCH  14  16
HETATM   16  C7  UNL     1      10.059  33.914  39.114  1.00  0.00     0.076 A
HETATM   17  C8  UNL     1      10.794  35.184  39.364  1.00  0.00     0.027 A
HETATM   18  C9  UNL     1      10.474  34.767  37.949  1.00  0.00     0.027 A
ENDBRANCH  14  16
ENDBRANCH  13  14
ENDBRANCH  12  13
ENDBRANCH   1  12
TORSDOF 6
ENDMDL