MODEL 3
REMARK VINA RESULT: -6.031342634      1.071      1.365
REMARK  6 active torsions:
REMARK  status: ('A' for Active; 'I' for Inactive)
REMARK    1  A    between atoms: N1_2  and  C2_5
REMARK    2  A    between atoms: C2_5  and  C3_6
REMARK    3  A    between atoms: C3_6  and  N2_7
REMARK    4  A    between atoms: N2_7  and  C4_10
REMARK    5  A    between atoms: C4_10  and  C5_11
REMARK    6  A    between atoms: C5_11  and  C6_12
ROOT
HETATM    1  C4  UNL     1      10.762  31.730  38.573  1.00  0.00     0.232 C
ENDROOT
BRANCH   1   2
HETATM    2  N2  UNL     1      11.746  30.675  38.757  1.00  0.00    -0.074 N
ATOM      3  H22 UNL     1      11.289  29.766  38.827  1.00  0.00     0.277 HD
ATOM      4  H21 UNL     1      12.162  30.731  39.687  1.00  0.00     0.277 HD
BRANCH   2   5
HETATM    5  C3  UNL     1      12.763  30.647  37.756  1.00  0.00     0.259 C
BRANCH   5   6
HETATM    6  C2  UNL     1      12.551  29.432  36.874  1.00  0.00     0.259 C
BRANCH   6   7
HETATM    7  N1  UNL     1      12.008  29.785  35.580  1.00  0.00    -0.077 N
HETATM    8  C1  UNL     1      12.761  30.933  35.106  1.00  0.00     0.267 C
ATOM      9  H12 UNL     1      11.001  29.945  35.596  1.00  0.00     0.276 HD
ATOM     10  H11 UNL     1      12.005  29.007  34.920  1.00  0.00     0.276 HD
ENDBRANCH   6   7
ENDBRANCH   5   6
ENDBRANCH   2   5
ENDBRANCH   1   2
BRANCH   1  11
HETATM   11  C5  UNL     1      11.340  33.064  38.262  1.00  0.00     0.032 C
BRANCH  11  12
HETATM   12  C6  UNL     1      10.376  34.168  38.529  1.00  0.00    -0.010 C
HETATM   13  C7  UNL     1      10.967  35.535  38.204  1.00  0.00     0.032 C
HETATM   14  C8  UNL     1      11.965  35.994  39.235  1.00  0.00     0.232 C
HETATM   15  N3  UNL     1      11.336  35.958  40.536  1.00  0.00    -0.075 N
HETATM   16  C9  UNL     1      11.040  34.554  40.869  1.00  0.00     0.232 C
ATOM     17  H32 UNL     1      11.891  36.424  41.253  1.00  0.00     0.277 HD
ATOM     18  H31 UNL     1      10.511  36.557  40.590  1.00  0.00     0.277 HD
HETATM   19  C10 UNL     1       9.890  34.175  39.933  1.00  0.00     0.032 C
ENDBRANCH  11  12
ENDBRANCH   1  11
TORSDOF 6
ENDMDL