MODEL 4
REMARK VINA RESULT: -6.055249770      1.211      1.680
REMARK  6 active torsions:
REMARK  status: ('A' for Active; 'I' for Inactive)
REMARK    1  A    between atoms: C3_6  and  N2_7
REMARK    2  A    between atoms: N2_7  and  C4_10
REMARK    3  A    between atoms: C4_10  and  C5_11
REMARK    4  A    between atoms: C5_11  and  N3_12
REMARK    5  A    between atoms: N3_12  and  C6_15
REMARK    6  A    between atoms: C6_15  and  C7_16
ROOT
HETATM    1  N2  UNL     1      13.627  31.726  37.438  1.00  0.00    -0.045 N
ATOM      2  H21 UNL     1      14.197  32.409  37.939  1.00  0.00     0.279 HD
ATOM      3  H22 UNL     1      13.819  30.917  38.028  1.00  0.00     0.279 HD
ENDROOT
BRANCH   1   4
HETATM    4  C3  UNL     1      14.069  31.534  36.095  1.00  0.00     0.382 C
HETATM    5  N1  UNL     1      15.397  30.896  36.039  1.00  0.00    -0.046 N
HETATM    6  C2  UNL     1      15.161  29.470  36.128  1.00  0.00     0.235 C
ATOM      7  H12 UNL     1      16.046  31.244  36.743  1.00  0.00     0.279 HD
ATOM      8  H11 UNL     1      15.944  31.167  35.221  1.00  0.00     0.279 HD
HETATM    9  C1  UNL     1      13.743  29.221  35.743  1.00  0.00     0.031 C
HETATM   10  C10 UNL     1      13.276  30.577  35.268  1.00  0.00     0.064 C
ENDBRANCH   1   4
BRANCH   1  11
HETATM   11  C4  UNL     1      12.232  32.079  37.434  1.00  0.00     0.262 C
BRANCH  11  12
HETATM   12  C5  UNL     1      11.400  31.190  38.377  1.00  0.00     0.259 C
BRANCH  12  13
HETATM   13  N3  UNL     1      10.606  32.110  39.176  1.00  0.00    -0.073 N
ATOM     14  H32 UNL     1       9.653  31.765  39.291  1.00  0.00     0.277 HD
ATOM     15  H31 UNL     1      10.906  32.098  40.151  1.00  0.00     0.277 HD
BRANCH  13  16
HETATM   16  C6  UNL     1      10.607  33.432  38.661  1.00  0.00     0.237 C
BRANCH  16  17
HETATM   17  C7  UNL     1       9.914  34.426  39.521  1.00  0.00     0.011 A
HETATM   18  C8  UNL     1       9.894  34.374  40.991  1.00  0.00     0.007 A
HETATM   19  C9  UNL     1      10.763  35.405  40.347  1.00  0.00     0.007 A
ENDBRANCH  16  17
ENDBRANCH  13  16
ENDBRANCH  12  13
ENDBRANCH  11  12
ENDBRANCH   1  11
TORSDOF 6
ENDMDL