MODEL 5
REMARK VINA RESULT: -6.099053829      3.123      5.069
REMARK  7 active torsions:
REMARK  status: ('A' for Active; 'I' for Inactive)
REMARK    1  A    between atoms: C2_2  and  O1_3
REMARK    2  A    between atoms: O1_3  and  C3_4
REMARK    3  A    between atoms: C3_4  and  C4_5
REMARK    4  A    between atoms: C4_5  and  C5_6
REMARK    5  A    between atoms: C7_12  and  C8_13
REMARK    6  A    between atoms: C8_13  and  N3_14
REMARK    7  A    between atoms: N3_14  and  C9_16
ROOT
HETATM    1  C5  UNL     1      12.937  31.146  37.998  1.00  0.00     0.059 A
HETATM    2  N1  UNL     1      13.160  31.776  39.159  1.00  0.00    -0.351 N
ATOM      3  H1  UNL     1      13.520  31.327  40.002  1.00  0.00     0.166 HD
HETATM    4  C6  UNL     1      12.845  33.079  39.064  1.00  0.00     0.181 A
HETATM    5  N2  UNL     1      12.402  33.295  37.793  1.00  0.00    -0.352 N
ATOM      6  H2  UNL     1      12.088  34.188  37.412  1.00  0.00     0.166 HD
HETATM    7  C7  UNL     1      12.451  32.132  37.131  1.00  0.00     0.055 A
ENDROOT
BRANCH   7   8
HETATM    8  C8  UNL     1      12.072  31.865  35.741  1.00  0.00     0.179 C
BRANCH   8   9
HETATM    9  N3  UNL     1      12.942  32.525  34.812  1.00  0.00    -0.381 N
ATOM     10  H3  UNL     1      12.588  33.356  34.337  1.00  0.00     0.160 HD
BRANCH   9  11
HETATM   11  C9  UNL     1      14.256  32.101  34.510  1.00  0.00     0.169 C
HETATM   12  N4  UNL     1      15.077  32.796  33.793  1.00  0.00    -0.396 N
ATOM     13  H42 UNL     1      14.744  33.692  33.435  1.00  0.00     0.156 HD
ATOM     14  H41 UNL     1      16.026  32.490  33.575  1.00  0.00     0.156 HD
ENDBRANCH   9  11
ENDBRANCH   8   9
ENDBRANCH   7   8
BRANCH   1  15
HETATM   15  C4  UNL     1      13.138  29.746  37.657  1.00  0.00     0.055 C
BRANCH  15  16
HETATM   16  C3  UNL     1      14.298  29.328  37.181  1.00  0.00     0.137 C
BRANCH  16  17
HETATM   17  O1  UNL     1      15.255  28.715  37.955  1.00  0.00    -0.363 OA
BRANCH  17  18
HETATM   18  C2  UNL     1      16.019  27.656  37.411  1.00  0.00     0.170 C
HETATM   19  C1  UNL     1      15.312  27.026  36.214  1.00  0.00     0.034 C
ENDBRANCH  17  18
ENDBRANCH  16  17
ENDBRANCH  15  16
ENDBRANCH   1  15
TORSDOF 7
ENDMDL