MODEL 4
REMARK VINA RESULT: -6.009328180      1.564      5.834
REMARK  6 active torsions:
REMARK  status: ('A' for Active; 'I' for Inactive)
REMARK    1  A    between atoms: C2_2  and  C3_3
REMARK    2  A    between atoms: C3_3  and  N1_4
REMARK    3  A    between atoms: N1_4  and  C4_6
REMARK    4  A    between atoms: C4_6  and  C5_7
REMARK    5  A    between atoms: C5_7  and  N2_8
REMARK    6  A    between atoms: N2_8  and  C6_10
ROOT
HETATM    1  N2  UNL     1      10.483  32.343  39.200  1.00  0.00    -0.412 N
ATOM      2  H2  UNL     1       9.680  31.913  39.660  1.00  0.00     0.153 HD
ENDROOT
BRANCH   1   3
HETATM    3  C5  UNL     1      11.210  31.548  38.274  1.00  0.00     0.158 C
BRANCH   3   4
HETATM    4  C4  UNL     1      12.702  31.911  38.445  1.00  0.00     0.074 C
BRANCH   4   5
HETATM    5  N1  UNL     1      13.344  32.474  37.352  1.00  0.00    -0.401 N
ATOM      6  H1  UNL     1      13.514  33.479  37.317  1.00  0.00     0.158 HD
BRANCH   5   7
HETATM    7  C3  UNL     1      13.761  31.643  36.290  1.00  0.00     0.118 C
BRANCH   7   8
HETATM    8  C2  UNL     1      12.900  31.929  35.044  1.00  0.00     0.015 C
HETATM    9  C1  UNL     1      13.905  32.322  33.967  1.00  0.00     0.006 C
ENDBRANCH   7   8
ENDBRANCH   5   7
ENDBRANCH   4   5
ENDBRANCH   3   4
ENDBRANCH   1   3
BRANCH   1  10
HETATM   10  C6  UNL     1      10.774  33.632  39.522  1.00  0.00     0.086 C
HETATM   11  C7  UNL     1      10.490  34.710  38.498  1.00  0.00     0.069 C
HETATM   12  C8  UNL     1      11.519  35.791  38.786  1.00  0.00     0.062 C
HETATM   13  N3  UNL     1      11.598  36.188  40.125  1.00  0.00    -0.382 N
HETATM   14  C9  UNL     1      10.898  35.513  41.142  1.00  0.00     0.062 C
ATOM     15  H3  UNL     1      12.179  36.989  40.371  1.00  0.00     0.163 HD
HETATM   16  C10 UNL     1      10.231  34.215  40.802  1.00  0.00     0.069 C
ENDBRANCH   1  10
TORSDOF 6
ENDMDL