MODEL 4
REMARK VINA RESULT: -6.588411019      1.814      3.807
REMARK  7 active torsions:
REMARK  status: ('A' for Active; 'I' for Inactive)
REMARK    1  A    between atoms: C2_2  and  C3_3
REMARK    2  A    between atoms: C19_22  and  O4_23
REMARK    3  A    between atoms: C19_22  and  C20_25
REMARK    4  A    between atoms: C20_25  and  O5_26
REMARK    5  A    between atoms: O5_26  and  C21_27
REMARK    6  A    between atoms: C21_27  and  C22_28
REMARK    7  A    between atoms: C24_31  and  O7_32
ROOT
HETATM    1  C3  UNL     1       3.336   1.572  21.557  1.00  0.00     0.178 C
HETATM    2  O1  UNL     1       3.867   1.558  20.299  1.00  0.00    -0.371 OA
HETATM    3  C4  UNL     1       5.175   2.027  20.363  1.00  0.00     0.135 C
HETATM    4  C5  UNL     1       6.020   0.977  19.618  1.00  0.00     0.042 C
HETATM    5  C6  UNL     1       7.036   1.774  18.900  1.00  0.00    -0.031 C
HETATM    6  C7  UNL     1       8.446   1.359  19.088  1.00  0.00     0.016 C
HETATM    7  C8  UNL     1       6.801   3.246  19.285  1.00  0.00     0.025 C
HETATM    8  C9  UNL     1       5.358   3.280  19.545  1.00  0.00     0.028 C
HETATM    9  C10 UNL     1       4.621   3.033  18.221  1.00  0.00     0.094 C
HETATM   10  C11 UNL     1       5.165   1.887  17.459  1.00  0.00     0.132 C
HETATM   11  O2  UNL     1       4.431   1.115  16.874  1.00  0.00    -0.298 OA
HETATM   12  C12 UNL     1       6.657   1.678  17.411  1.00  0.00     0.059 C
HETATM   13  C13 UNL     1       6.947   0.268  16.968  1.00  0.00     0.018 C
HETATM   14  C14 UNL     1       4.783   4.538  20.115  1.00  0.00     0.111 C
HETATM   15  C15 UNL     1       5.345   5.659  19.224  1.00  0.00     0.045 C
HETATM   16  C16 UNL     1       4.184   6.405  18.655  1.00  0.00     0.034 C
HETATM   17  C17 UNL     1       3.059   5.446  18.923  1.00  0.00     0.118 C
HETATM   18  C18 UNL     1       1.842   6.316  19.263  1.00  0.00     0.039 C
HETATM   19  O3  UNL     1       3.421   4.555  19.852  1.00  0.00    -0.371 OA
HETATM   20  C19 UNL     1       4.961   4.785  21.569  1.00  0.00     0.159 C
HETATM   21  C24 UNL     1       4.201   3.929  22.536  1.00  0.00     0.091 C
HETATM   22  C25 UNL     1       3.226   2.966  22.094  1.00  0.00    -0.003 C
HETATM   23  C26 UNL     1       1.958   3.294  22.159  1.00  0.00     0.024 C
ENDROOT
BRANCH  20  24
HETATM   24  O4  UNL     1       6.315   4.673  21.969  1.00  0.00    -0.378 OA
ATOM     25  H4  UNL     1       6.406   4.244  22.812  1.00  0.00     0.211 HD
ENDBRANCH  20  24
BRANCH  20  26
HETATM   26  C20 UNL     1       4.604   6.194  22.020  1.00  0.00     0.215 C
BRANCH  26  27
HETATM   27  O5  UNL     1       5.472   6.794  22.899  1.00  0.00    -0.385 OA
BRANCH  27  28
HETATM   28  C21 UNL     1       5.996   7.981  22.407  1.00  0.00     0.201 C
BRANCH  28  29
HETATM   29  C22 UNL     1       7.475   8.080  22.652  1.00  0.00     0.169 A
HETATM   30  C23 UNL     1       8.354   7.695  21.519  1.00  0.00     0.202 A
HETATM   31  O6  UNL     1       8.161   6.803  22.615  1.00  0.00    -0.379 OA
ENDBRANCH  28  29
ENDBRANCH  27  28
ENDBRANCH  26  27
ENDBRANCH  20  26
BRANCH  21  32
HETATM   32  O7  UNL     1       3.663   4.615  23.633  1.00  0.00    -0.361 OA
ATOM     33  H7  UNL     1       2.744   4.441  23.802  1.00  0.00     0.217 HD
ENDBRANCH  21  32
BRANCH   1  34
HETATM   34  C2  UNL     1       4.128   0.765  22.516  1.00  0.00    -0.001 C
HETATM   35  C1  UNL     1       3.600  -0.242  23.191  1.00  0.00     0.010 C
ENDBRANCH   1  34
TORSDOF 7
ENDMDL