MODEL 2
REMARK VINA RESULT: -8.953244210      0.270      1.339
REMARK  8 active torsions:
REMARK  status: ('A' for Active; 'I' for Inactive)
REMARK    1  A    between atoms: C2_2  and  C4_4
REMARK    2  A    between atoms: C4_4  and  O1_5
REMARK    3  A    between atoms: O1_5  and  C5_6
REMARK    4  A    between atoms: C5_6  and  C6_8
REMARK    5  A    between atoms: C10_18  and  O5_19
REMARK    6  A    between atoms: O5_19  and  C11_20
REMARK    7  A    between atoms: C11_20  and  C12_22
REMARK    8  A    between atoms: C24_34  and  O7_35
ROOT
HETATM    1  C6  UNL     1       7.994   7.842  22.840  1.00  0.00     0.163 C
HETATM    2  C7  UNL     1       6.648   7.285  23.087  1.00  0.00     0.022 C
HETATM    3  N1  UNL     1       6.577   6.570  24.145  1.00  0.00    -0.403 N
ATOM      4  H11 UNL     1       5.647   6.186  24.316  1.00  0.00     0.155 HD
ATOM      5  H12 UNL     1       7.450   6.486  24.664  1.00  0.00     0.155 HD
HETATM    6  C8  UNL     1       5.368   7.408  22.325  1.00  0.00     0.254 C
HETATM    7  O3  UNL     1       5.247   8.694  21.851  1.00  0.00    -0.269 OA
HETATM    8  N2  UNL     1       6.024   8.926  20.769  1.00  0.00    -0.216 N
HETATM    9  C9  UNL     1       5.523   8.942  19.441  1.00  0.00     0.273 C
HETATM   10  O4  UNL     1       4.411   8.524  19.058  1.00  0.00    -0.268 OA
HETATM   11  C10 UNL     1       6.554   9.542  18.600  1.00  0.00     0.228 C
HETATM   12  C22 UNL     1       7.825   9.282  19.321  1.00  0.00     0.073 C
HETATM   13  C23 UNL     1       7.436   9.189  20.782  1.00  0.00     0.151 C
HETATM   14  C24 UNL     1       8.263   8.106  21.388  1.00  0.00     0.162 C
ENDROOT
BRANCH  11  15
HETATM   15  O5  UNL     1       6.545   9.083  17.269  1.00  0.00    -0.306 OA
BRANCH  15  16
HETATM   16  C11 UNL     1       7.079   9.828  16.229  1.00  0.00     0.268 C
HETATM   17  O6  UNL     1       7.162  11.070  16.405  1.00  0.00    -0.264 OA
BRANCH  16  18
HETATM   18  C12 UNL     1       7.508   9.119  15.003  1.00  0.00     0.049 C
HETATM   19  C13 UNL     1       7.788  10.077  13.866  1.00  0.00     0.024 C
HETATM   20  C14 UNL     1       8.169   9.258  12.667  1.00  0.00    -0.013 C
HETATM   21  C15 UNL     1       9.448   8.461  12.936  1.00  0.00     0.009 C
HETATM   22  C19 UNL     1       7.114   8.266  12.269  1.00  0.00     0.009 C
HETATM   23  C16 UNL     1       9.204   7.561  14.105  1.00  0.00    -0.013 C
HETATM   24  C17 UNL     1       8.084   6.594  13.793  1.00  0.00     0.009 C
HETATM   25  C21 UNL     1       8.795   8.385  15.293  1.00  0.00     0.024 C
HETATM   26  C18 UNL     1       6.833   7.333  13.447  1.00  0.00    -0.013 C
HETATM   27  C20 UNL     1       6.394   8.188  14.599  1.00  0.00     0.024 C
ENDBRANCH  16  18
ENDBRANCH  15  16
ENDBRANCH  11  15
BRANCH  14  28
HETATM   28  O7  UNL     1       9.606   8.447  21.252  1.00  0.00    -0.392 OA
ATOM     29  H7  UNL     1      10.113   7.881  21.821  1.00  0.00     0.210 HD
ENDBRANCH  14  28
BRANCH   1  30
HETATM   30  C5  UNL     1       8.285   9.015  23.701  1.00  0.00     0.271 C
HETATM   31  O2  UNL     1       7.331   9.570  24.292  1.00  0.00    -0.264 OA
BRANCH  30  32
HETATM   32  O1  UNL     1       9.549   9.529  23.884  1.00  0.00    -0.320 OA
BRANCH  32  33
HETATM   33  C4  UNL     1      10.692   8.820  24.286  1.00  0.00     0.182 C
BRANCH  33  34
HETATM   34  C2  UNL     1      10.743   8.715  25.792  1.00  0.00     0.002 C
HETATM   35  C1  UNL     1       9.734   7.695  26.288  1.00  0.00     0.011 C
HETATM   36  C3  UNL     1      12.118   8.166  26.198  1.00  0.00     0.011 C
ENDBRANCH  33  34
ENDBRANCH  32  33
ENDBRANCH  30  32
ENDBRANCH   1  30
TORSDOF 8
ENDMDL