MODEL 1
REMARK VINA RESULT: -7.903033618      0.000      0.000
REMARK  8 active torsions:
REMARK  status: ('A' for Active; 'I' for Inactive)
REMARK    1  A    between atoms: C2_2  and  C4_4
REMARK    2  A    between atoms: C4_4  and  C6_6
REMARK    3  A    between atoms: C6_6  and  O2_8
REMARK    4  A    between atoms: O2_8  and  C7_9
REMARK    5  A    between atoms: C8_10  and  O3_11
REMARK    6  A    between atoms: C19_24  and  C20_25
REMARK    7  A    between atoms: C20_25  and  O5_26
REMARK    8  A    between atoms: C22_29  and  O6_30
ROOT
HETATM    1  O5  UNL     1       8.387   7.321  23.615  1.00  0.00    -0.282 OA
HETATM    2  C21 UNL     1       8.942   7.708  24.795  1.00  0.00     0.228 C
HETATM    3  N1  UNL     1       9.388   8.038  25.788  1.00  0.00    -0.164 NA
ENDROOT
BRANCH   1   4
HETATM    4  C20 UNL     1       7.101   7.655  23.207  1.00  0.00     0.211 C
BRANCH   4   5
HETATM    5  C19 UNL     1       6.892   7.663  21.685  1.00  0.00     0.055 C
HETATM    6  C14 UNL     1       6.236   8.875  21.196  1.00  0.00    -0.059 C
HETATM    7  C13 UNL     1       5.215   8.879  20.391  1.00  0.00    -0.022 C
HETATM    8  C15 UNL     1       6.788  10.203  21.619  1.00  0.00     0.118 C
HETATM    9  C12 UNL     1       4.529   7.683  19.855  1.00  0.00     0.035 C
HETATM   10  C11 UNL     1       4.862   6.491  20.654  1.00  0.00     0.030 C
HETATM   11  C10 UNL     1       4.537   5.265  19.832  1.00  0.00     0.006 C
HETATM   12  C22 UNL     1       6.154   6.418  21.362  1.00  0.00     0.079 C
HETATM   13  C9  UNL     1       5.080   5.271  18.439  1.00  0.00     0.040 C
HETATM   14  C25 UNL     1       5.022   3.974  20.400  1.00  0.00    -0.011 C
HETATM   15  C8  UNL     1       5.546   3.854  18.133  1.00  0.00     0.148 C
HETATM   16  C7  UNL     1       4.805   3.065  19.175  1.00  0.00     0.169 C
HETATM   17  C24 UNL     1       6.462   3.993  20.803  1.00  0.00     0.015 C
HETATM   18  C26 UNL     1       4.184   3.459  21.527  1.00  0.00     0.018 C
HETATM   19  C23 UNL     1       7.102   5.347  20.770  1.00  0.00     0.040 C
HETATM   20  C16 UNL     1       8.218  10.183  21.152  1.00  0.00     0.153 C
HETATM   21  O4  UNL     1       8.789  11.286  21.001  1.00  0.00    -0.293 OA
HETATM   22  C17 UNL     1       8.830   8.883  20.910  1.00  0.00     0.048 C
HETATM   23  C18 UNL     1       8.278   7.711  21.132  1.00  0.00    -0.004 C
BRANCH  15  24
HETATM   24  O3  UNL     1       5.194   3.547  16.841  1.00  0.00    -0.393 OA
ATOM     25  H3  UNL     1       5.872   3.726  16.201  1.00  0.00     0.210 HD
ENDBRANCH  15  24
BRANCH  16  26
HETATM   26  O2  UNL     1       5.287   1.784  19.386  1.00  0.00    -0.312 OA
BRANCH  26  27
HETATM   27  C6  UNL     1       5.699   0.895  18.419  1.00  0.00     0.263 C
HETATM   28  O1  UNL     1       4.779   0.394  17.698  1.00  0.00    -0.265 OA
BRANCH  27  29
HETATM   29  C4  UNL     1       7.106   0.510  18.186  1.00  0.00     0.085 C
HETATM   30  C5  UNL     1       7.489   0.812  16.753  1.00  0.00     0.021 C
BRANCH  29  31
HETATM   31  C2  UNL     1       8.056   1.192  19.139  1.00  0.00    -0.010 C
HETATM   32  C1  UNL     1       9.497   0.870  18.814  1.00  0.00     0.010 C
HETATM   33  C3  UNL     1       7.747   0.924  20.571  1.00  0.00     0.010 C
ENDBRANCH  29  31
ENDBRANCH  27  29
ENDBRANCH  26  27
ENDBRANCH  16  26
BRANCH  12  34
HETATM   34  O6  UNL     1       5.906   5.800  22.653  1.00  0.00    -0.388 OA
ATOM     35  H6  UNL     1       5.459   6.441  23.194  1.00  0.00     0.210 HD
ENDBRANCH  12  34
ENDBRANCH   4   5
ENDBRANCH   1   4
TORSDOF 8
ENDMDL