MODEL 2
REMARK VINA RESULT: -8.072386002      2.269      3.896
REMARK  8 active torsions:
REMARK  status: ('A' for Active; 'I' for Inactive)
REMARK    1  A    between atoms: C2_2  and  C5_7
REMARK    2  A    between atoms: C3_3  and  C4_4
REMARK    3  A    between atoms: C4_4  and  O1_5
REMARK    4  A    between atoms: C5_7  and  O3_9
REMARK    5  A    between atoms: O3_9  and  C6_10
REMARK    6  A    between atoms: C6_10  and  C7_11
REMARK    7  A    between atoms: C7_11  and  C8_13
REMARK    8  A    between atoms: C23_29  and  O6_30
ROOT
HETATM    1  C8  UNL     1       5.835   6.789  22.392  1.00  0.00     0.074 C
HETATM    2  C9  UNL     1       4.724   7.572  22.878  1.00  0.00     0.013 C
HETATM    3  C10 UNL     1       3.358   7.051  22.536  1.00  0.00     0.002 C
HETATM    4  C11 UNL     1       3.237   5.790  21.876  1.00  0.00     0.011 C
HETATM    5  C12 UNL     1       4.468   4.900  21.625  1.00  0.00    -0.028 C
HETATM    6  C13 UNL     1       4.755   4.408  23.033  1.00  0.00     0.016 C
HETATM    7  C14 UNL     1       4.020   3.859  20.681  1.00  0.00     0.017 C
HETATM    8  C15 UNL     1       3.691   2.497  21.355  1.00  0.00     0.084 C
HETATM    9  C16 UNL     1       4.853   1.690  21.683  1.00  0.00     0.131 C
HETATM   10  O5  UNL     1       4.492   0.700  22.350  1.00  0.00    -0.298 OA
HETATM   11  C17 UNL     1       6.299   1.678  21.479  1.00  0.00     0.116 C
HETATM   12  C18 UNL     1       6.739   2.649  20.362  1.00  0.00    -0.031 C
HETATM   13  C19 UNL     1       7.332   3.866  20.864  1.00  0.00     0.003 C
HETATM   14  C20 UNL     1       6.866   5.230  20.837  1.00  0.00    -0.015 C
HETATM   15  C21 UNL     1       5.588   5.798  21.222  1.00  0.00    -0.008 C
HETATM   16  C22 UNL     1       5.039   6.699  20.123  1.00  0.00     0.021 C
HETATM   17  C23 UNL     1       5.712   2.598  19.328  1.00  0.00     0.153 A
HETATM   18  C24 UNL     1       5.569   3.763  18.478  1.00  0.00     0.174 A
HETATM   19  O7  UNL     1       6.130   4.394  17.590  1.00  0.00    -0.294 OA
HETATM   20  C25 UNL     1       4.531   3.484  19.398  1.00  0.00     0.111 A
ENDROOT
BRANCH   1  21
HETATM   21  C7  UNL     1       6.947   7.704  22.056  1.00  0.00     0.176 C
HETATM   22  O4  UNL     1       6.725   8.701  21.317  1.00  0.00    -0.291 OA
BRANCH  21  23
HETATM   23  C6  UNL     1       8.344   7.626  22.470  1.00  0.00     0.196 C
BRANCH  23  24
HETATM   24  O3  UNL     1       8.790   7.465  23.720  1.00  0.00    -0.284 OA
BRANCH  24  25
HETATM   25  C5  UNL     1       8.954   8.203  24.839  1.00  0.00     0.293 C
HETATM   26  O2  UNL     1       7.901   8.615  25.387  1.00  0.00    -0.259 OA
BRANCH  25  27
HETATM   27  C2  UNL     1      10.302   8.473  25.339  1.00  0.00     0.012 C
HETATM   28  C1  UNL     1      11.119   9.576  24.676  1.00  0.00     0.054 C
HETATM   29  C3  UNL     1      10.896   7.853  26.317  1.00  0.00     0.011 C
BRANCH  29  30
HETATM   30  C4  UNL     1      10.433   6.761  27.173  1.00  0.00     0.192 C
BRANCH  30  31
HETATM   31  O1  UNL     1       9.368   7.270  27.960  1.00  0.00    -0.397 OA
ATOM     32  H1  UNL     1       9.033   6.547  28.477  1.00  0.00     0.209 HD
ENDBRANCH  30  31
ENDBRANCH  29  30
ENDBRANCH  25  27
ENDBRANCH  24  25
ENDBRANCH  23  24
ENDBRANCH  21  23
ENDBRANCH   1  21
BRANCH  17  33
HETATM   33  O6  UNL     1       5.572   1.319  18.718  1.00  0.00    -0.377 OA
ATOM     34  H6  UNL     1       5.007   1.318  17.954  1.00  0.00     0.211 HD
ENDBRANCH  17  33
TORSDOF 8
ENDMDL