MODEL 3
REMARK VINA RESULT: -7.378834019      0.745      1.089
REMARK  9 active torsions:
REMARK  status: ('A' for Active; 'I' for Inactive)
REMARK    1  A    between atoms: C2_2  and  C4_4
REMARK    2  A    between atoms: C4_4  and  O2_6
REMARK    3  A    between atoms: O2_6  and  C5_7
REMARK    4  A    between atoms: C8_10  and  O3_11
REMARK    5  A    between atoms: O3_11  and  C9_12
REMARK       I    between atoms: C9_12  and  N1_14
REMARK    6  A    between atoms: N1_14  and  C10_16
REMARK    7  A    between atoms: C10_16  and  C11_17
REMARK    8  A    between atoms: C11_17  and  N2_18
REMARK    9  A    between atoms: C21_29  and  O6_30
ROOT
HETATM    1  C5  UNL     1       5.562   3.003  19.447  1.00  0.00     0.147 C
HETATM    2  C6  UNL     1       6.232   3.922  20.386  1.00  0.00     0.041 C
HETATM    3  C7  UNL     1       7.706   3.677  20.424  1.00  0.00     0.015 C
HETATM    4  C8  UNL     1       5.676   3.857  21.806  1.00  0.00     0.140 C
HETATM    5  C16 UNL     1       5.082   2.613  22.231  1.00  0.00     0.039 C
HETATM    6  C17 UNL     1       4.307   1.900  21.199  1.00  0.00     0.009 C
HETATM    7  C18 UNL     1       3.026   1.243  21.666  1.00  0.00    -0.017 C
HETATM    8  C19 UNL     1       3.445   0.115  22.626  1.00  0.00     0.018 C
HETATM    9  C20 UNL     1       2.100   2.120  22.426  1.00  0.00     0.018 C
HETATM   10  C21 UNL     1       2.297   0.546  20.565  1.00  0.00     0.126 C
HETATM   11  C22 UNL     1       2.306   1.220  19.237  1.00  0.00     0.033 C
HETATM   12  C23 UNL     1       3.736   1.528  18.853  1.00  0.00     0.014 C
HETATM   13  C24 UNL     1       4.191   2.595  19.910  1.00  0.00    -0.012 C
HETATM   14  C25 UNL     1       3.262   3.727  19.734  1.00  0.00     0.018 C
ENDROOT
BRANCH   4  15
HETATM   15  O3  UNL     1       4.902   5.017  22.091  1.00  0.00    -0.298 OA
BRANCH  15  16
HETATM   16  C9  UNL     1       5.400   6.215  22.499  1.00  0.00     0.364 C
HETATM   17  O4  UNL     1       4.531   7.125  22.692  1.00  0.00    -0.238 OA
HETATM   18  N1  UNL     1       6.741   6.563  22.733  1.00  0.00    -0.315 N
ATOM     19  H1  UNL     1       7.452   5.863  22.520  1.00  0.00     0.170 HD
BRANCH  18  20
HETATM   20  C10 UNL     1       7.182   7.803  23.240  1.00  0.00     0.086 C
BRANCH  20  21
HETATM   21  C11 UNL     1       8.623   8.164  23.147  1.00  0.00     0.171 C
BRANCH  21  22
HETATM   22  N2  UNL     1       9.145   8.491  24.460  1.00  0.00    -0.365 N
HETATM   23  C12 UNL     1      10.258   9.299  24.560  1.00  0.00     0.089 C
HETATM   24  C13 UNL     1      11.405   8.670  25.286  1.00  0.00     0.212 C
HETATM   25  O5  UNL     1      11.085   7.670  26.176  1.00  0.00    -0.381 OA
HETATM   26  C14 UNL     1       9.775   7.817  26.666  1.00  0.00     0.212 C
HETATM   27  C15 UNL     1       8.880   7.565  25.463  1.00  0.00     0.089 C
ENDBRANCH  21  22
ENDBRANCH  20  21
ENDBRANCH  18  20
ENDBRANCH  15  16
ENDBRANCH   4  15
BRANCH   1  28
HETATM   28  O2  UNL     1       6.253   1.803  19.167  1.00  0.00    -0.311 OA
BRANCH  28  29
HETATM   29  C4  UNL     1       6.950   1.572  18.013  1.00  0.00     0.288 C
HETATM   30  O1  UNL     1       6.586   2.099  16.963  1.00  0.00    -0.260 OA
BRANCH  29  31
HETATM   31  C2  UNL     1       8.157   0.665  18.113  1.00  0.00     0.004 C
HETATM   32  C1  UNL     1       8.875   0.696  19.131  1.00  0.00     0.024 C
HETATM   33  C3  UNL     1       8.266  -0.172  16.857  1.00  0.00     0.054 C
ENDBRANCH  29  31
ENDBRANCH  28  29
ENDBRANCH   1  28
BRANCH  10  34
HETATM   34  O6  UNL     1       2.745  -0.768  20.377  1.00  0.00    -0.395 OA
ATOM     35  H6  UNL     1       2.919  -1.211  21.199  1.00  0.00     0.210 HD
ENDBRANCH  10  34
TORSDOF 9
ENDMDL