MODEL 2
REMARK VINA RESULT: -7.684805822      4.743      7.716
REMARK  7 active torsions:
REMARK  status: ('A' for Active; 'I' for Inactive)
REMARK    1  A    between atoms: C4_4  and  O1_5
REMARK    2  A    between atoms: C6_9  and  O3_10
REMARK    3  A    between atoms: O3_10  and  C7_11
REMARK    4  A    between atoms: C7_11  and  C8_12
REMARK    5  A    between atoms: C8_12  and  N1_13
REMARK    6  A    between atoms: N1_13  and  C10_15
REMARK    7  A    between atoms: C18_23  and  O4_24
ROOT
HETATM    1  C1  UNL     1       9.660   8.835  12.522  1.00  0.00     0.010 C
HETATM    2  C2  UNL     1       8.255   9.016  13.050  1.00  0.00    -0.008 C
HETATM    3  C3  UNL     1       7.437   7.745  12.703  1.00  0.00     0.048 C
HETATM    4  C4  UNL     1       7.429   7.037  14.024  1.00  0.00     0.124 A
HETATM    5  C5  UNL     1       6.636   7.060  15.175  1.00  0.00     0.203 A
HETATM    6  O2  UNL     1       5.252   7.152  15.360  1.00  0.00    -0.349 OA
HETATM    7  C6  UNL     1       4.903   7.424  16.695  1.00  0.00     0.272 C
HETATM    8  C16 UNL     1       5.092   8.770  17.194  1.00  0.00     0.048 C
HETATM    9  C17 UNL     1       5.929   8.852  18.482  1.00  0.00     0.049 C
HETATM   10  C18 UNL     1       4.702   9.128  19.317  1.00  0.00     0.120 C
HETATM   11  C19 UNL     1       3.923   9.227  18.041  1.00  0.00     0.049 C
HETATM   12  C20 UNL     1       5.611   9.833  16.254  1.00  0.00     0.105 C
HETATM   13  C21 UNL     1       4.923  11.194  16.508  1.00  0.00     0.050 C
HETATM   14  C22 UNL     1       7.057  10.160  16.406  1.00  0.00     0.042 C
HETATM   15  C23 UNL     1       7.779  10.486  15.086  1.00  0.00     0.011 C
HETATM   16  C24 UNL     1       8.229   9.104  14.570  1.00  0.00     0.033 C
HETATM   17  C25 UNL     1       7.020   8.328  14.785  1.00  0.00     0.162 A
HETATM   18  O5  UNL     1       5.989   9.088  14.157  1.00  0.00    -0.222 OA
HETATM   19  O6  UNL     1       5.151   9.542  14.996  1.00  0.00    -0.228 OA
ENDROOT
BRANCH   7  20
HETATM   20  O3  UNL     1       5.589   6.465  17.419  1.00  0.00    -0.359 OA
BRANCH  20  21
HETATM   21  C7  UNL     1       4.942   5.316  17.719  1.00  0.00     0.190 C
BRANCH  21  22
HETATM   22  C8  UNL     1       5.499   4.019  17.251  1.00  0.00     0.143 C
BRANCH  22  23
HETATM   23  N1  UNL     1       6.035   3.301  18.349  1.00  0.00    -0.410 N
HETATM   24  C9  UNL     1       5.986   3.883  19.625  1.00  0.00     0.143 C
BRANCH  23  25
HETATM   25  C10 UNL     1       6.146   1.904  18.202  1.00  0.00     0.078 C
HETATM   26  C11 UNL     1       6.922   1.469  16.993  1.00  0.00     0.025 C
HETATM   27  C12 UNL     1       7.894   0.350  17.291  1.00  0.00     0.002 C
HETATM   28  C13 UNL     1       8.823   0.715  18.420  1.00  0.00     0.000 C
HETATM   29  C14 UNL     1       8.046   1.063  19.645  1.00  0.00     0.002 C
HETATM   30  C15 UNL     1       6.581   1.170  19.431  1.00  0.00     0.025 C
ENDBRANCH  23  25
ENDBRANCH  22  23
ENDBRANCH  21  22
ENDBRANCH  20  21
ENDBRANCH   7  20
BRANCH   4  31
HETATM   31  O1  UNL     1       8.777   6.600  14.223  1.00  0.00    -0.384 OA
ATOM     32  H1  UNL     1       8.705   5.722  14.578  1.00  0.00     0.210 HD
ENDBRANCH   4  31
BRANCH  10  33
HETATM   33  O4  UNL     1       4.669  10.313  20.014  1.00  0.00    -0.396 OA
ATOM     34  H4  UNL     1       4.317  11.072  19.564  1.00  0.00     0.210 HD
ENDBRANCH  10  33
TORSDOF 7
ENDMDL