MODEL 4
REMARK VINA RESULT: -7.364531479      4.497      6.877
REMARK  8 active torsions:
REMARK  status: ('A' for Active; 'I' for Inactive)
REMARK    1  A    between atoms: C2_2  and  C3_3
REMARK    2  A    between atoms: C3_3  and  C4_4
REMARK    3  A    between atoms: C8_10  and  C9_11
REMARK    4  A    between atoms: C11_13  and  C12_14
REMARK    5  A    between atoms: C12_14  and  S1_15
REMARK    6  A    between atoms: S1_15  and  C13_16
REMARK    7  A    between atoms: C13_16  and  N2_20
REMARK    8  A    between atoms: N2_20  and  N3_22
ROOT
HETATM    1  C4  UNL     1       6.603   1.696  18.026  1.00  0.00     0.042 C
HETATM    2  C5  UNL     1       6.165   1.434  19.411  1.00  0.00    -0.013 C
HETATM    3  C6  UNL     1       6.256   2.276  20.428  1.00  0.00     0.079 C
HETATM    4  C7  UNL     1       6.808   3.620  20.357  1.00  0.00     0.283 C
HETATM    5  O1  UNL     1       7.696   3.964  21.215  1.00  0.00    -0.260 OA
HETATM    6  O2  UNL     1       6.446   4.580  19.418  1.00  0.00    -0.298 OA
HETATM    7  C8  UNL     1       5.079   4.907  19.120  1.00  0.00     0.252 C
HETATM    8  C16 UNL     1       4.920   5.192  17.671  1.00  0.00     0.252 C
HETATM    9  O3  UNL     1       5.856   5.807  17.097  1.00  0.00    -0.270 OA
HETATM   10  N4  UNL     1       3.796   4.821  16.907  1.00  0.00    -0.352 N
ATOM     11  H4  UNL     1       3.638   5.275  16.008  1.00  0.00     0.163 HD
HETATM   12  C17 UNL     1       2.842   3.798  17.365  1.00  0.00     0.104 C
HETATM   13  C18 UNL     1       1.653   3.729  16.433  1.00  0.00     0.034 C
HETATM   14  C19 UNL     1       3.484   2.429  17.396  1.00  0.00     0.193 C
HETATM   15  O4  UNL     1       4.760   2.562  16.875  1.00  0.00    -0.378 OA
HETATM   16  C20 UNL     1       5.541   1.425  17.009  1.00  0.00     0.060 C
HETATM   17  C21 UNL     1       4.731   0.195  17.310  1.00  0.00     0.046 C
HETATM   18  C22 UNL     1       6.217   1.205  15.669  1.00  0.00     0.046 C
ENDROOT
BRANCH   7  19
HETATM   19  C9  UNL     1       4.785   6.152  19.898  1.00  0.00    -0.049 C
HETATM   20  C10 UNL     1       3.346   6.448  20.187  1.00  0.00     0.046 C
HETATM   21  C11 UNL     1       5.737   6.950  20.309  1.00  0.00    -0.011 C
BRANCH  21  22
HETATM   22  C12 UNL     1       5.431   8.181  21.079  1.00  0.00     0.110 C
BRANCH  22  23
HETATM   23  S1  UNL     1       6.540   8.423  22.460  1.00  0.00    -0.089 SA
BRANCH  23  24
HETATM   24  C13 UNL     1       6.231   7.173  23.693  1.00  0.00     0.156 C
HETATM   25  N1  UNL     1       7.037   6.947  24.675  1.00  0.00    -0.374 N
HETATM   26  C14 UNL     1       8.263   7.680  24.872  1.00  0.00     0.148 C
ATOM     27  H1  UNL     1       6.795   6.216  25.343  1.00  0.00     0.161 HD
BRANCH  24  28
HETATM   28  N2  UNL     1       5.056   6.379  23.613  1.00  0.00    -0.282 N
HETATM   29  C15 UNL     1       3.787   6.945  23.992  1.00  0.00     0.179 C
BRANCH  28  30
HETATM   30  N3  UNL     1       5.106   5.042  23.167  1.00  0.00    -0.341 N
ATOM     31  H32 UNL     1       5.912   4.728  22.626  1.00  0.00     0.177 HD
ATOM     32  H31 UNL     1       4.353   4.386  23.377  1.00  0.00     0.177 HD
ENDBRANCH  28  30
ENDBRANCH  24  28
ENDBRANCH  23  24
ENDBRANCH  22  23
ENDBRANCH  21  22
ENDBRANCH   7  19
BRANCH   1  33
HETATM   33  C3  UNL     1       7.793   0.786  17.697  1.00  0.00     0.011 C
BRANCH  33  34
HETATM   34  C2  UNL     1       8.864   0.945  18.786  1.00  0.00    -0.004 C
HETATM   35  C1  UNL     1      10.082   0.198  18.292  1.00  0.00     0.005 C
ENDBRANCH  33  34
ENDBRANCH   1  33
TORSDOF 8
ENDMDL