MODEL 2
REMARK VINA RESULT: -6.881242492      2.472      7.441
REMARK  7 active torsions:
REMARK  status: ('A' for Active; 'I' for Inactive)
REMARK    1  A    between atoms: C9_9  and  O1_10
REMARK    2  A    between atoms: O1_10  and  C10_11
REMARK    3  A    between atoms: C13_15  and  C14_16
REMARK    4  A    between atoms: C14_16  and  C17_19
REMARK    5  A    between atoms: C18_22  and  O5_23
REMARK    6  A    between atoms: C23_30  and  O7_31
REMARK    7  A    between atoms: O7_31  and  C24_32
ROOT
HETATM    1  C1  UNL     1       4.332   1.134  20.435  1.00  0.00     0.017 C
HETATM    2  C2  UNL     1       4.785   2.347  20.134  1.00  0.00    -0.055 C
HETATM    3  C3  UNL     1       3.972   3.555  20.426  1.00  0.00     0.046 C
HETATM    4  C4  UNL     1       4.275   4.706  19.501  1.00  0.00    -0.026 C
HETATM    5  C5  UNL     1       3.942   4.278  18.096  1.00  0.00     0.016 C
HETATM    6  C6  UNL     1       3.316   5.798  19.873  1.00  0.00     0.011 C
HETATM    7  C7  UNL     1       3.632   7.127  19.240  1.00  0.00     0.011 C
HETATM    8  C8  UNL     1       4.322   7.965  20.242  1.00  0.00     0.058 C
HETATM    9  C9  UNL     1       4.363   9.430  19.992  1.00  0.00     0.139 C
HETATM   10  C12 UNL     1       5.622   9.915  20.708  1.00  0.00     0.042 C
HETATM   11  C13 UNL     1       6.617   8.736  20.595  1.00  0.00     0.049 C
HETATM   12  C18 UNL     1       5.849   7.650  20.112  1.00  0.00     0.129 C
HETATM   13  C19 UNL     1       5.904   6.265  20.524  1.00  0.00     0.171 C
HETATM   14  O6  UNL     1       6.107   5.985  21.662  1.00  0.00    -0.294 OA
HETATM   15  C20 UNL     1       5.723   5.060  19.666  1.00  0.00     0.098 C
HETATM   16  C21 UNL     1       6.594   3.919  20.008  1.00  0.00    -0.044 C
HETATM   17  C22 UNL     1       7.728   3.978  20.671  1.00  0.00     0.018 C
HETATM   18  C23 UNL     1       6.105   2.567  19.500  1.00  0.00     0.189 C
ENDROOT
BRANCH  11  19
HETATM   19  C14 UNL     1       7.447   8.805  21.814  1.00  0.00     0.048 C
HETATM   20  C15 UNL     1       8.427   7.691  22.037  1.00  0.00     0.027 C
HETATM   21  C16 UNL     1       6.626   9.062  23.080  1.00  0.00     0.027 C
BRANCH  19  22
HETATM   22  C17 UNL     1       8.271  10.040  21.660  1.00  0.00     0.181 C
HETATM   23  O3  UNL     1       8.425  10.803  22.663  1.00  0.00    -0.647 OA
HETATM   24  O4  UNL     1       8.896  10.428  20.484  1.00  0.00    -0.647 OA
ENDBRANCH  19  22
ENDBRANCH  11  19
BRANCH  12  25
HETATM   25  O5  UNL     1       5.966   7.703  18.667  1.00  0.00    -0.381 OA
ATOM     26  H5  UNL     1       6.666   8.342  18.600  1.00  0.00     0.211 HD
ENDBRANCH  12  25
BRANCH   9  27
HETATM   27  O1  UNL     1       4.383   9.744  18.614  1.00  0.00    -0.316 OA
BRANCH  27  28
HETATM   28  C10 UNL     1       4.606  10.997  18.102  1.00  0.00     0.255 C
HETATM   29  C11 UNL     1       3.731  12.172  18.375  1.00  0.00     0.126 C
HETATM   30  O2  UNL     1       5.606  11.160  17.359  1.00  0.00    -0.266 OA
ENDBRANCH  27  28
ENDBRANCH   9  27
BRANCH  18  31
HETATM   31  O7  UNL     1       7.038   1.563  19.858  1.00  0.00    -0.307 OA
BRANCH  31  32
HETATM   32  C24 UNL     1       7.700   0.910  18.828  1.00  0.00     0.255 C
HETATM   33  C25 UNL     1       9.174   0.694  18.849  1.00  0.00     0.126 C
HETATM   34  O8  UNL     1       7.068   0.474  17.831  1.00  0.00    -0.266 OA
ENDBRANCH  31  32
ENDBRANCH  18  31
TORSDOF 7
ENDMDL