MODEL 1
REMARK VINA RESULT: -8.768172280      0.000      0.000
REMARK  8 active torsions:
REMARK  status: ('A' for Active; 'I' for Inactive)
REMARK    1  A    between atoms: C9_10  and  O2_11
REMARK    2  A    between atoms: C11_14  and  O3_15
REMARK    3  A    between atoms: C13_18  and  C14_19
REMARK    4  A    between atoms: C14_19  and  O5_21
REMARK    5  A    between atoms: O5_21  and  C15_22
REMARK    6  A    between atoms: C22_29  and  C23_30
REMARK    7  A    between atoms: C23_30  and  O6_31
REMARK    8  A    between atoms: O6_31  and  C24_32
ROOT
HETATM    1  C1  UNL     1       5.573   1.726  21.874  1.00  0.00     0.015 C
HETATM    2  C2  UNL     1       5.446   2.881  21.243  1.00  0.00    -0.081 C
HETATM    3  C3  UNL     1       4.079   3.484  21.050  1.00  0.00     0.034 C
HETATM    4  C4  UNL     1       4.086   4.968  21.372  1.00  0.00     0.012 C
HETATM    5  C5  UNL     1       5.457   5.327  21.819  1.00  0.00     0.026 C
HETATM    6  C6  UNL     1       6.376   5.016  20.628  1.00  0.00     0.137 C
HETATM    7  O1  UNL     1       7.451   5.839  20.900  1.00  0.00    -0.378 OA
HETATM    8  C7  UNL     1       6.953   7.053  21.324  1.00  0.00     0.137 C
HETATM    9  C8  UNL     1       7.889   7.796  22.269  1.00  0.00     0.048 C
HETATM   10  C9  UNL     1       8.393   9.065  21.679  1.00  0.00     0.127 C
HETATM   11  C10 UNL     1       8.268  10.285  22.507  1.00  0.00     0.064 C
HETATM   12  C11 UNL     1       9.018  10.397  23.753  1.00  0.00     0.121 C
HETATM   13  C12 UNL     1       9.792   9.219  24.233  1.00  0.00     0.046 C
HETATM   14  C13 UNL     1       9.036   8.382  25.248  1.00  0.00     0.088 C
HETATM   15  C17 UNL     1       8.101   7.405  24.668  1.00  0.00     0.020 C
HETATM   16  C18 UNL     1       7.214   7.901  23.577  1.00  0.00    -0.004 C
HETATM   17  C19 UNL     1       5.995   6.966  23.531  1.00  0.00     0.017 C
HETATM   18  C20 UNL     1       5.684   6.784  22.077  1.00  0.00    -0.011 C
HETATM   19  C21 UNL     1       4.588   7.673  21.582  1.00  0.00     0.018 C
HETATM   20  C22 UNL     1       6.672   3.554  20.740  1.00  0.00     0.067 C
ENDROOT
BRANCH  14  21
HETATM   21  C14 UNL     1      10.074   7.629  26.012  1.00  0.00     0.263 C
HETATM   22  O4  UNL     1       9.747   6.649  26.729  1.00  0.00    -0.265 OA
BRANCH  21  23
HETATM   23  O5  UNL     1      11.417   7.972  25.968  1.00  0.00    -0.322 OA
BRANCH  23  24
HETATM   24  C15 UNL     1      12.257   7.546  27.019  1.00  0.00     0.174 C
HETATM   25  C16 UNL     1      13.711   7.484  26.612  1.00  0.00     0.034 C
ENDBRANCH  23  24
ENDBRANCH  21  23
ENDBRANCH  14  21
BRANCH  12  26
HETATM   26  O3  UNL     1       9.855  11.544  23.738  1.00  0.00    -0.395 OA
ATOM     27  H3  UNL     1      10.725  11.323  23.426  1.00  0.00     0.210 HD
ENDBRANCH  12  26
BRANCH  10  28
HETATM   28  O2  UNL     1       9.682   8.926  21.107  1.00  0.00    -0.395 OA
ATOM     29  H2  UNL     1      10.237   9.681  21.268  1.00  0.00     0.210 HD
ENDBRANCH  10  28
BRANCH  20  30
HETATM   30  C23 UNL     1       7.161   2.946  19.450  1.00  0.00     0.190 C
BRANCH  30  31
HETATM   31  O6  UNL     1       8.157   1.986  19.802  1.00  0.00    -0.321 OA
BRANCH  31  32
HETATM   32  C24 UNL     1       8.452   0.957  18.921  1.00  0.00     0.254 C
HETATM   33  C25 UNL     1       9.846   0.502  18.657  1.00  0.00     0.126 C
HETATM   34  O7  UNL     1       7.487   0.404  18.334  1.00  0.00    -0.266 OA
ENDBRANCH  31  32
ENDBRANCH  30  31
ENDBRANCH  20  30
TORSDOF 8
ENDMDL