MODEL 2
REMARK VINA RESULT: -6.978015052      1.693      2.227
REMARK  9 active torsions:
REMARK  status: ('A' for Active; 'I' for Inactive)
REMARK    1  A    between atoms: C11_11  and  O1_12
REMARK    2  A    between atoms: C13_15  and  O2_16
REMARK    3  A    between atoms: C14_18  and  C15_19
REMARK    4  A    between atoms: C15_19  and  O4_21
REMARK    5  A    between atoms: O4_21  and  C16_22
REMARK    6  A    between atoms: C19_25  and  C20_26
REMARK    7  A    between atoms: C23_30  and  C24_31
REMARK    8  A    between atoms: C24_31  and  O6_32
REMARK    9  A    between atoms: O6_32  and  C25_33
ROOT
HETATM    1  C1  UNL     1       3.982   5.817  18.815  1.00  0.00     0.015 C
HETATM    2  C2  UNL     1       3.799   6.176  20.058  1.00  0.00    -0.080 C
HETATM    3  C3  UNL     1       2.547   6.824  20.478  1.00  0.00     0.044 C
HETATM    4  C4  UNL     1       2.326   6.556  21.977  1.00  0.00    -0.031 C
HETATM    5  C5  UNL     1       0.794   6.496  22.076  1.00  0.00     0.016 C
HETATM    6  C6  UNL     1       2.784   5.172  22.347  1.00  0.00     0.011 C
HETATM    7  C7  UNL     1       4.211   4.886  22.009  1.00  0.00     0.014 C
HETATM    8  C8  UNL     1       4.795   5.983  21.166  1.00  0.00     0.044 C
HETATM    9  C9  UNL     1       5.173   7.246  21.823  1.00  0.00    -0.050 C
HETATM   10  C10 UNL     1       4.345   7.634  23.032  1.00  0.00    -0.040 C
HETATM   11  C11 UNL     1       4.793   7.014  24.316  1.00  0.00     0.151 C
HETATM   12  C12 UNL     1       6.257   6.836  24.405  1.00  0.00     0.076 C
HETATM   13  C13 UNL     1       7.111   7.530  23.411  1.00  0.00     0.092 C
HETATM   14  C14 UNL     1       7.382   8.973  23.677  1.00  0.00     0.144 C
HETATM   15  C18 UNL     1       7.496   9.637  22.343  1.00  0.00     0.002 C
HETATM   16  C19 UNL     1       7.086   8.813  21.426  1.00  0.00    -0.008 C
HETATM   17  C21 UNL     1       6.642   7.494  22.011  1.00  0.00     0.042 C
HETATM   18  C22 UNL     1       7.517   6.485  21.249  1.00  0.00     0.029 C
HETATM   19  C23 UNL     1       2.896   7.679  22.759  1.00  0.00     0.050 C
ENDROOT
BRANCH  14  20
HETATM   20  C15 UNL     1       8.713   9.198  24.346  1.00  0.00     0.269 C
HETATM   21  O3  UNL     1       9.619   9.889  23.811  1.00  0.00    -0.264 OA
BRANCH  20  22
HETATM   22  O4  UNL     1       8.994   8.646  25.588  1.00  0.00    -0.321 OA
BRANCH  22  23
HETATM   23  C16 UNL     1      10.340   8.324  25.934  1.00  0.00     0.174 C
HETATM   24  C17 UNL     1      10.382   7.165  26.907  1.00  0.00     0.034 C
ENDBRANCH  22  23
ENDBRANCH  20  22
ENDBRANCH  14  20
BRANCH  13  25
HETATM   25  O2  UNL     1       8.381   6.895  23.515  1.00  0.00    -0.387 OA
ATOM     26  H2  UNL     1       8.639   7.012  24.421  1.00  0.00     0.210 HD
ENDBRANCH  13  25
BRANCH  16  27
HETATM   27  C20 UNL     1       7.072   9.169  19.991  1.00  0.00     0.266 C
HETATM   28  O5  UNL     1       8.104   9.250  19.313  1.00  0.00    -0.302 OA
ENDBRANCH  16  27
BRANCH  11  29
HETATM   29  O1  UNL     1       4.435   7.805  25.436  1.00  0.00    -0.391 OA
ATOM     30  H1  UNL     1       4.540   7.330  26.252  1.00  0.00     0.210 HD
ENDBRANCH  11  29
BRANCH  19  31
HETATM   31  C24 UNL     1       2.150   8.062  24.013  1.00  0.00     0.188 C
BRANCH  31  32
HETATM   32  O6  UNL     1       1.947   9.458  24.132  1.00  0.00    -0.321 OA
BRANCH  32  33
HETATM   33  C25 UNL     1       0.668   9.947  23.950  1.00  0.00     0.254 C
HETATM   34  C26 UNL     1      -0.549   9.188  24.292  1.00  0.00     0.126 C
HETATM   35  O7  UNL     1       0.543  11.097  23.467  1.00  0.00    -0.266 OA
ENDBRANCH  32  33
ENDBRANCH  31  32
ENDBRANCH  19  31
TORSDOF 9
ENDMDL