MODEL 4
REMARK VINA RESULT: -7.323535674      2.260      3.188
REMARK  6 active torsions:
REMARK  status: ('A' for Active; 'I' for Inactive)
REMARK    1  A    between atoms: C2_2  and  C3_3
REMARK    2  A    between atoms: C2_2  and  C10_19
REMARK    3  A    between atoms: C3_3  and  O2_5
REMARK    4  A    between atoms: O2_5  and  N1_6
REMARK    5  A    between atoms: C11_20  and  C12_21
REMARK       I    between atoms: C12_21  and  N4_23
REMARK    6  A    between atoms: N4_23  and  C14_25
ROOT
HETATM    1  C1  UNL     1       4.819   7.111  20.297  1.00  0.00     0.026 C
HETATM    2  C2  UNL     1       4.771   6.008  21.409  1.00  0.00     0.120 C
ENDROOT
BRANCH   2   3
HETATM    3  C3  UNL     1       4.805   6.789  22.703  1.00  0.00     0.289 C
HETATM    4  O1  UNL     1       4.244   6.321  23.706  1.00  0.00    -0.262 OA
BRANCH   3   5
HETATM    5  O2  UNL     1       5.457   8.008  22.779  1.00  0.00    -0.197 OA
BRANCH   5   6
HETATM    6  N1  UNL     1       6.358   8.189  23.792  1.00  0.00    -0.243 N
HETATM    7  C4  UNL     1       7.601   8.426  23.608  1.00  0.00     0.134 C
HETATM    8  N2  UNL     1       8.512   8.610  24.683  1.00  0.00    -0.295 N
HETATM    9  C6  UNL     1       8.384   8.570  22.388  1.00  0.00     0.095 C
HETATM   10  C5  UNL     1       9.836   8.723  24.182  1.00  0.00     0.322 C
ATOM     11  H2  UNL     1       8.253   8.654  25.668  1.00  0.00     0.172 HD
HETATM   12  O3  UNL     1      10.894   8.895  24.885  1.00  0.00    -0.247 OA
HETATM   13  N3  UNL     1       9.762   8.609  22.773  1.00  0.00    -0.326 N
ATOM     14  H3  UNL     1      10.558   8.564  22.138  1.00  0.00     0.165 HD
HETATM   15  C7  UNL     1       8.135   7.595  21.267  1.00  0.00     0.039 C
HETATM   16  C9  UNL     1       7.947   9.673  21.449  1.00  0.00     0.039 C
HETATM   17  C8  UNL     1       8.337   8.766  20.297  1.00  0.00     0.006 C
ATOM     18  H1  UNL     1       6.019   8.130  24.752  1.00  0.00     0.196 HD
ENDBRANCH   5   6
ENDBRANCH   3   5
ENDBRANCH   2   3
BRANCH   2  19
HETATM   19  C10 UNL     1       3.412   5.416  21.316  1.00  0.00     0.013 C
HETATM   20  C11 UNL     1       3.129   4.148  21.501  1.00  0.00     0.021 C
HETATM   21  C17 UNL     1       1.701   3.696  21.415  1.00  0.00     0.054 C
HETATM   22  C18 UNL     1       0.676   4.768  21.370  1.00  0.00    -0.037 C
HETATM   23  C19 UNL     1      -0.616   4.170  20.815  1.00  0.00     0.015 C
HETATM   24  C20 UNL     1       0.325   5.360  22.714  1.00  0.00     0.015 C
HETATM   25  C21 UNL     1       1.064   5.886  20.448  1.00  0.00     0.092 C
HETATM   26  C22 UNL     1       2.343   6.401  20.963  1.00  0.00     0.158 C
HETATM   27  O5  UNL     1       2.556   7.638  21.111  1.00  0.00    -0.293 OA
BRANCH  20  28
HETATM   28  C12 UNL     1       4.145   3.151  21.834  1.00  0.00     0.250 C
HETATM   29  O4  UNL     1       4.047   2.650  23.027  1.00  0.00    -0.268 OA
HETATM   30  N4  UNL     1       5.197   2.634  21.126  1.00  0.00    -0.349 N
HETATM   31  C13 UNL     1       5.980   1.549  21.829  1.00  0.00     0.153 C
BRANCH  30  32
HETATM   32  C14 UNL     1       5.746   2.932  19.865  1.00  0.00     0.079 C
HETATM   33  C15 UNL     1       6.079   1.581  19.150  1.00  0.00     0.032 C
HETATM   34  C16 UNL     1       7.172   3.522  20.094  1.00  0.00     0.032 C
ENDBRANCH  30  32
ENDBRANCH  20  28
ENDBRANCH   2  19
TORSDOF 6
ENDMDL