MODEL 3
REMARK VINA RESULT: -7.537469858      1.210      1.399
REMARK  8 active torsions:
REMARK  status: ('A' for Active; 'I' for Inactive)
REMARK    1  A    between atoms: C2_2  and  C3_4
REMARK    2  A    between atoms: C3_4  and  C4_5
REMARK    3  A    between atoms: C4_5  and  O2_6
REMARK    4  A    between atoms: C7_10  and  C8_11
REMARK    5  A    between atoms: C9_12  and  C10_13
REMARK    6  A    between atoms: C22_26  and  O4_27
REMARK    7  A    between atoms: C23_29  and  O5_30
REMARK    8  A    between atoms: O5_30  and  C24_31
ROOT
HETATM    1  C10 UNL     1       6.083   4.465  19.755  1.00  0.00     0.050 C
HETATM    2  C11 UNL     1       5.507   4.301  18.422  1.00  0.00     0.049 C
HETATM    3  C12 UNL     1       4.231   5.091  18.219  1.00  0.00     0.177 C
HETATM    4  O3  UNL     1       3.989   5.224  16.849  1.00  0.00    -0.387 OA
HETATM    5  C13 UNL     1       3.920   4.048  16.161  1.00  0.00     0.195 C
HETATM    6  C14 UNL     1       4.458   2.859  16.874  1.00  0.00     0.003 C
HETATM    7  C15 UNL     1       5.220   2.910  17.956  1.00  0.00    -0.070 C
HETATM    8  C16 UNL     1       5.657   1.643  18.518  1.00  0.00     0.025 C
HETATM    9  C17 UNL     1       5.853   0.475  17.660  1.00  0.00     0.036 C
HETATM   10  C18 UNL     1       7.164   0.434  16.943  1.00  0.00    -0.030 C
HETATM   11  C19 UNL     1       8.225   0.571  17.725  1.00  0.00    -0.030 C
HETATM   12  C20 UNL     1       7.930   0.743  19.175  1.00  0.00     0.035 C
HETATM   13  C21 UNL     1       6.967   1.909  19.248  1.00  0.00     0.029 C
HETATM   14  C22 UNL     1       6.651   2.242  20.657  1.00  0.00     0.153 C
HETATM   15  C23 UNL     1       5.739   3.432  20.796  1.00  0.00     0.169 C
ENDROOT
BRANCH   1  16
HETATM   16  C9  UNL     1       5.729   5.816  20.286  1.00  0.00    -0.022 C
HETATM   17  C8  UNL     1       5.922   6.159  21.547  1.00  0.00    -0.023 C
BRANCH  17  18
HETATM   18  C7  UNL     1       5.627   7.431  22.195  1.00  0.00     0.043 C
HETATM   19  C4  UNL     1       6.553   7.601  23.418  1.00  0.00     0.071 C
HETATM   20  C5  UNL     1       5.329   7.209  24.251  1.00  0.00     0.040 C
HETATM   21  C6  UNL     1       4.420   7.531  23.065  1.00  0.00     0.014 C
BRANCH  19  22
HETATM   22  C3  UNL     1       6.991   9.009  23.653  1.00  0.00     0.116 C
BRANCH  22  23
HETATM   23  C2  UNL     1       8.198   9.385  22.902  1.00  0.00     0.126 C
HETATM   24  C1  UNL     1       8.131   9.779  21.470  1.00  0.00     0.091 C
HETATM   25  O1  UNL     1       9.305   9.387  23.430  1.00  0.00    -0.298 OA
ENDBRANCH  22  23
ENDBRANCH  19  22
BRANCH  19  26
HETATM   26  O2  UNL     1       7.583   6.693  23.461  1.00  0.00    -0.389 OA
ATOM     27  H2  UNL     1       8.250   6.908  24.103  1.00  0.00     0.210 HD
ENDBRANCH  19  26
ENDBRANCH  17  18
ENDBRANCH   1  16
BRANCH  15  28
HETATM   28  O5  UNL     1       4.385   3.131  20.895  1.00  0.00    -0.313 OA
BRANCH  28  29
HETATM   29  C24 UNL     1       3.603   3.388  22.027  1.00  0.00     0.255 C
HETATM   30  C25 UNL     1       2.546   4.427  22.053  1.00  0.00     0.126 C
HETATM   31  O6  UNL     1       3.870   2.660  23.036  1.00  0.00    -0.266 OA
ENDBRANCH  28  29
ENDBRANCH  15  28
BRANCH  14  32
HETATM   32  O4  UNL     1       6.052   1.139  21.248  1.00  0.00    -0.393 OA
ATOM     33  H4  UNL     1       6.632   0.804  21.922  1.00  0.00     0.210 HD
ENDBRANCH  14  32
TORSDOF 8
ENDMDL