MODEL 4
REMARK VINA RESULT: -5.887933365      3.271      5.521
REMARK  7 active torsions:
REMARK  status: ('A' for Active; 'I' for Inactive)
REMARK    1  A    between atoms: N1_2  and  C3_4
REMARK    2  A    between atoms: C3_4  and  C4_5
REMARK    3  A    between atoms: C4_5  and  N2_6
REMARK    4  A    between atoms: N2_6  and  C6_8
REMARK    5  A    between atoms: C6_8  and  C7_9
REMARK    6  A    between atoms: C13_15  and  O1_16
REMARK    7  A    between atoms: C15_19  and  O2_20
ROOT
HETATM    1  C7  UNL     1       6.085   5.625  21.490  1.00  0.00     0.031 C
HETATM    2  C8  UNL     1       6.645   4.771  20.316  1.00  0.00     0.013 C
HETATM    3  C9  UNL     1       5.842   3.508  20.561  1.00  0.00     0.008 C
HETATM    4  C10 UNL     1       5.889   2.534  19.467  1.00  0.00    -0.017 C
HETATM    5  C11 UNL     1       6.022   3.076  18.067  1.00  0.00     0.018 C
HETATM    6  C12 UNL     1       7.172   1.688  19.639  1.00  0.00     0.018 C
HETATM    7  C13 UNL     1       4.768   1.552  19.536  1.00  0.00     0.128 C
HETATM    8  C14 UNL     1       3.433   2.112  19.821  1.00  0.00     0.065 C
HETATM    9  C15 UNL     1       3.380   3.588  20.063  1.00  0.00     0.130 C
HETATM   10  C16 UNL     1       4.483   4.035  20.968  1.00  0.00     0.002 C
HETATM   11  C17 UNL     1       4.180   3.343  22.285  1.00  0.00     0.019 C
HETATM   12  C18 UNL     1       4.618   5.526  21.104  1.00  0.00     0.040 C
HETATM   13  C19 UNL     1       4.342   6.268  19.821  1.00  0.00     0.030 C
HETATM   14  C20 UNL     1       2.981   6.869  19.690  1.00  0.00     0.046 C
HETATM   15  C21 UNL     1       3.051   8.074  18.728  1.00  0.00     0.038 C
HETATM   16  C22 UNL     1       1.713   8.728  19.064  1.00  0.00     0.176 C
HETATM   17  O3  UNL     1       1.617   8.558  20.471  1.00  0.00    -0.355 OA
HETATM   18  C23 UNL     1       2.490   7.539  20.892  1.00  0.00     0.054 C
HETATM   19  C24 UNL     1       2.873   7.162  22.092  1.00  0.00     0.083 C
HETATM   20  C25 UNL     1       3.817   6.035  22.226  1.00  0.00     0.161 C
HETATM   21  O4  UNL     1       3.855   5.562  23.415  1.00  0.00    -0.292 OA
ENDROOT
BRANCH   1  22
HETATM   22  C6  UNL     1       6.713   6.938  21.537  1.00  0.00     0.277 C
BRANCH  22  23
HETATM   23  N2  UNL     1       7.223   7.417  22.792  1.00  0.00     0.086 N
HETATM   24  C5  UNL     1       6.310   8.339  23.444  1.00  0.00     0.310 C
BRANCH  23  25
HETATM   25  C4  UNL     1       8.494   8.119  22.667  1.00  0.00     0.302 C
BRANCH  25  26
HETATM   26  C3  UNL     1       8.760   8.781  24.009  1.00  0.00     0.301 C
BRANCH  26  27
HETATM   27  N1  UNL     1       9.724   8.037  24.798  1.00  0.00     0.081 N
HETATM   28  C1  UNL     1      10.829   8.878  25.189  1.00  0.00     0.309 C
HETATM   29  C2  UNL     1       9.062   7.581  26.005  1.00  0.00     0.309 C
ENDBRANCH  26  27
ENDBRANCH  25  26
ENDBRANCH  23  25
ENDBRANCH  22  23
ENDBRANCH   1  22
BRANCH   9  30
HETATM   30  O2  UNL     1       2.171   3.799  20.782  1.00  0.00    -0.395 OA
ATOM     31  H2  UNL     1       2.243   4.680  21.129  1.00  0.00     0.210 HD
ENDBRANCH   9  30
BRANCH   7  32
HETATM   32  O1  UNL     1       4.777   0.855  18.303  1.00  0.00    -0.395 OA
ATOM     33  H1  UNL     1       5.447   1.267  17.770  1.00  0.00     0.210 HD
ENDBRANCH   7  32
TORSDOF 7
ENDMDL