MODEL 4
REMARK VINA RESULT: -7.316727608      1.576      1.946
REMARK  7 active torsions:
REMARK  status: ('A' for Active; 'I' for Inactive)
REMARK    1  A    between atoms: O1_2  and  C2_3
REMARK    2  A    between atoms: C2_3  and  C3_5
REMARK    3  A    between atoms: C3_5  and  O3_6
REMARK    4  A    between atoms: C6_10  and  N1_11
REMARK       I    between atoms: N1_11  and  C7_13
REMARK    5  A    between atoms: C7_13  and  C8_15
REMARK    6  A    between atoms: C8_15  and  C9_16
REMARK    7  A    between atoms: C14_21  and  O5_22
ROOT
HETATM    1  C9  UNL     1       5.389   2.113  18.789  1.00  0.00    -0.009 A
HETATM    2  C10 UNL     1       6.638   1.561  18.587  1.00  0.00    -0.042 A
HETATM    3  C11 UNL     1       6.847   0.638  17.561  1.00  0.00    -0.044 A
HETATM    4  C12 UNL     1       5.828   0.246  16.720  1.00  0.00    -0.041 A
HETATM    5  C13 UNL     1       4.584   0.795  16.923  1.00  0.00    -0.016 A
HETATM    6  C14 UNL     1       4.383   1.715  17.947  1.00  0.00     0.082 A
HETATM    7  C16 UNL     1       3.666   0.221  15.908  1.00  0.00     0.061 C
HETATM    8  C17 UNL     1       4.622  -0.076  14.774  1.00  0.00     0.101 C
HETATM    9  C18 UNL     1       4.078  -1.073  13.858  1.00  0.00     0.064 C
HETATM   10  N2  UNL     1       3.646  -1.857  13.127  1.00  0.00    -0.197 NA
HETATM   11  C19 UNL     1       5.779  -0.707  15.563  1.00  0.00     0.059 C
HETATM   12  C20 UNL     1       8.272   0.196  17.558  1.00  0.00     0.040 C
HETATM   13  C21 UNL     1       8.641   0.454  19.013  1.00  0.00     0.009 C
HETATM   14  C22 UNL     1       7.931   1.754  19.273  1.00  0.00     0.040 C
ENDROOT
BRANCH   6  15
HETATM   15  O5  UNL     1       3.128   2.254  18.133  1.00  0.00    -0.355 OA
HETATM   16  C15 UNL     1       2.739   3.325  17.287  1.00  0.00     0.210 C
ENDBRANCH   6  15
BRANCH   1  17
HETATM   17  C8  UNL     1       5.105   3.078  19.852  1.00  0.00     0.144 C
BRANCH  17  18
HETATM   18  C7  UNL     1       5.729   4.399  19.645  1.00  0.00     0.222 C
HETATM   19  N1  UNL     1       6.323   5.166  20.672  1.00  0.00    -0.356 N
ATOM     20  H1  UNL     1       6.322   4.789  21.619  1.00  0.00     0.162 HD
HETATM   21  O4  UNL     1       5.740   4.882  18.491  1.00  0.00    -0.273 OA
BRANCH  19  22
HETATM   22  C6  UNL     1       6.924   6.443  20.452  1.00  0.00     0.084 C
HETATM   23  C5  UNL     1       5.935   7.586  20.665  1.00  0.00     0.028 C
HETATM   24  C4  UNL     1       6.476   8.772  19.894  1.00  0.00     0.050 C
HETATM   25  C3  UNL     1       7.899   8.994  20.325  1.00  0.00     0.145 C
HETATM   26  C24 UNL     1       8.274   8.225  21.568  1.00  0.00     0.050 C
HETATM   27  C23 UNL     1       8.080   6.733  21.387  1.00  0.00     0.028 C
BRANCH  25  28
HETATM   28  C2  UNL     1       8.043  10.447  20.674  1.00  0.00     0.293 C
HETATM   29  O2  UNL     1       8.036  10.832  21.880  1.00  0.00    -0.262 OA
BRANCH  28  30
HETATM   30  O1  UNL     1       8.187  11.417  19.699  1.00  0.00    -0.324 OA
HETATM   31  C1  UNL     1       7.978  12.799  20.021  1.00  0.00     0.213 C
ENDBRANCH  28  30
ENDBRANCH  25  28
BRANCH  25  32
HETATM   32  O3  UNL     1       8.742   8.684  19.255  1.00  0.00    -0.380 OA
ATOM     33  H3  UNL     1       9.203   7.873  19.437  1.00  0.00     0.211 HD
ENDBRANCH  25  32
ENDBRANCH  19  22
ENDBRANCH  17  18
ENDBRANCH   1  17
TORSDOF 7
ENDMDL