MODEL 1
REMARK VINA RESULT: -7.929974111      0.000      0.000
REMARK  6 active torsions:
REMARK  status: ('A' for Active; 'I' for Inactive)
REMARK    1  A    between atoms: C3_3  and  C4_4
REMARK    2  A    between atoms: C4_4  and  O2_6
REMARK    3  A    between atoms: O2_6  and  C5_7
REMARK    4  A    between atoms: C15_17  and  C16_18
REMARK    5  A    between atoms: C19_24  and  C20_25
REMARK    6  A    between atoms: C20_25  and  N2_26
ROOT
HETATM    1  C1  UNL     1       4.940   3.307  18.467  1.00  0.00     0.011 C
HETATM    2  C2  UNL     1       6.314   3.002  18.916  1.00  0.00     0.003 C
HETATM    3  C3  UNL     1       6.439   1.490  19.038  1.00  0.00     0.089 C
HETATM    4  C13 UNL     1       6.911   1.196  20.435  1.00  0.00     0.015 C
HETATM    5  C14 UNL     1       6.400   2.412  21.184  1.00  0.00     0.010 C
HETATM    6  C15 UNL     1       6.770   3.516  20.214  1.00  0.00     0.032 C
ENDROOT
BRANCH   6   7
HETATM    7  C16 UNL     1       6.305   4.855  20.658  1.00  0.00     0.184 C
HETATM    8  N1  UNL     1       5.201   4.766  21.599  1.00  0.00    -0.340 N
HETATM    9  C17 UNL     1       4.641   5.998  22.038  1.00  0.00     0.221 C
ATOM     10  H1  UNL     1       4.845   3.867  21.927  1.00  0.00     0.164 HD
HETATM   11  O3  UNL     1       3.507   6.071  22.583  1.00  0.00    -0.273 OA
HETATM   12  C18 UNL     1       5.469   7.215  21.818  1.00  0.00     0.129 C
HETATM   13  C19 UNL     1       6.917   6.780  21.984  1.00  0.00     0.115 C
HETATM   14  N3  UNL     1       7.313   5.799  21.016  1.00  0.00    -0.395 N
ATOM     15  H3  UNL     1       8.249   5.778  20.613  1.00  0.00     0.155 HD
BRANCH  13  16
HETATM   16  C20 UNL     1       7.848   7.929  22.113  1.00  0.00     0.297 C
BRANCH  16  17
HETATM   17  N2  UNL     1       8.654   7.875  23.288  1.00  0.00     0.094 N
HETATM   18  C21 UNL     1       9.334   9.142  23.526  1.00  0.00     0.298 C
HETATM   19  C22 UNL     1      10.504   8.858  24.435  1.00  0.00     0.198 C
HETATM   20  O4  UNL     1      10.136   7.865  25.344  1.00  0.00    -0.388 OA
HETATM   21  C23 UNL     1       8.791   7.998  25.656  1.00  0.00     0.198 C
HETATM   22  C24 UNL     1       7.957   7.460  24.489  1.00  0.00     0.298 C
ENDBRANCH  16  17
ENDBRANCH  13  16
ENDBRANCH   6   7
BRANCH   3  23
HETATM   23  C4  UNL     1       7.379   1.011  17.999  1.00  0.00     0.263 C
HETATM   24  O1  UNL     1       8.517   0.599  18.325  1.00  0.00    -0.265 OA
BRANCH  23  25
HETATM   25  O2  UNL     1       7.059   0.996  16.653  1.00  0.00    -0.316 OA
BRANCH  25  26
HETATM   26  C5  UNL     1       5.786   0.645  16.151  1.00  0.00     0.133 C
HETATM   27  C6  UNL     1       5.916  -0.740  15.559  1.00  0.00     0.037 C
HETATM   28  C7  UNL     1       5.002  -0.954  14.382  1.00  0.00    -0.011 C
HETATM   29  C8  UNL     1       3.686  -0.241  14.724  1.00  0.00     0.014 C
HETATM   30  C11 UNL     1       5.187   0.075  13.295  1.00  0.00     0.014 C
HETATM   31  C9  UNL     1       4.339   1.010  14.152  1.00  0.00    -0.041 C
HETATM   32  C10 UNL     1       3.450   1.942  13.426  1.00  0.00     0.015 C
HETATM   33  C12 UNL     1       5.274   1.649  15.146  1.00  0.00     0.041 C
ENDBRANCH  25  26
ENDBRANCH  23  25
ENDBRANCH   3  23
TORSDOF 6
ENDMDL