MODEL 4
REMARK VINA RESULT: -6.537832228      4.265      7.550
REMARK  7 active torsions:
REMARK  status: ('A' for Active; 'I' for Inactive)
REMARK    1  A    between atoms: O1_2  and  C2_3
REMARK    2  A    between atoms: C5_8  and  C6_9
REMARK    3  A    between atoms: C6_9  and  N2_11
REMARK    4  A    between atoms: N2_11  and  C8_12
REMARK    5  A    between atoms: N2_11  and  C21_29
REMARK       I    between atoms: N3_18  and  C14_19
REMARK    6  A    between atoms: C14_19  and  O3_21
REMARK    7  A    between atoms: O3_21  and  C15_22
ROOT
HETATM    1  C8  UNL     1       4.629   6.978  22.947  1.00  0.00     0.229 C
HETATM    2  C9  UNL     1       4.820   5.765  22.118  1.00  0.00     0.042 C
HETATM    3  C10 UNL     1       6.071   5.887  21.252  1.00  0.00     0.008 C
HETATM    4  C11 UNL     1       5.727   6.988  20.236  1.00  0.00     0.031 C
HETATM    5  C12 UNL     1       5.880   8.174  21.116  1.00  0.00     0.091 C
HETATM    6  C13 UNL     1       4.904   8.266  22.264  1.00  0.00     0.061 C
HETATM    7  N3  UNL     1       7.195   7.935  21.686  1.00  0.00    -0.323 N
HETATM    8  C14 UNL     1       8.204   8.914  21.870  1.00  0.00     0.363 C
HETATM    9  O2  UNL     1       7.999  10.100  21.524  1.00  0.00    -0.238 OA
HETATM   10  C20 UNL     1       7.225   6.519  21.996  1.00  0.00     0.133 C
ENDROOT
BRANCH   1  11
HETATM   11  N2  UNL     1       3.323   7.061  23.627  1.00  0.00     0.134 N
BRANCH  11  12
HETATM   12  C6  UNL     1       2.239   7.417  22.865  1.00  0.00     0.259 C
HETATM   13  C7  UNL     1       1.782   6.946  21.560  1.00  0.00     0.048 C
BRANCH  12  14
HETATM   14  C5  UNL     1       1.048   6.819  23.724  1.00  0.00     0.027 A
HETATM   15  C2  UNL     1       0.954   5.645  24.374  1.00  0.00     0.150 A
HETATM   16  N1  UNL     1      -0.216   5.639  25.087  1.00  0.00    -0.346 N
HETATM   17  C3  UNL     1      -0.868   6.789  24.898  1.00  0.00     0.091 A
ATOM     18  H1  UNL     1      -0.540   4.871  25.675  1.00  0.00     0.167 HD
HETATM   19  C4  UNL     1      -0.080   7.540  24.038  1.00  0.00     0.030 A
BRANCH  15  20
HETATM   20  O1  UNL     1       1.839   4.575  24.364  1.00  0.00    -0.340 OA
HETATM   21  C1  UNL     1       1.795   3.606  23.356  1.00  0.00     0.211 C
ENDBRANCH  15  20
ENDBRANCH  12  14
ENDBRANCH  11  12
BRANCH  11  22
HETATM   22  C21 UNL     1       3.656   8.226  24.547  1.00  0.00     0.446 A
HETATM   23  C22 UNL     1       3.108   8.526  25.795  1.00  0.00     0.300 A
HETATM   24  N4  UNL     1       2.771   9.341  24.600  1.00  0.00    -0.038 N
ATOM     25  H42 UNL     1       2.805  10.327  24.342  1.00  0.00     0.279 HD
ATOM     26  H41 UNL     1       1.920   9.636  24.120  1.00  0.00     0.279 HD
ENDBRANCH  11  22
ENDBRANCH   1  11
BRANCH   8  27
HETATM   27  O3  UNL     1       9.463   8.630  22.432  1.00  0.00    -0.296 OA
BRANCH  27  28
HETATM   28  C15 UNL     1       9.687   8.957  23.808  1.00  0.00     0.157 C
HETATM   29  C16 UNL     1       9.034   7.918  24.707  1.00  0.00     0.037 C
HETATM   30  C17 UNL     1       9.613   7.963  26.098  1.00  0.00     0.029 C
HETATM   31  C18 UNL     1      11.096   8.218  26.120  1.00  0.00     0.167 C
HETATM   32  O4  UNL     1      11.597   7.975  24.831  1.00  0.00    -0.389 OA
HETATM   33  C19 UNL     1      11.168   9.082  24.063  1.00  0.00     0.200 C
ENDBRANCH  27  28
ENDBRANCH   8  27
TORSDOF 7
ENDMDL