MODEL 5
REMARK VINA RESULT: -5.833807327      1.937      6.492
REMARK  9 active torsions:
REMARK  status: ('A' for Active; 'I' for Inactive)
REMARK    1  A    between atoms: C2_2  and  C3_3
REMARK    2  A    between atoms: C2_2  and  C4_5
REMARK    3  A    between atoms: C9_11  and  C11_13
REMARK    4  A    between atoms: C11_13  and  C12_14
REMARK    5  A    between atoms: C22_25  and  C23_26
REMARK    6  A    between atoms: C23_26  and  O4_27
REMARK    7  A    between atoms: C23_26  and  C24_29
REMARK    8  A    between atoms: C24_29  and  O5_30
REMARK    9  A    between atoms: C25_32  and  O6_33
ROOT
HETATM    1  C12 UNL     1       4.816   6.305  21.204  1.00  0.00     0.056 C
HETATM    2  C13 UNL     1       4.341   7.149  22.271  1.00  0.00     0.133 C
HETATM    3  O3  UNL     1       3.326   7.044  23.088  1.00  0.00    -0.385 OA
HETATM    4  C14 UNL     1       3.669   8.152  23.978  1.00  0.00     0.168 C
HETATM    5  C15 UNL     1       5.076   7.642  24.422  1.00  0.00     0.034 C
HETATM    6  C16 UNL     1       5.571   7.038  23.207  1.00  0.00     0.028 C
HETATM    7  C17 UNL     1       6.552   7.656  22.292  1.00  0.00    -0.002 C
HETATM    8  C18 UNL     1       7.930   7.053  22.665  1.00  0.00     0.019 C
HETATM    9  C19 UNL     1       6.730   9.121  22.434  1.00  0.00     0.017 C
HETATM   10  C20 UNL     1       7.482   9.591  21.162  1.00  0.00     0.028 C
HETATM   11  C21 UNL     1       6.369   9.446  20.142  1.00  0.00    -0.018 C
HETATM   12  C22 UNL     1       5.718   8.306  20.064  1.00  0.00    -0.018 C
HETATM   13  C25 UNL     1       6.109   7.174  20.907  1.00  0.00     0.097 C
ENDROOT
BRANCH   1  14
HETATM   14  C11 UNL     1       5.212   4.917  21.396  1.00  0.00     0.027 C
BRANCH  14  15
HETATM   15  C9  UNL     1       4.677   3.816  20.714  1.00  0.00     0.010 A
HETATM   16  C4  UNL     1       5.185   3.684  19.130  1.00  0.00    -0.030 A
HETATM   17  C5  UNL     1       6.032   2.571  19.324  1.00  0.00     0.051 A
HETATM   18  C6  UNL     1       6.886   1.448  19.523  1.00  0.00     0.067 A
HETATM   19  O2  UNL     1       5.740   2.643  20.340  1.00  0.00    -0.349 OA
HETATM   20  C7  UNL     1       6.427   1.528  21.281  1.00  0.00     0.040 A
HETATM   21  C8  UNL     1       5.592   2.562  21.268  1.00  0.00     0.141 A
HETATM   22  C10 UNL     1       3.348   3.264  20.736  1.00  0.00     0.023 C
BRANCH  16  23
HETATM   23  C2  UNL     1       4.985   4.362  17.986  1.00  0.00     0.075 C
HETATM   24  C1  UNL     1       5.409   3.697  16.643  1.00  0.00     0.022 C
BRANCH  23  25
HETATM   25  C3  UNL     1       3.569   4.882  17.697  1.00  0.00     0.239 C
HETATM   26  O1  UNL     1       3.123   5.698  17.101  1.00  0.00    -0.306 OA
ENDBRANCH  23  25
ENDBRANCH  16  23
ENDBRANCH  14  15
ENDBRANCH   1  14
BRANCH  13  27
HETATM   27  O6  UNL     1       7.058   6.412  20.264  1.00  0.00    -0.384 OA
ATOM     28  H6  UNL     1       7.229   5.618  20.757  1.00  0.00     0.211 HD
ENDBRANCH  13  27
BRANCH  12  29
HETATM   29  C23 UNL     1       4.619   8.266  19.026  1.00  0.00     0.173 C
BRANCH  29  30
HETATM   30  O4  UNL     1       3.538   9.065  19.436  1.00  0.00    -0.389 OA
ATOM     31  H4  UNL     1       3.461   9.825  18.872  1.00  0.00     0.210 HD
ENDBRANCH  29  30
BRANCH  29  32
HETATM   32  C24 UNL     1       5.047   8.703  17.665  1.00  0.00     0.200 C
BRANCH  32  33
HETATM   33  O5  UNL     1       5.439   7.665  16.856  1.00  0.00    -0.398 OA
ATOM     34  H5  UNL     1       6.090   7.100  17.255  1.00  0.00     0.209 HD
ENDBRANCH  32  33
ENDBRANCH  29  32
ENDBRANCH  12  29
TORSDOF 9
ENDMDL