MODEL 1
REMARK VINA RESULT: -7.536867128      0.000      0.000
REMARK  6 active torsions:
REMARK  status: ('A' for Active; 'I' for Inactive)
REMARK    1  A    between atoms: C2_2  and  C4_4
REMARK    2  A    between atoms: C4_4  and  C5_5
REMARK    3  A    between atoms: C5_5  and  O1_6
REMARK    4  A    between atoms: C5_5  and  C6_8
REMARK    5  A    between atoms: C8_11  and  C9_12
REMARK       I    between atoms: N2_15  and  C11_17
REMARK       I    between atoms: C11_17  and  N3_19
REMARK    6  A    between atoms: C16_27  and  C17_28
ROOT
HETATM    1  C9  UNL     1       5.893   7.011  23.924  1.00  0.00     0.140 C
HETATM    2  C10 UNL     1       6.179   8.191  22.583  1.00  0.00     0.119 C
HETATM    3  N1  UNL     1       6.328   8.968  21.694  1.00  0.00    -0.190 NA
HETATM    4  N2  UNL     1       7.075   7.260  24.421  1.00  0.00    -0.298 N
ATOM      5  H2  UNL     1       7.113   6.923  25.382  1.00  0.00     0.171 HD
HETATM    6  C11 UNL     1       8.292   7.826  24.089  1.00  0.00     0.325 C
HETATM    7  O2  UNL     1       8.601   8.315  22.972  1.00  0.00    -0.247 OA
HETATM    8  N3  UNL     1       9.378   7.913  25.039  1.00  0.00    -0.311 N
HETATM    9  C12 UNL     1       9.277   7.488  26.406  1.00  0.00     0.156 C
HETATM   10  C13 UNL     1      10.725   7.592  26.880  1.00  0.00     0.190 C
HETATM   11  O3  UNL     1      11.331   8.467  26.019  1.00  0.00    -0.370 OA
HETATM   12  C14 UNL     1      10.691   8.409  24.794  1.00  0.00     0.297 C
ENDROOT
BRANCH   1  13
HETATM   13  C8  UNL     1       4.763   6.772  23.448  1.00  0.00     0.108 C
HETATM   14  S1  UNL     1       3.317   7.890  24.031  1.00  0.00    -0.095 SA
HETATM   15  C7  UNL     1       2.001   6.806  23.537  1.00  0.00     0.164 C
HETATM   16  C6  UNL     1       1.342   5.950  24.627  1.00  0.00     0.071 C
HETATM   17  N4  UNL     1       2.736   5.602  23.109  1.00  0.00    -0.327 N
HETATM   18  C16 UNL     1       1.563   4.857  23.614  1.00  0.00     0.102 C
HETATM   19  C15 UNL     1       3.988   5.945  22.549  1.00  0.00     0.264 C
HETATM   20  O4  UNL     1       4.395   5.576  21.391  1.00  0.00    -0.267 OA
BRANCH  16  21
HETATM   21  C5  UNL     1      -0.015   6.439  24.925  1.00  0.00     0.127 C
BRANCH  21  22
HETATM   22  C4  UNL     1       0.171   7.795  25.640  1.00  0.00     0.036 C
BRANCH  22  23
HETATM   23  C2  UNL     1      -0.817   8.816  25.180  1.00  0.00    -0.020 C
HETATM   24  C1  UNL     1      -0.100   9.717  24.197  1.00  0.00     0.009 C
HETATM   25  C3  UNL     1      -2.058   8.248  24.577  1.00  0.00     0.009 C
ENDBRANCH  22  23
ENDBRANCH  21  22
BRANCH  21  26
HETATM   26  O1  UNL     1      -0.669   5.661  25.900  1.00  0.00    -0.395 OA
ATOM     27  H1  UNL     1      -1.504   6.103  25.994  1.00  0.00     0.210 HD
ENDBRANCH  21  26
ENDBRANCH  16  21
BRANCH  18  28
HETATM   28  C17 UNL     1       0.550   4.573  22.589  1.00  0.00     0.009 C
HETATM   29  C18 UNL     1       1.269   3.819  21.451  1.00  0.00     0.007 C
HETATM   30  C19 UNL     1       0.181   2.859  20.943  1.00  0.00     0.000 C
HETATM   31  C20 UNL     1      -0.217   2.264  22.290  1.00  0.00     0.000 C
HETATM   32  C21 UNL     1      -0.439   3.547  23.104  1.00  0.00     0.007 C
ENDBRANCH  18  28
ENDBRANCH   1  13
TORSDOF 6
ENDMDL