MODEL 1
REMARK VINA RESULT: -6.641649818      0.000      0.000
REMARK  8 active torsions:
REMARK  status: ('A' for Active; 'I' for Inactive)
REMARK    1  A    between atoms: C6_6  and  O1_7
REMARK    2  A    between atoms: O1_7  and  C7_8
REMARK       I    between atoms: C7_8  and  N1_10
REMARK    3  A    between atoms: N1_10  and  C8_12
REMARK    4  A    between atoms: C8_12  and  C9_13
REMARK    5  A    between atoms: C9_13  and  C10_14
REMARK    6  A    between atoms: C10_14  and  C11_15
REMARK       I    between atoms: C11_15  and  N2_17
REMARK       I    between atoms: N3_20  and  C14_21
REMARK    7  A    between atoms: C14_21  and  O5_23
REMARK    8  A    between atoms: O5_23  and  C15_24
ROOT
HETATM    1  C9  UNL     1      -0.507   5.599  23.019  1.00  0.00     0.029 C
ENDROOT
BRANCH   1   2
HETATM    2  C8  UNL     1       0.439   4.497  23.398  1.00  0.00     0.125 C
BRANCH   2   3
HETATM    3  N1  UNL     1       1.234   4.142  22.256  1.00  0.00    -0.337 N
HETATM    4  C7  UNL     1       2.499   3.539  22.422  1.00  0.00     0.362 C
HETATM    5  O2  UNL     1       3.042   3.254  23.503  1.00  0.00    -0.238 OA
ATOM      6  H1  UNL     1       0.882   4.328  21.317  1.00  0.00     0.164 HD
BRANCH   4   7
HETATM    7  O1  UNL     1       3.255   3.210  21.281  1.00  0.00    -0.278 OA
BRANCH   7   8
HETATM    8  C6  UNL     1       4.668   3.218  21.316  1.00  0.00     0.227 C
HETATM    9  C5  UNL     1       5.277   3.785  20.095  1.00  0.00     0.054 C
HETATM   10  C4  UNL     1       6.607   3.263  19.689  1.00  0.00     0.014 C
HETATM   11  C2  UNL     1       6.595   1.752  19.780  1.00  0.00    -0.032 C
HETATM   12  C1  UNL     1       5.484   1.252  18.889  1.00  0.00     0.016 C
HETATM   13  C3  UNL     1       7.886   1.119  19.383  1.00  0.00     0.016 C
HETATM   14  C21 UNL     1       6.331   1.440  21.238  1.00  0.00     0.125 C
HETATM   15  N4  UNL     1       5.054   1.876  21.650  1.00  0.00    -0.396 N
ATOM     16  H4  UNL     1       4.427   1.259  22.166  1.00  0.00     0.155 HD
ENDBRANCH   7   8
ENDBRANCH   4   7
ENDBRANCH   2   3
ENDBRANCH   1   2
BRANCH   1  17
HETATM   17  C10 UNL     1       0.212   6.914  22.793  1.00  0.00     0.104 C
BRANCH  17  18
HETATM   18  C11 UNL     1       0.820   7.323  24.081  1.00  0.00     0.219 C
HETATM   19  O3  UNL     1       0.093   7.570  25.090  1.00  0.00    -0.273 OA
HETATM   20  N2  UNL     1       2.237   7.429  24.155  1.00  0.00    -0.349 N
HETATM   21  C12 UNL     1       2.894   7.829  25.409  1.00  0.00     0.145 C
HETATM   22  C20 UNL     1       3.020   7.141  22.987  1.00  0.00     0.145 C
HETATM   23  C13 UNL     1       4.134   8.628  25.008  1.00  0.00     0.148 C
HETATM   24  N3  UNL     1       4.967   7.824  24.150  1.00  0.00    -0.325 N
HETATM   25  C14 UNL     1       6.347   8.104  24.028  1.00  0.00     0.363 C
HETATM   26  C19 UNL     1       4.417   6.717  23.397  1.00  0.00     0.148 C
HETATM   27  O4  UNL     1       6.832   9.053  24.672  1.00  0.00    -0.238 OA
BRANCH  25  28
HETATM   28  O5  UNL     1       7.197   7.361  23.215  1.00  0.00    -0.294 OA
BRANCH  28  29
HETATM   29  C15 UNL     1       7.605   7.749  21.938  1.00  0.00     0.061 C
HETATM   30  C16 UNL     1       8.987   8.363  21.905  1.00  0.00     0.046 C
HETATM   31  C17 UNL     1       7.648   6.496  21.067  1.00  0.00     0.046 C
HETATM   32  C18 UNL     1       6.608   8.683  21.271  1.00  0.00     0.046 C
ENDBRANCH  28  29
ENDBRANCH  25  28
ENDBRANCH  17  18
ENDBRANCH   1  17
TORSDOF 8
ENDMDL