MODEL 3
REMARK VINA RESULT: -6.619192384      2.817      3.625
REMARK  7 active torsions:
REMARK  status: ('A' for Active; 'I' for Inactive)
REMARK       I    between atoms: N1_2  and  C3_4
REMARK    1  A    between atoms: C3_4  and  C4_6
REMARK    2  A    between atoms: C4_6  and  C5_7
REMARK    3  A    between atoms: C5_7  and  C6_8
REMARK    4  A    between atoms: C6_8  and  O3_10
REMARK    5  A    between atoms: O3_10  and  C7_11
REMARK    6  A    between atoms: C17_21  and  O4_22
REMARK    7  A    between atoms: C20_31  and  C21_32
ROOT
HETATM    1  C7  UNL     1      13.951  -9.423  21.448  1.00  0.00     0.137 C
HETATM    2  C8  UNL     1      14.676 -10.122  20.269  1.00  0.00     0.038 C
HETATM    3  C9  UNL     1      14.091 -11.500  20.149  1.00  0.00    -0.004 C
HETATM    4  C10 UNL     1      14.867 -12.601  20.836  1.00  0.00     0.013 C
HETATM    5  C11 UNL     1      13.994 -13.276  21.833  1.00  0.00     0.024 C
HETATM    6  C12 UNL     1      14.135 -12.984  23.259  1.00  0.00     0.015 C
HETATM    7  C13 UNL     1      12.864 -12.264  23.747  1.00  0.00     0.020 C
HETATM    8  C14 UNL     1      12.959 -10.758  23.434  1.00  0.00     0.015 C
HETATM    9  C15 UNL     1      13.718 -10.677  22.219  1.00  0.00     0.023 C
HETATM   10  C16 UNL     1      12.905 -11.393  21.120  1.00  0.00     0.034 C
HETATM   11  C17 UNL     1      12.573 -12.774  21.507  1.00  0.00     0.094 C
HETATM   12  C18 UNL     1      11.888 -12.938  22.835  1.00  0.00     0.098 C
HETATM   13  N2  UNL     1      11.733 -14.329  23.093  1.00  0.00    -0.352 N
ATOM     14  H2  UNL     1      12.373 -14.949  23.588  1.00  0.00     0.163 HD
HETATM   15  C19 UNL     1      10.466 -14.663  22.494  1.00  0.00     0.169 C
HETATM   16  S1  UNL     1       9.965 -16.203  22.300  1.00  0.00    -0.041 SA
HETATM   17  N3  UNL     1       9.800 -13.461  22.138  1.00  0.00    -0.350 N
ATOM     18  H3  UNL     1       9.008 -13.363  21.503  1.00  0.00     0.163 HD
HETATM   19  C20 UNL     1      10.480 -12.391  22.867  1.00  0.00     0.216 C
ENDROOT
BRANCH   1  20
HETATM   20  O3  UNL     1      12.741  -8.862  21.063  1.00  0.00    -0.316 OA
BRANCH  20  21
HETATM   21  C6  UNL     1      12.365  -7.574  21.497  1.00  0.00     0.259 C
HETATM   22  O2  UNL     1      11.473  -7.022  20.831  1.00  0.00    -0.265 OA
BRANCH  21  23
HETATM   23  C5  UNL     1      13.069  -7.057  22.668  1.00  0.00     0.120 C
BRANCH  23  24
HETATM   24  C4  UNL     1      13.344  -5.598  22.680  1.00  0.00     0.112 C
BRANCH  24  25
HETATM   25  C3  UNL     1      12.772  -4.980  23.897  1.00  0.00     0.219 C
HETATM   26  N1  UNL     1      13.551  -4.052  24.670  1.00  0.00    -0.361 N
HETATM   27  C1  UNL     1      14.895  -3.742  24.230  1.00  0.00     0.152 C
HETATM   28  C2  UNL     1      12.997  -3.442  25.862  1.00  0.00     0.152 C
HETATM   29  O1  UNL     1      11.612  -5.275  24.240  1.00  0.00    -0.273 OA
ENDBRANCH  24  25
ENDBRANCH  23  24
ENDBRANCH  21  23
ENDBRANCH  20  21
ENDBRANCH   1  20
BRANCH  11  30
HETATM   30  O4  UNL     1      12.000 -13.469  20.486  1.00  0.00    -0.386 OA
ATOM     31  H4  UNL     1      12.463 -13.352  19.665  1.00  0.00     0.210 HD
ENDBRANCH  11  30
BRANCH  19  32
HETATM   32  C21 UNL     1       9.937 -12.414  24.241  1.00  0.00     0.199 C
HETATM   33  O5  UNL     1       8.915 -11.737  24.502  1.00  0.00    -0.646 OA
HETATM   34  O6  UNL     1      10.478 -13.140  25.282  1.00  0.00    -0.646 OA
ENDBRANCH  19  32
TORSDOF 7
ENDMDL