MODEL 2
REMARK VINA RESULT: -6.921794027      3.767      5.488
REMARK  10 active torsions:
REMARK  status: ('A' for Active; 'I' for Inactive)
REMARK    1  A    between atoms: O1_2  and  C2_3
REMARK    2  A    between atoms: C3_4  and  O2_5
REMARK    3  A    between atoms: C4_7  and  C5_8
REMARK    4  A    between atoms: C5_8  and  O3_9
REMARK    5  A    between atoms: N1_11  and  C6_12
REMARK    6  A    between atoms: C6_12  and  O4_13
REMARK    7  A    between atoms: C6_12  and  C7_15
REMARK    8  A    between atoms: C7_15  and  N2_16
REMARK       I    between atoms: N2_16  and  C8_18
REMARK    9  A    between atoms: C15_26  and  N3_27
REMARK       I    between atoms: N3_27  and  C16_28
REMARK   10  A    between atoms: C16_28  and  C17_30
ROOT
HETATM    1  C2  UNL     1      13.632  -7.738  19.451  1.00  0.00     0.215 C
HETATM    2  C3  UNL     1      12.453  -6.943  19.898  1.00  0.00     0.201 C
HETATM    3  C4  UNL     1      12.616  -6.240  21.198  1.00  0.00     0.046 C
HETATM    4  N1  UNL     1      13.442  -5.028  21.142  1.00  0.00    -0.327 N
HETATM    5  C10 UNL     1      14.258  -4.743  20.041  1.00  0.00     0.102 C
HETATM    6  C11 UNL     1      15.185  -3.559  20.069  1.00  0.00     0.026 C
HETATM    7  C12 UNL     1      15.829  -3.746  18.655  1.00  0.00     0.003 C
HETATM    8  C13 UNL     1      15.764  -5.233  18.392  1.00  0.00     0.014 C
HETATM    9  C14 UNL     1      15.271  -5.806  19.748  1.00  0.00     0.072 C
HETATM   10  C15 UNL     1      14.974  -7.209  19.754  1.00  0.00     0.104 C
ENDROOT
BRANCH   4  11
HETATM   11  C6  UNL     1      13.257  -4.214  22.260  1.00  0.00     0.136 C
BRANCH  11  12
HETATM   12  O4  UNL     1      12.120  -3.579  22.401  1.00  0.00    -0.348 OA
ATOM     13  H4  UNL     1      11.791  -3.413  23.277  1.00  0.00     0.219 HD
ENDBRANCH  11  12
BRANCH  11  14
HETATM   14  C7  UNL     1      14.180  -3.936  23.355  1.00  0.00     0.206 C
BRANCH  14  15
HETATM   15  N2  UNL     1      13.482  -4.237  24.630  1.00  0.00    -0.354 N
HETATM   16  C8  UNL     1      13.585  -3.308  25.697  1.00  0.00     0.213 C
HETATM   17  C9  UNL     1      12.905  -3.577  26.987  1.00  0.00     0.117 C
HETATM   18  O5  UNL     1      14.247  -2.261  25.557  1.00  0.00    -0.274 OA
ATOM     19  H2  UNL     1      12.940  -5.094  24.737  1.00  0.00     0.162 HD
ENDBRANCH  14  15
ENDBRANCH  11  14
ENDBRANCH   4  11
BRANCH   3  20
HETATM   20  C5  UNL     1      12.774  -7.159  22.324  1.00  0.00     0.219 C
BRANCH  20  21
HETATM   21  O3  UNL     1      12.019  -6.579  23.416  1.00  0.00    -0.395 OA
ATOM     22  H3  UNL     1      12.516  -5.821  23.701  1.00  0.00     0.209 HD
ENDBRANCH  20  21
ENDBRANCH   3  20
BRANCH   2  23
HETATM   23  O2  UNL     1      11.875  -6.169  18.890  1.00  0.00    -0.387 OA
ATOM     24  H2  UNL     1      11.005  -5.852  19.099  1.00  0.00     0.210 HD
ENDBRANCH   2  23
BRANCH   1  25
HETATM   25  O1  UNL     1      13.448  -7.902  18.076  1.00  0.00    -0.381 OA
HETATM   26  C1  UNL     1      12.944  -9.136  17.719  1.00  0.00     0.202 C
ENDBRANCH   1  25
BRANCH  10  27
HETATM   27  N3  UNL     1      15.948  -8.009  19.120  1.00  0.00    -0.376 NA
HETATM   28  C16 UNL     1      16.871  -8.766  18.518  1.00  0.00     0.295 C
HETATM   29  O6  UNL     1      17.476  -8.502  17.441  1.00  0.00    -0.257 OA
BRANCH  28  30
HETATM   30  C17 UNL     1      17.326 -10.107  19.087  1.00  0.00     0.093 C
HETATM   31  C18 UNL     1      18.122 -10.784  18.032  1.00  0.00     0.015 C
HETATM   32  C19 UNL     1      17.317 -11.627  17.083  1.00  0.00     0.001 C
HETATM   33  C20 UNL     1      16.401 -12.559  17.833  1.00  0.00     0.000 C
HETATM   34  C21 UNL     1      15.457 -11.719  18.656  1.00  0.00     0.001 C
HETATM   35  C22 UNL     1      16.181 -10.843  19.646  1.00  0.00     0.015 C
ENDBRANCH  28  30
ENDBRANCH  10  27
TORSDOF 10
ENDMDL