MODEL 3
REMARK VINA RESULT: -7.497860951      2.330      6.471
REMARK  6 active torsions:
REMARK  status: ('A' for Active; 'I' for Inactive)
REMARK       I    between atoms: N1_2  and  C2_4
REMARK       I    between atoms: C2_4  and  N2_6
REMARK       I    between atoms: N2_6  and  C3_8
REMARK    1  A    between atoms: C3_8  and  C4_10
REMARK       I    between atoms: N3_17  and  C11_18
REMARK    2  A    between atoms: C11_18  and  C12_20
REMARK    3  A    between atoms: C12_20  and  C13_21
REMARK    4  A    between atoms: C12_20  and  N4_25
REMARK    5  A    between atoms: C13_21  and  C14_22
REMARK       I    between atoms: N4_25  and  C15_27
REMARK    6  A    between atoms: C15_27  and  C16_29
ROOT
HETATM    1  C4  UNL     1      12.874  -4.177  22.491  1.00  0.00     0.101 C
HETATM    2  C5  UNL     1      11.410  -3.832  22.514  1.00  0.00     0.018 C
HETATM    3  C6  UNL     1      10.708  -4.283  21.262  1.00  0.00     0.026 C
HETATM    4  C7  UNL     1      11.302  -5.462  20.587  1.00  0.00     0.087 C
HETATM    5  C8  UNL     1      11.138  -6.669  21.481  1.00  0.00     0.027 C
HETATM    6  C9  UNL     1      12.305  -6.554  22.432  1.00  0.00     0.028 C
HETATM    7  C10 UNL     1      13.197  -5.456  21.836  1.00  0.00     0.100 C
HETATM    8  N3  UNL     1      12.765  -5.423  20.447  1.00  0.00    -0.340 N
HETATM    9  C11 UNL     1      13.509  -5.441  19.250  1.00  0.00     0.243 C
HETATM   10  O3  UNL     1      12.889  -5.526  18.159  1.00  0.00    -0.271 OA
ENDROOT
BRANCH   9  11
HETATM   11  C12 UNL     1      14.971  -5.375  19.197  1.00  0.00     0.186 C
BRANCH  11  12
HETATM   12  C13 UNL     1      15.372  -4.159  18.374  1.00  0.00     0.147 C
BRANCH  12  13
HETATM   13  C14 UNL     1      16.428  -3.331  18.932  1.00  0.00     0.175 C
HETATM   14  O4  UNL     1      16.133  -2.395  19.727  1.00  0.00    -0.648 OA
HETATM   15  O5  UNL     1      17.747  -3.569  18.593  1.00  0.00    -0.648 OA
ENDBRANCH  12  13
ENDBRANCH  11  12
BRANCH  11  16
HETATM   16  N4  UNL     1      15.515  -6.559  18.498  1.00  0.00    -0.345 N
HETATM   17  C15 UNL     1      16.071  -7.647  19.207  1.00  0.00     0.253 C
HETATM   18  O6  UNL     1      16.084  -7.564  20.476  1.00  0.00    -0.270 OA
ATOM     19  H4  UNL     1      15.489  -6.590  17.479  1.00  0.00     0.163 HD
BRANCH  17  20
HETATM   20  C16 UNL     1      16.623  -8.838  18.619  1.00  0.00     0.141 C
HETATM   21  C17 UNL     1      17.473  -8.609  17.363  1.00  0.00     0.048 C
HETATM   22  C18 UNL     1      17.517  -9.983  16.709  1.00  0.00     0.010 C
HETATM   23  C19 UNL     1      16.621 -10.819  17.574  1.00  0.00     0.013 C
HETATM   24  C20 UNL     1      17.314 -10.960  18.918  1.00  0.00     0.174 C
HETATM   25  C21 UNL     1      15.571  -9.771  17.989  1.00  0.00     0.054 C
HETATM   26  O7  UNL     1      17.250  -9.694  19.498  1.00  0.00    -0.370 OA
ENDBRANCH  17  20
ENDBRANCH  11  16
ENDBRANCH   9  11
BRANCH   1  27
HETATM   27  C3  UNL     1      13.575  -4.033  23.771  1.00  0.00     0.231 C
HETATM   28  N2  UNL     1      12.964  -3.725  25.007  1.00  0.00    -0.279 N
HETATM   29  C2  UNL     1      13.638  -3.618  26.229  1.00  0.00     0.322 C
ATOM     30  H2  UNL     1      11.956  -3.568  25.009  1.00  0.00     0.173 HD
HETATM   31  N1  UNL     1      15.004  -3.780  26.500  1.00  0.00    -0.347 N
HETATM   32  O1  UNL     1      12.895  -3.329  27.242  1.00  0.00    -0.247 OA
HETATM   33  C1  UNL     1      15.459  -3.610  27.888  1.00  0.00     0.151 C
ATOM     34  H1  UNL     1      15.663  -4.009  25.756  1.00  0.00     0.163 HD
HETATM   35  O2  UNL     1      14.843  -4.215  23.705  1.00  0.00    -0.273 OA
ENDBRANCH   1  27
TORSDOF 6
ENDMDL