MODEL 4
REMARK VINA RESULT: -6.548679714      2.449      5.587
REMARK  7 active torsions:
REMARK  status: ('A' for Active; 'I' for Inactive)
REMARK       I    between atoms: N1_2  and  C2_4
REMARK    1  A    between atoms: C2_4  and  C3_6
REMARK    2  A    between atoms: C3_6  and  N2_7
REMARK    3  A    between atoms: C3_6  and  C13_23
REMARK       I    between atoms: N2_7  and  C4_9
REMARK    4  A    between atoms: C4_9  and  C5_11
REMARK    5  A    between atoms: N3_16  and  C10_17
REMARK       I    between atoms: C13_23  and  N5_25
REMARK    6  A    between atoms: C17_29  and  C18_30
REMARK       I    between atoms: C18_30  and  N6_32
REMARK    7  A    between atoms: N6_32  and  C19_34
ROOT
HETATM    1  C3  UNL     1      15.005  -5.578  19.009  1.00  0.00     0.269 C
ENDROOT
BRANCH   1   2
HETATM    2  C2  UNL     1      16.051  -4.546  18.725  1.00  0.00     0.249 C
HETATM    3  N1  UNL     1      15.943  -3.253  19.258  1.00  0.00    -0.363 N
HETATM    4  C1  UNL     1      16.973  -2.231  18.979  1.00  0.00     0.149 C
ATOM      5  H1  UNL     1      15.143  -3.015  19.846  1.00  0.00     0.162 HD
HETATM    6  O1  UNL     1      17.029  -4.891  17.988  1.00  0.00    -0.271 OA
ENDBRANCH   1   2
BRANCH   1   7
HETATM    7  N2  UNL     1      15.706  -6.877  19.074  1.00  0.00    -0.339 N
HETATM    8  C4  UNL     1      15.111  -8.042  18.559  1.00  0.00     0.228 C
HETATM    9  O2  UNL     1      13.952  -7.942  18.035  1.00  0.00    -0.273 OA
ATOM     10  H2  UNL     1      16.632  -6.929  19.498  1.00  0.00     0.163 HD
BRANCH   8  11
HETATM   11  C5  UNL     1      15.755  -9.375  18.590  1.00  0.00     0.053 C
HETATM   12  C6  UNL     1      15.612 -10.018  19.963  1.00  0.00     0.027 C
HETATM   13  C7  UNL     1      15.165 -10.262  17.544  1.00  0.00     0.022 C
HETATM   14  C8  UNL     1      15.765 -11.629  17.513  1.00  0.00     0.021 C
HETATM   15  C9  UNL     1      17.272 -11.611  17.557  1.00  0.00     0.124 C
HETATM   16  N3  UNL     1      17.792 -10.250  17.515  1.00  0.00    -0.370 N
HETATM   17  C12 UNL     1      17.213  -9.176  18.317  1.00  0.00     0.142 C
BRANCH  16  18
HETATM   18  C10 UNL     1      18.894  -9.912  16.679  1.00  0.00     0.068 C
HETATM   19  C11 UNL     1      19.822 -11.008  16.264  1.00  0.00     0.088 C
HETATM   20  N4  UNL     1      19.092  -8.710  16.289  1.00  0.00    -0.389 N
ATOM     21  H42 UNL     1      18.458  -7.962  16.573  1.00  0.00     0.157 HD
ATOM     22  H41 UNL     1      19.881  -8.468  15.691  1.00  0.00     0.157 HD
ENDBRANCH  16  18
ENDBRANCH   8  11
ENDBRANCH   1   7
BRANCH   1  23
HETATM   23  C13 UNL     1      14.410  -5.282  20.350  1.00  0.00     0.252 C
HETATM   24  O3  UNL     1      15.184  -5.306  21.316  1.00  0.00    -0.270 OA
HETATM   25  N5  UNL     1      13.043  -5.001  20.478  1.00  0.00    -0.337 N
HETATM   26  C14 UNL     1      12.158  -5.024  19.282  1.00  0.00     0.127 C
HETATM   27  C17 UNL     1      12.203  -4.641  21.566  1.00  0.00     0.179 C
HETATM   28  C15 UNL     1      10.745  -5.091  19.804  1.00  0.00     0.022 C
HETATM   29  C16 UNL     1      10.917  -5.470  21.252  1.00  0.00     0.037 C
BRANCH  27  30
HETATM   30  C18 UNL     1      12.612  -4.931  22.932  1.00  0.00     0.240 C
HETATM   31  O4  UNL     1      12.838  -6.037  23.463  1.00  0.00    -0.271 OA
HETATM   32  N6  UNL     1      12.787  -3.805  23.815  1.00  0.00    -0.355 N
ATOM     33  H6  UNL     1      12.619  -2.868  23.449  1.00  0.00     0.162 HD
BRANCH  32  34
HETATM   34  C19 UNL     1      13.189  -3.942  25.192  1.00  0.00     0.076 C
HETATM   35  C20 UNL     1      14.180  -2.868  25.584  1.00  0.00     0.032 C
HETATM   36  C21 UNL     1      12.001  -3.800  26.130  1.00  0.00     0.032 C
ENDBRANCH  32  34
ENDBRANCH  27  30
ENDBRANCH   1  23
TORSDOF 7
ENDMDL