MODEL 1
REMARK VINA RESULT: -7.501040445      0.000      0.000
REMARK  7 active torsions:
REMARK  status: ('A' for Active; 'I' for Inactive)
REMARK    1  A    between atoms: C2_2  and  C3_3
REMARK    2  A    between atoms: C3_3  and  C4_4
REMARK    3  A    between atoms: C6_6  and  C7_7
REMARK       I    between atoms: C7_7  and  N1_9
REMARK       I    between atoms: N4_20  and  C13_21
REMARK    4  A    between atoms: C13_21  and  C14_23
REMARK    5  A    between atoms: C16_25  and  O3_26
REMARK    6  A    between atoms: C16_25  and  C17_28
REMARK    7  A    between atoms: N5_35  and  O4_36
ROOT
HETATM    1  C4  UNL     1      13.143  -9.406  19.852  1.00  0.00     0.091 C
HETATM    2  C5  UNL     1      12.934 -10.500  20.905  1.00  0.00     0.060 C
HETATM    3  C6  UNL     1      14.185 -11.311  21.149  1.00  0.00     0.172 C
HETATM    4  N3  UNL     1      15.190 -11.209  20.152  1.00  0.00    -0.393 N
ATOM      5  H3  UNL     1      15.653 -12.038  19.780  1.00  0.00     0.155 HD
HETATM    6  C12 UNL     1      15.526  -9.913  19.695  1.00  0.00     0.245 C
HETATM    7  N4  UNL     1      14.505  -8.925  19.938  1.00  0.00    -0.330 N
HETATM    8  C13 UNL     1      14.851  -7.621  20.271  1.00  0.00     0.241 C
HETATM    9  O2  UNL     1      16.080  -7.306  20.254  1.00  0.00    -0.271 OA
ENDROOT
BRANCH   1  10
HETATM   10  C3  UNL     1      12.818 -10.035  18.533  1.00  0.00     0.025 C
BRANCH  10  11
HETATM   11  C2  UNL     1      12.320  -9.080  17.491  1.00  0.00    -0.002 C
HETATM   12  C1  UNL     1      11.532  -7.947  18.073  1.00  0.00     0.005 C
ENDBRANCH  10  11
ENDBRANCH   1  10
BRANCH   8  13
HETATM   13  C14 UNL     1      13.933  -6.531  20.656  1.00  0.00     0.181 C
HETATM   14  C15 UNL     1      13.680  -6.573  22.184  1.00  0.00     0.071 C
HETATM   15  C16 UNL     1      14.133  -5.225  22.602  1.00  0.00     0.077 C
HETATM   16  C23 UNL     1      13.745  -4.400  21.367  1.00  0.00     0.159 C
HETATM   17  N5  UNL     1      14.374  -5.220  20.341  1.00  0.00    -0.183 NA
BRANCH  15  18
HETATM   18  O3  UNL     1      15.547  -5.237  22.724  1.00  0.00    -0.388 OA
ATOM     19  H3  UNL     1      15.913  -4.649  22.074  1.00  0.00     0.210 HD
ENDBRANCH  15  18
BRANCH  15  20
HETATM   20  C17 UNL     1      13.606  -4.670  23.868  1.00  0.00     0.021 C
HETATM   21  C18 UNL     1      14.310  -3.345  24.206  1.00  0.00     0.007 C
HETATM   22  C19 UNL     1      14.305  -3.186  25.688  1.00  0.00     0.000 C
HETATM   23  C20 UNL     1      12.953  -3.643  26.200  1.00  0.00     0.000 C
HETATM   24  C21 UNL     1      11.878  -3.521  25.146  1.00  0.00     0.000 C
HETATM   25  C22 UNL     1      12.141  -4.428  23.945  1.00  0.00     0.007 C
ENDBRANCH  15  20
BRANCH  17  26
HETATM   26  O4  UNL     1      15.675  -4.981  20.380  1.00  0.00    -0.312 OA
ATOM     27  H4  UNL     1      15.983  -4.148  20.040  1.00  0.00     0.237 HD
ENDBRANCH  17  26
ENDBRANCH   8  13
BRANCH   3  28
HETATM   28  C7  UNL     1      13.852 -12.772  21.290  1.00  0.00     0.242 C
HETATM   29  O1  UNL     1      13.545 -13.415  20.232  1.00  0.00    -0.271 OA
HETATM   30  N1  UNL     1      13.858 -13.480  22.506  1.00  0.00    -0.347 N
HETATM   31  C8  UNL     1      13.489 -14.895  22.472  1.00  0.00     0.153 C
HETATM   32  C11 UNL     1      14.225 -12.821  23.726  1.00  0.00     0.153 C
HETATM   33  C9  UNL     1      13.798 -15.604  23.748  1.00  0.00     0.252 C
HETATM   34  N2  UNL     1      15.042 -15.042  24.263  1.00  0.00    -0.072 N
HETATM   35  C10 UNL     1      14.725 -13.756  24.806  1.00  0.00     0.252 C
ATOM     36  H22 UNL     1      15.512 -15.655  24.930  1.00  0.00     0.277 HD
ATOM     37  H21 UNL     1      15.787 -15.012  23.568  1.00  0.00     0.277 HD
ENDBRANCH   3  28
TORSDOF 7
ENDMDL