MODEL 1
REMARK VINA RESULT: -6.642342343      0.000      0.000
REMARK  11 active torsions:
REMARK  status: ('A' for Active; 'I' for Inactive)
REMARK    1  A    between atoms: C2_2  and  C3_3
REMARK    2  A    between atoms: C3_3  and  C4_4
REMARK    3  A    between atoms: C8_13  and  O2_14
REMARK    4  A    between atoms: C9_16  and  C10_17
REMARK    5  A    between atoms: C10_17  and  C11_18
REMARK    6  A    between atoms: C14_23  and  O3_24
REMARK    7  A    between atoms: C16_28  and  C17_29
REMARK    8  A    between atoms: C17_29  and  C18_30
REMARK    9  A    between atoms: C18_30  and  C19_31
REMARK   10  A    between atoms: C19_31  and  O6_33
REMARK   11  A    between atoms: C21_37  and  O7_38
ROOT
HETATM    1  C4  UNL     1      14.872  -5.414  19.480  1.00  0.00     0.159 C
HETATM    2  N1  UNL     1      13.996  -6.361  18.802  1.00  0.00    -0.347 N
ATOM      3  H1  UNL     1      14.396  -7.288  18.654  1.00  0.00     0.163 HD
HETATM    4  C5  UNL     1      12.690  -6.197  18.321  1.00  0.00     0.240 C
HETATM    5  O1  UNL     1      12.066  -7.301  18.073  1.00  0.00    -0.271 OA
HETATM    6  C6  UNL     1      11.902  -5.004  18.047  1.00  0.00     0.171 C
HETATM    7  C7  UNL     1      11.888  -4.953  16.490  1.00  0.00     0.042 C
HETATM    8  N2  UNL     1      10.578  -4.867  18.583  1.00  0.00    -0.360 N
ATOM      9  H2  UNL     1       9.924  -4.536  17.874  1.00  0.00     0.162 HD
HETATM   10  C8  UNL     1       9.944  -5.063  19.804  1.00  0.00     0.135 C
HETATM   11  C9  UNL     1       9.500  -6.187  20.633  1.00  0.00     0.158 C
HETATM   12  N3  UNL     1      10.415  -6.620  21.688  1.00  0.00    -0.356 N
ATOM     13  H3  UNL     1       9.961  -7.125  22.450  1.00  0.00     0.162 HD
HETATM   14  C14 UNL     1      11.805  -6.470  21.847  1.00  0.00     0.185 C
HETATM   15  C15 UNL     1      12.789  -5.517  22.148  1.00  0.00     0.222 C
HETATM   16  O4  UNL     1      12.724  -4.419  21.471  1.00  0.00    -0.286 OA
HETATM   17  C16 UNL     1      13.965  -5.237  22.978  1.00  0.00     0.162 C
HETATM   18  N4  UNL     1      15.186  -5.272  22.114  1.00  0.00    -0.361 N
ATOM     19  H4  UNL     1      16.025  -4.843  22.504  1.00  0.00     0.162 HD
HETATM   20  C21 UNL     1      15.312  -5.827  20.829  1.00  0.00     0.135 C
ENDROOT
BRANCH  17  21
HETATM   21  C17 UNL     1      13.910  -3.778  23.439  1.00  0.00     0.043 C
BRANCH  21  22
HETATM   22  C18 UNL     1      14.828  -3.518  24.603  1.00  0.00     0.113 C
BRANCH  22  23
HETATM   23  C19 UNL     1      14.033  -3.463  25.848  1.00  0.00     0.258 C
HETATM   24  O5  UNL     1      14.643  -3.454  26.966  1.00  0.00    -0.265 OA
BRANCH  23  25
HETATM   25  O6  UNL     1      12.654  -3.423  25.784  1.00  0.00    -0.326 OA
HETATM   26  C20 UNL     1      11.896  -3.838  26.898  1.00  0.00     0.213 C
ENDBRANCH  23  25
ENDBRANCH  22  23
ENDBRANCH  21  22
ENDBRANCH  17  21
BRANCH  14  27
HETATM   27  O3  UNL     1      12.320  -7.705  21.610  1.00  0.00    -0.344 OA
ATOM     28  H3  UNL     1      13.262  -7.586  21.630  1.00  0.00     0.219 HD
ENDBRANCH  14  27
BRANCH  20  29
HETATM   29  O7  UNL     1      15.959  -6.964  20.762  1.00  0.00    -0.348 OA
ATOM     30  H7  UNL     1      16.333  -7.175  21.609  1.00  0.00     0.219 HD
ENDBRANCH  20  29
BRANCH   1  31
HETATM   31  C3  UNL     1      16.072  -5.207  18.535  1.00  0.00     0.033 C
BRANCH  31  32
HETATM   32  C2  UNL     1      16.563  -3.846  18.355  1.00  0.00    -0.002 C
HETATM   33  C1  UNL     1      15.301  -2.951  18.216  1.00  0.00     0.005 C
ENDBRANCH  31  32
ENDBRANCH   1  31
BRANCH  11  34
HETATM   34  C10 UNL     1       8.167  -5.953  21.279  1.00  0.00     0.037 C
BRANCH  34  35
HETATM   35  C11 UNL     1       6.943  -6.263  20.540  1.00  0.00    -0.020 C
HETATM   36  C12 UNL     1       5.966  -7.244  21.048  1.00  0.00     0.009 C
HETATM   37  C13 UNL     1       6.151  -5.041  20.099  1.00  0.00     0.009 C
ENDBRANCH  34  35
ENDBRANCH  11  34
BRANCH  10  38
HETATM   38  O2  UNL     1       9.637  -3.945  20.422  1.00  0.00    -0.348 OA
ATOM     39  H2  UNL     1       9.054  -4.067  21.162  1.00  0.00     0.219 HD
ENDBRANCH  10  38
TORSDOF 11
ENDMDL