MODEL 2
REMARK VINA RESULT: -6.164773284      1.802      2.537
REMARK  10 active torsions:
REMARK  status: ('A' for Active; 'I' for Inactive)
REMARK    1  A    between atoms: N1_2  and  C2_3
REMARK    2  A    between atoms: N1_2  and  C13_19
REMARK    3  A    between atoms: C2_3  and  O1_4
REMARK       I    between atoms: N3_9  and  C5_10
REMARK    4  A    between atoms: C5_10  and  C6_12
REMARK    5  A    between atoms: C13_19  and  C14_20
REMARK    6  A    between atoms: C13_19  and  C18_31
REMARK    7  A    between atoms: C16_25  and  O3_26
REMARK    8  A    between atoms: C17_28  and  O4_29
REMARK    9  A    between atoms: C18_31  and  C21_34
REMARK   10  A    between atoms: C21_34  and  C22_35
ROOT
HETATM    1  C13 UNL     1      11.884  -6.618  20.395  1.00  0.00     0.034 C
ENDROOT
BRANCH   1   2
HETATM    2  N1  UNL     1      11.561  -8.049  20.322  1.00  0.00    -0.322 N
HETATM    3  C1  UNL     1      11.089  -8.614  19.090  1.00  0.00     0.159 C
BRANCH   2   4
HETATM    4  C2  UNL     1      11.723  -8.879  21.468  1.00  0.00     0.221 C
HETATM    5  N2  UNL     1      12.649  -9.777  21.886  1.00  0.00    -0.344 N
HETATM    6  C3  UNL     1      12.403 -10.458  23.208  1.00  0.00     0.146 C
HETATM    7  C12 UNL     1      13.854 -10.206  21.283  1.00  0.00     0.146 C
HETATM    8  C4  UNL     1      12.399 -11.955  23.028  1.00  0.00     0.145 C
HETATM    9  N3  UNL     1      13.549 -12.383  22.278  1.00  0.00    -0.349 N
HETATM   10  C5  UNL     1      14.420 -13.415  22.687  1.00  0.00     0.224 C
HETATM   11  C11 UNL     1      13.824 -11.722  21.010  1.00  0.00     0.145 C
HETATM   12  O2  UNL     1      15.421 -13.691  21.972  1.00  0.00    -0.273 OA
BRANCH   4  13
HETATM   13  O1  UNL     1      10.720  -8.749  22.356  1.00  0.00    -0.332 OA
ATOM     14  H1  UNL     1      10.595  -9.524  22.890  1.00  0.00     0.221 HD
ENDBRANCH   4  13
BRANCH  10  15
HETATM   15  C6  UNL     1      14.182 -14.176  23.930  1.00  0.00     0.078 C
HETATM   16  C7  UNL     1      14.540 -15.630  23.845  1.00  0.00     0.014 C
HETATM   17  C8  UNL     1      14.619 -16.039  25.321  1.00  0.00     0.001 C
HETATM   18  C9  UNL     1      14.879 -14.786  26.091  1.00  0.00     0.001 C
HETATM   19  C10 UNL     1      15.090 -13.700  25.058  1.00  0.00     0.014 C
ENDBRANCH  10  15
ENDBRANCH   2   4
ENDBRANCH   1   2
BRANCH   1  20
HETATM   20  C14 UNL     1      13.246  -6.214  20.032  1.00  0.00     0.263 C
HETATM   21  N4  UNL     1      14.104  -7.153  19.397  1.00  0.00    -0.061 N
HETATM   22  C15 UNL     1      15.471  -6.801  19.629  1.00  0.00     0.267 C
ATOM     23  H42 UNL     1      13.902  -8.110  19.685  1.00  0.00     0.278 HD
ATOM     24  H41 UNL     1      13.897  -7.249  18.403  1.00  0.00     0.278 HD
HETATM   25  C16 UNL     1      15.527  -5.664  20.605  1.00  0.00     0.174 C
HETATM   26  C17 UNL     1      14.092  -5.664  21.146  1.00  0.00     0.184 C
BRANCH  25  27
HETATM   27  O3  UNL     1      15.874  -4.458  20.052  1.00  0.00    -0.391 OA
ATOM     28  H3  UNL     1      15.216  -3.779  20.145  1.00  0.00     0.210 HD
ENDBRANCH  25  27
BRANCH  26  29
HETATM   29  O4  UNL     1      14.124  -6.367  22.307  1.00  0.00    -0.390 OA
ATOM     30  H4  UNL     1      13.923  -5.895  23.106  1.00  0.00     0.210 HD
ENDBRANCH  26  29
ENDBRANCH   1  20
BRANCH   1  31
HETATM   31  C18 UNL     1      10.769  -5.730  19.919  1.00  0.00     0.003 C
HETATM   32  C19 UNL     1      11.287  -4.956  18.723  1.00  0.00     0.021 C
HETATM   33  C20 UNL     1       9.500  -6.378  19.477  1.00  0.00     0.021 C
BRANCH  31  34
HETATM   34  C21 UNL     1      10.417  -4.705  20.963  1.00  0.00     0.128 C
BRANCH  34  35
HETATM   35  C22 UNL     1      10.498  -5.170  22.357  1.00  0.00     0.173 C
HETATM   36  O5  UNL     1       9.691  -5.990  22.858  1.00  0.00    -0.648 OA
HETATM   37  O6  UNL     1      11.497  -4.725  23.243  1.00  0.00    -0.648 OA
ENDBRANCH  34  35
ENDBRANCH  31  34
ENDBRANCH   1  31
TORSDOF 10
ENDMDL