MODEL 4
REMARK VINA RESULT: -5.935839050      2.201      5.762
REMARK  10 active torsions:
REMARK  status: ('A' for Active; 'I' for Inactive)
REMARK    1  A    between atoms: C2_2  and  C3_3
REMARK    2  A    between atoms: C3_3  and  C4_4
REMARK    3  A    between atoms: C5_5  and  O1_6
REMARK    4  A    between atoms: C6_10  and  C7_11
REMARK    5  A    between atoms: C7_11  and  C8_12
REMARK    6  A    between atoms: C11_15  and  O2_16
REMARK    7  A    between atoms: C12_20  and  C13_21
REMARK    8  A    between atoms: C13_21  and  C14_23
REMARK    9  A    between atoms: C18_31  and  C19_32
REMARK   10  A    between atoms: C22_37  and  O6_38
ROOT
HETATM    1  C4  UNL     1      15.881  -8.184  18.433  1.00  0.00     0.137 C
HETATM    2  C5  UNL     1      15.949  -8.473  19.865  1.00  0.00     0.124 C
HETATM    3  N1  UNL     1      15.199  -8.426  20.988  1.00  0.00    -0.362 N
ATOM      4  H1  UNL     1      15.632  -7.802  21.669  1.00  0.00     0.162 HD
HETATM    5  C6  UNL     1      13.984  -8.976  21.532  1.00  0.00     0.158 C
HETATM    6  C11 UNL     1      13.073  -7.907  22.012  1.00  0.00     0.136 C
HETATM    7  N2  UNL     1      12.516  -6.802  21.411  1.00  0.00    -0.345 N
ATOM      8  H2  UNL     1      11.553  -6.971  21.121  1.00  0.00     0.163 HD
HETATM    9  C12 UNL     1      12.950  -5.460  21.085  1.00  0.00     0.260 C
HETATM   10  N3  UNL     1      14.342  -5.238  20.981  1.00  0.00    -0.332 N
ATOM     11  H3  UNL     1      14.869  -5.244  21.854  1.00  0.00     0.165 HD
HETATM   12  C17 UNL     1      15.086  -5.009  19.796  1.00  0.00     0.242 C
HETATM   13  O5  UNL     1      16.329  -4.854  19.930  1.00  0.00    -0.271 OA
HETATM   14  C18 UNL     1      14.535  -4.939  18.440  1.00  0.00     0.179 C
HETATM   15  N4  UNL     1      14.399  -6.148  17.713  1.00  0.00    -0.360 N
ATOM     16  H4  UNL     1      13.919  -5.997  16.826  1.00  0.00     0.162 HD
HETATM   17  C22 UNL     1      14.741  -7.474  17.880  1.00  0.00     0.124 C
ENDROOT
BRANCH   9  18
HETATM   18  C13 UNL     1      12.428  -4.508  22.132  1.00  0.00     0.204 C
HETATM   19  O3  UNL     1      11.505  -3.720  21.786  1.00  0.00    -0.290 OA
BRANCH  18  20
HETATM   20  C14 UNL     1      12.843  -4.363  23.512  1.00  0.00     0.142 A
HETATM   21  C15 UNL     1      11.817  -4.111  24.573  1.00  0.00     0.057 C
HETATM   22  C16 UNL     1      14.087  -3.481  23.703  1.00  0.00     0.215 A
HETATM   23  O4  UNL     1      14.097  -4.844  23.912  1.00  0.00    -0.367 OA
ENDBRANCH  18  20
ENDBRANCH   9  18
BRANCH   6  24
HETATM   24  O2  UNL     1      12.708  -8.028  23.285  1.00  0.00    -0.348 OA
ATOM     25  H2  UNL     1      13.205  -7.488  23.888  1.00  0.00     0.219 HD
ENDBRANCH   6  24
BRANCH   5  26
HETATM   26  C7  UNL     1      13.384 -10.079  20.759  1.00  0.00     0.037 C
BRANCH  26  27
HETATM   27  C8  UNL     1      13.671 -11.489  21.169  1.00  0.00    -0.020 C
HETATM   28  C9  UNL     1      14.901 -12.063  20.498  1.00  0.00     0.009 C
HETATM   29  C10 UNL     1      13.712 -11.780  22.623  1.00  0.00     0.009 C
ENDBRANCH  26  27
ENDBRANCH   5  26
BRANCH  14  30
HETATM   30  C19 UNL     1      15.247  -3.819  17.720  1.00  0.00     0.009 C
HETATM   31  C20 UNL     1      16.189  -4.211  16.667  1.00  0.00     0.012 C
HETATM   32  C21 UNL     1      14.252  -2.807  17.200  1.00  0.00     0.012 C
ENDBRANCH  14  30
BRANCH   2  33
HETATM   33  O1  UNL     1      17.173  -8.932  20.097  1.00  0.00    -0.349 OA
ATOM     34  H1  UNL     1      17.119  -9.878  20.038  1.00  0.00     0.219 HD
ENDBRANCH   2  33
BRANCH  17  35
HETATM   35  O6  UNL     1      13.853  -8.323  17.448  1.00  0.00    -0.349 OA
ATOM     36  H6  UNL     1      14.275  -9.004  16.938  1.00  0.00     0.219 HD
ENDBRANCH  17  35
BRANCH   1  37
HETATM   37  C3  UNL     1      16.173  -9.515  17.773  1.00  0.00     0.047 C
BRANCH  37  38
HETATM   38  C2  UNL     1      17.195  -9.571  16.751  1.00  0.00    -0.036 C
HETATM   39  C1  UNL     1      18.173  -8.743  16.528  1.00  0.00     0.007 C
ENDBRANCH  37  38
ENDBRANCH   1  37
TORSDOF 10
ENDMDL