MODEL 2
REMARK VINA RESULT: -6.494452342      2.579      6.162
REMARK  9 active torsions:
REMARK  status: ('A' for Active; 'I' for Inactive)
REMARK       I    between atoms: C2_2  and  N1_4
REMARK    1  A    between atoms: N1_4  and  C3_6
REMARK    2  A    between atoms: C3_6  and  C4_7
REMARK    3  A    between atoms: C3_6  and  C9_15
REMARK    4  A    between atoms: C9_15  and  C10_16
REMARK    5  A    between atoms: C9_15  and  N4_28
REMARK    6  A    between atoms: C10_16  and  C11_18
REMARK    7  A    between atoms: C11_18  and  N3_20
REMARK       I    between atoms: N3_20  and  C13_22
REMARK    8  A    between atoms: C13_22  and  C14_24
REMARK    9  A    between atoms: C22_34  and  O4_35
ROOT
HETATM    1  C9  UNL     1      12.849  -4.785  21.073  1.00  0.00     0.085 C
ENDROOT
BRANCH   1   2
HETATM    2  C3  UNL     1      13.402  -5.181  22.347  1.00  0.00     0.142 C
BRANCH   2   3
HETATM    3  N1  UNL     1      12.868  -6.556  22.581  1.00  0.00    -0.351 N
HETATM    4  C2  UNL     1      13.560  -7.727  22.240  1.00  0.00     0.214 C
HETATM    5  C1  UNL     1      12.961  -9.046  22.497  1.00  0.00     0.117 C
HETATM    6  O1  UNL     1      14.697  -7.630  21.712  1.00  0.00    -0.274 OA
ATOM      7  H1  UNL     1      11.949  -6.648  23.013  1.00  0.00     0.163 HD
ENDBRANCH   2   3
BRANCH   2   8
HETATM    8  C4  UNL     1      13.392  -4.556  23.646  1.00  0.00     0.018 C
HETATM    9  C5  UNL     1      12.150  -3.845  24.125  1.00  0.00     0.034 C
HETATM   10  C6  UNL     1      12.129  -3.875  25.668  1.00  0.00     0.232 C
HETATM   11  N2  UNL     1      13.248  -3.021  26.057  1.00  0.00    -0.075 N
HETATM   12  C7  UNL     1      14.497  -3.611  25.618  1.00  0.00     0.232 C
ATOM     13  H22 UNL     1      13.136  -2.065  25.717  1.00  0.00     0.277 HD
ATOM     14  H21 UNL     1      13.248  -2.824  27.057  1.00  0.00     0.277 HD
HETATM   15  C8  UNL     1      14.565  -3.738  24.111  1.00  0.00     0.034 C
ENDBRANCH   2   8
ENDBRANCH   1   2
BRANCH   1  16
HETATM   16  C10 UNL     1      11.522  -5.333  20.645  1.00  0.00     0.196 C
HETATM   17  O2  UNL     1      11.522  -6.323  19.949  1.00  0.00    -0.289 OA
BRANCH  16  18
HETATM   18  C11 UNL     1      10.200  -4.771  20.978  1.00  0.00     0.156 C
HETATM   19  C12 UNL     1       9.520  -5.297  22.187  1.00  0.00     0.041 C
BRANCH  18  20
HETATM   20  N3  UNL     1       9.258  -5.025  19.860  1.00  0.00    -0.349 N
HETATM   21  C13 UNL     1       8.188  -4.132  19.576  1.00  0.00     0.226 C
HETATM   22  O3  UNL     1       8.093  -3.113  20.346  1.00  0.00    -0.273 OA
ATOM     23  H3  UNL     1       9.381  -5.857  19.284  1.00  0.00     0.163 HD
BRANCH  21  24
HETATM   24  C14 UNL     1       7.240  -4.339  18.480  1.00  0.00     0.030 C
HETATM   25  C15 UNL     1       6.440  -5.602  18.743  1.00  0.00     0.024 C
HETATM   26  C16 UNL     1       7.866  -4.431  17.115  1.00  0.00     0.024 C
HETATM   27  C17 UNL     1       6.197  -3.218  18.412  1.00  0.00     0.024 C
ENDBRANCH  21  24
ENDBRANCH  18  20
ENDBRANCH  16  18
ENDBRANCH   1  16
BRANCH   1  28
HETATM   28  N4  UNL     1      13.727  -4.707  19.931  1.00  0.00    -0.325 N
HETATM   29  C18 UNL     1      13.336  -4.836  18.633  1.00  0.00     0.110 C
HETATM   30  C19 UNL     1      14.041  -3.934  17.623  1.00  0.00     0.102 C
HETATM   31  N5  UNL     1      15.357  -3.565  17.967  1.00  0.00    -0.389 N
HETATM   32  C20 UNL     1      16.416  -4.208  17.275  1.00  0.00     0.149 C
HETATM   33  C21 UNL     1      15.576  -3.203  19.318  1.00  0.00     0.175 C
HETATM   34  C22 UNL     1      15.070  -4.315  20.204  1.00  0.00     0.242 C
BRANCH  34  35
HETATM   35  O4  UNL     1      15.986  -5.375  20.221  1.00  0.00    -0.375 OA
ATOM     36  H4  UNL     1      16.740  -5.248  19.659  1.00  0.00     0.212 HD
ENDBRANCH  34  35
ENDBRANCH   1  28
TORSDOF 9
ENDMDL