MODEL 5
REMARK VINA RESULT: -5.748714313      2.868      4.228
REMARK  9 active torsions:
REMARK  status: ('A' for Active; 'I' for Inactive)
REMARK    1  A    between atoms: C3_3  and  C4_4
REMARK    2  A    between atoms: C5_7  and  O1_8
REMARK    3  A    between atoms: C6_10  and  C7_11
REMARK    4  A    between atoms: C7_11  and  C8_12
REMARK    5  A    between atoms: C13_22  and  O3_23
REMARK    6  A    between atoms: C14_25  and  C15_26
REMARK    7  A    between atoms: C15_26  and  C16_27
REMARK    8  A    between atoms: C16_27  and  C17_28
REMARK    9  A    between atoms: C19_32  and  O4_33
ROOT
HETATM    1  C1  UNL     1       8.219  -4.155  21.165  1.00  0.00     0.012 C
HETATM    2  C2  UNL     1       8.953  -5.010  21.594  1.00  0.00    -0.115 C
HETATM    3  C3  UNL     1       9.863  -6.046  22.141  1.00  0.00     0.128 C
ENDROOT
BRANCH   3   4
HETATM    4  C4  UNL     1      10.956  -6.212  21.059  1.00  0.00     0.194 C
HETATM    5  N1  UNL     1      12.203  -5.758  21.542  1.00  0.00    -0.358 N
HETATM    6  C5  UNL     1      13.534  -6.046  21.273  1.00  0.00     0.135 C
ATOM      7  H1  UNL     1      12.102  -5.046  22.265  1.00  0.00     0.162 HD
HETATM    8  C6  UNL     1      14.201  -6.255  19.978  1.00  0.00     0.159 C
HETATM    9  N2  UNL     1      15.599  -6.654  20.156  1.00  0.00    -0.347 N
HETATM   10  C10 UNL     1      16.183  -7.905  19.999  1.00  0.00     0.240 C
ATOM     11  H2  UNL     1      16.235  -5.908  20.436  1.00  0.00     0.163 HD
HETATM   12  O2  UNL     1      16.837  -8.339  21.023  1.00  0.00    -0.271 OA
HETATM   13  C11 UNL     1      16.172  -8.807  18.846  1.00  0.00     0.171 C
HETATM   14  C12 UNL     1      16.455  -8.054  17.535  1.00  0.00     0.042 C
HETATM   15  N3  UNL     1      15.110  -9.730  18.703  1.00  0.00    -0.360 N
HETATM   16  C13 UNL     1      14.098 -10.211  19.554  1.00  0.00     0.135 C
ATOM     17  H3  UNL     1      15.068 -10.141  17.770  1.00  0.00     0.162 HD
HETATM   18  C14 UNL     1      14.155 -10.707  20.929  1.00  0.00     0.158 C
HETATM   19  N4  UNL     1      13.574  -9.769  21.905  1.00  0.00    -0.360 N
HETATM   20  C19 UNL     1      12.362  -9.666  22.527  1.00  0.00     0.142 C
ATOM     21  H4  UNL     1      14.222  -9.031  22.179  1.00  0.00     0.162 HD
HETATM   22  C20 UNL     1      10.965  -9.434  22.111  1.00  0.00     0.202 C
HETATM   23  C21 UNL     1      10.173 -10.727  21.969  1.00  0.00     0.049 C
HETATM   24  O5  UNL     1      10.722  -8.677  21.014  1.00  0.00    -0.306 OA
HETATM   25  C22 UNL     1      10.863  -7.513  20.394  1.00  0.00     0.283 C
HETATM   26  O6  UNL     1      10.931  -7.416  19.106  1.00  0.00    -0.263 OA
BRANCH   6  27
HETATM   27  O1  UNL     1      14.327  -6.155  22.297  1.00  0.00    -0.348 OA
ATOM     28  H1  UNL     1      14.264  -6.957  22.802  1.00  0.00     0.219 HD
ENDBRANCH   6  27
BRANCH   8  29
HETATM   29  C7  UNL     1      14.141  -5.040  19.129  1.00  0.00     0.033 C
BRANCH  29  30
HETATM   30  C8  UNL     1      15.397  -4.356  18.747  1.00  0.00    -0.002 C
HETATM   31  C9  UNL     1      15.712  -3.030  19.324  1.00  0.00     0.005 C
ENDBRANCH  29  30
ENDBRANCH   8  29
BRANCH  16  32
HETATM   32  O3  UNL     1      12.892 -10.224  19.060  1.00  0.00    -0.348 OA
ATOM     33  H3  UNL     1      12.275  -9.616  19.450  1.00  0.00     0.219 HD
ENDBRANCH  16  32
BRANCH  18  34
HETATM   34  C15 UNL     1      13.752 -12.116  21.219  1.00  0.00     0.033 C
BRANCH  34  35
HETATM   35  C16 UNL     1      14.475 -12.889  22.250  1.00  0.00     0.002 C
BRANCH  35  36
HETATM   36  C17 UNL     1      13.940 -12.898  23.637  1.00  0.00    -0.004 C
HETATM   37  C18 UNL     1      14.961 -13.530  24.584  1.00  0.00     0.005 C
ENDBRANCH  35  36
ENDBRANCH  34  35
ENDBRANCH  18  34
BRANCH  20  38
HETATM   38  O4  UNL     1      12.336  -9.792  23.824  1.00  0.00    -0.348 OA
ATOM     39  H4  UNL     1      12.691 -10.592  24.196  1.00  0.00     0.219 HD
ENDBRANCH  20  38
ENDBRANCH   3   4
TORSDOF 9
ENDMDL