MODEL 1
REMARK VINA RESULT: -6.622440568      0.000      0.000
REMARK  9 active torsions:
REMARK  status: ('A' for Active; 'I' for Inactive)
REMARK    1  A    between atoms: C2_2  and  N1_3
REMARK    2  A    between atoms: N1_3  and  C3_4
REMARK    3  A    between atoms: C3_4  and  C4_5
REMARK       I    between atoms: C4_5  and  N2_7
REMARK    4  A    between atoms: N2_7  and  C5_9
REMARK    5  A    between atoms: C7_11  and  C8_12
REMARK       I    between atoms: C8_12  and  N3_14
REMARK    6  A    between atoms: C9_16  and  C10_17
REMARK    7  A    between atoms: C9_16  and  C14_21
REMARK    8  A    between atoms: C10_17  and  C11_18
REMARK    9  A    between atoms: C18_27  and  C19_28
ROOT
HETATM    1  C5  UNL     1      13.048  -7.319  22.175  1.00  0.00     0.090 C
HETATM    2  C6  UNL     1      13.778  -7.053  20.887  1.00  0.00     0.039 C
HETATM    3  C7  UNL     1      14.793  -5.991  21.166  1.00  0.00     0.080 C
HETATM    4  C15 UNL     1      14.090  -4.738  21.616  1.00  0.00     0.019 C
HETATM    5  C16 UNL     1      13.143  -4.911  22.752  1.00  0.00    -0.006 C
HETATM    6  C17 UNL     1      11.859  -4.117  22.435  1.00  0.00     0.019 C
HETATM    7  C18 UNL     1      11.424  -5.392  21.688  1.00  0.00     0.082 C
HETATM    8  C20 UNL     1      12.285  -6.127  22.666  1.00  0.00     0.025 C
ENDROOT
BRANCH   1   9
HETATM    9  N2  UNL     1      12.228  -8.508  22.143  1.00  0.00    -0.355 N
HETATM   10  C4  UNL     1      12.696  -9.775  21.748  1.00  0.00     0.244 C
HETATM   11  O1  UNL     1      13.885  -9.908  21.400  1.00  0.00    -0.272 OA
ATOM     12  H2  UNL     1      11.251  -8.424  22.422  1.00  0.00     0.162 HD
BRANCH  10  13
HETATM   13  C3  UNL     1      11.787 -10.933  21.747  1.00  0.00     0.339 C
BRANCH  13  14
HETATM   14  N1  UNL     1      11.913 -11.794  22.903  1.00  0.00    -0.059 N
HETATM   15  C21 UNL     1      11.043 -11.235  23.926  1.00  0.00     0.238 C
HETATM   16  C22 UNL     1       9.638 -11.652  23.542  1.00  0.00     0.029 C
HETATM   17  C23 UNL     1       9.864 -13.024  22.954  1.00  0.00     0.029 C
HETATM   18  C24 UNL     1      11.330 -13.079  22.562  1.00  0.00     0.238 C
BRANCH  14  19
HETATM   19  C2  UNL     1      13.279 -11.889  23.307  1.00  0.00     0.233 C
HETATM   20  C1  UNL     1      13.626 -13.161  24.052  1.00  0.00     0.035 C
ENDBRANCH  14  19
ENDBRANCH  13  14
ENDBRANCH  10  13
ENDBRANCH   1   9
BRANCH   3  21
HETATM   21  C8  UNL     1      15.604  -5.636  19.973  1.00  0.00     0.226 C
HETATM   22  O2  UNL     1      16.027  -6.593  19.258  1.00  0.00    -0.273 OA
HETATM   23  N3  UNL     1      15.916  -4.327  19.604  1.00  0.00    -0.326 N
HETATM   24  C9  UNL     1      15.593  -3.786  18.478  1.00  0.00     0.077 C
ATOM     25  H3  UNL     1      16.437  -3.758  20.272  1.00  0.00     0.168 HD
BRANCH  24  26
HETATM   26  C10 UNL     1      14.835  -4.531  17.444  1.00  0.00     0.067 C
BRANCH  26  27
HETATM   27  C11 UNL     1      13.360  -4.288  17.528  1.00  0.00    -0.009 A
HETATM   28  C12 UNL     1      12.533  -5.177  16.592  1.00  0.00     0.005 A
HETATM   29  C13 UNL     1      12.412  -5.271  18.102  1.00  0.00     0.005 A
ENDBRANCH  26  27
ENDBRANCH  24  26
BRANCH  24  30
HETATM   30  C14 UNL     1      16.000  -2.417  18.239  1.00  0.00     0.277 C
HETATM   31  N4  UNL     1      15.369  -1.549  17.311  1.00  0.00    -0.056 NA
HETATM   32  O3  UNL     1      16.980  -1.957  18.897  1.00  0.00    -0.270 OA
ENDBRANCH  24  30
ENDBRANCH   3  21
BRANCH   7  33
HETATM   33  C19 UNL     1       9.980  -5.564  21.814  1.00  0.00     0.235 C
HETATM   34  N5  UNL     1       9.077  -4.513  21.521  1.00  0.00    -0.062 NA
HETATM   35  O4  UNL     1       9.518  -6.665  22.188  1.00  0.00    -0.276 OA
ENDBRANCH   7  33
TORSDOF 9
ENDMDL