MODEL 5
REMARK VINA RESULT: -6.363824037      4.472      6.683
REMARK  11 active torsions:
REMARK  status: ('A' for Active; 'I' for Inactive)
REMARK    1  A    between atoms: C3_3  and  C4_4
REMARK    2  A    between atoms: C4_4  and  N1_5
REMARK    3  A    between atoms: C8_9  and  N2_10
REMARK       I    between atoms: N2_10  and  C9_12
REMARK    4  A    between atoms: C9_12  and  C10_14
REMARK    5  A    between atoms: C10_14  and  C11_15
REMARK    6  A    between atoms: C11_15  and  C12_16
REMARK    7  A    between atoms: C12_16  and  C13_17
REMARK    8  A    between atoms: C13_17  and  N3_18
REMARK       I    between atoms: C14_20  and  N5_22
REMARK    9  A    between atoms: N5_22  and  C15_24
REMARK   10  A    between atoms: C15_24  and  C16_25
REMARK   11  A    between atoms: C22_32  and  O2_33
ROOT
HETATM    1  C1  UNL     1      14.751 -14.190  25.202  1.00  0.00     0.112 C
HETATM    2  C2  UNL     1      14.354 -13.511  23.956  1.00  0.00    -0.109 C
HETATM    3  C3  UNL     1      14.011 -12.969  22.936  1.00  0.00    -0.087 C
ENDROOT
BRANCH   3   4
HETATM    4  C4  UNL     1      13.574 -12.325  21.699  1.00  0.00     0.217 C
BRANCH   4   5
HETATM    5  N1  UNL     1      12.540 -11.365  22.061  1.00  0.00    -0.363 N
HETATM    6  C5  UNL     1      11.432 -11.772  22.906  1.00  0.00     0.124 C
HETATM    7  C6  UNL     1      10.240 -10.870  22.792  1.00  0.00     0.022 C
HETATM    8  C7  UNL     1      10.176 -10.133  21.494  1.00  0.00     0.034 C
HETATM    9  C8  UNL     1      11.363  -9.193  21.360  1.00  0.00     0.146 C
HETATM   10  C23 UNL     1      12.571 -10.021  21.605  1.00  0.00     0.099 C
HETATM   11  S1  UNL     1      14.051  -9.339  21.329  1.00  0.00    -0.063 SA
BRANCH   9  12
HETATM   12  N2  UNL     1      11.261  -8.048  22.188  1.00  0.00    -0.350 N
HETATM   13  C9  UNL     1      11.071  -6.754  21.592  1.00  0.00     0.218 C
HETATM   14  O1  UNL     1      10.999  -6.658  20.332  1.00  0.00    -0.274 OA
ATOM     15  H2  UNL     1      11.321  -8.141  23.202  1.00  0.00     0.163 HD
BRANCH  13  16
HETATM   16  C10 UNL     1      10.960  -5.536  22.402  1.00  0.00     0.103 C
BRANCH  16  17
HETATM   17  C11 UNL     1      12.180  -5.250  23.217  1.00  0.00     0.011 C
BRANCH  17  18
HETATM   18  C12 UNL     1      13.117  -4.247  22.624  1.00  0.00     0.020 C
BRANCH  18  19
HETATM   19  C13 UNL     1      14.213  -5.007  21.891  1.00  0.00     0.122 C
BRANCH  19  20
HETATM   20  N3  UNL     1      14.884  -4.080  21.024  1.00  0.00    -0.365 N
HETATM   21  C14 UNL     1      15.513  -4.521  19.988  1.00  0.00     0.183 C
HETATM   22  N4  UNL     1      15.505  -5.925  19.758  1.00  0.00    -0.064 NA
HETATM   23  N5  UNL     1      16.191  -3.619  19.146  1.00  0.00    -0.364 N
ATOM     24  H5  UNL     1      16.780  -2.906  19.577  1.00  0.00     0.162 HD
ATOM     25  H3  UNL     1      14.864  -3.080  21.225  1.00  0.00     0.162 HD
BRANCH  23  26
HETATM   26  C15 UNL     1      16.100  -3.649  17.733  1.00  0.00     0.131 C
BRANCH  26  27
HETATM   27  C16 UNL     1      15.137  -2.726  17.093  1.00  0.00     0.060 C
HETATM   28  C17 UNL     1      14.191  -3.254  16.089  1.00  0.00     0.012 C
HETATM   29  C18 UNL     1      14.912  -3.429  14.767  1.00  0.00     0.029 C
HETATM   30  C19 UNL     1      15.454  -2.116  14.312  1.00  0.00     0.239 C
HETATM   31  N6  UNL     1      16.317  -1.490  15.291  1.00  0.00    -0.048 N
HETATM   32  C20 UNL     1      16.497  -0.104  14.841  1.00  0.00     0.275 C
HETATM   33  C21 UNL     1      17.617  -2.113  15.207  1.00  0.00     0.275 C
HETATM   34  C22 UNL     1      15.768  -1.448  16.599  1.00  0.00     0.328 C
BRANCH  34  35
HETATM   35  O2  UNL     1      16.839  -1.179  17.484  1.00  0.00    -0.369 OA
ATOM     36  H2  UNL     1      17.583  -0.967  16.933  1.00  0.00     0.212 HD
ENDBRANCH  34  35
ENDBRANCH  26  27
ENDBRANCH  23  26
ENDBRANCH  19  20
ENDBRANCH  18  19
ENDBRANCH  17  18
ENDBRANCH  16  17
ENDBRANCH  13  16
ENDBRANCH   9  12
ENDBRANCH   4   5
ENDBRANCH   3   4
TORSDOF 11
ENDMDL