MODEL 4
REMARK VINA RESULT: -7.258008929      1.670      2.750
REMARK  11 active torsions:
REMARK  status: ('A' for Active; 'I' for Inactive)
REMARK    1  A    between atoms: N1_4  and  C5_6
REMARK    2  A    between atoms: N2_18  and  C17_19
REMARK    3  A    between atoms: N2_18  and  C23_32
REMARK    4  A    between atoms: C17_19  and  C18_20
REMARK    5  A    between atoms: C18_20  and  C19_21
REMARK    6  A    between atoms: C19_21  and  N3_22
REMARK       I    between atoms: N3_22  and  C20_24
REMARK    7  A    between atoms: C20_24  and  C21_26
REMARK    8  A    between atoms: C21_26  and  C22_27
REMARK    9  A    between atoms: C22_27  and  N4_28
REMARK   10  A    between atoms: C23_32  and  C24_33
REMARK   11  A    between atoms: C24_33  and  N5_34
REMARK       I    between atoms: N5_34  and  C25_36
ROOT
HETATM    1  C1  UNL     1      12.409  -5.966  19.340  1.00  0.00     0.042 C
HETATM    2  C2  UNL     1      13.485  -6.868  19.953  1.00  0.00     0.212 C
HETATM    3  C3  UNL     1      13.200  -8.245  19.337  1.00  0.00     0.271 C
HETATM    4  N1  UNL     1      14.010  -9.294  19.841  1.00  0.00    -0.058 N
HETATM    5  C4  UNL     1      14.479 -10.035  18.653  1.00  0.00     0.273 C
HETATM    6  C15 UNL     1      15.186  -8.702  20.443  1.00  0.00     0.266 C
HETATM    7  C16 UNL     1      15.709  -7.530  19.648  1.00  0.00     0.266 C
HETATM    8  N2  UNL     1      14.803  -6.394  19.676  1.00  0.00    -0.058 N
ENDROOT
BRANCH   8   9
HETATM    9  C17 UNL     1      15.326  -5.474  20.675  1.00  0.00     0.243 C
BRANCH   9  10
HETATM   10  C18 UNL     1      14.646  -5.429  21.955  1.00  0.00     0.072 C
BRANCH  10  11
HETATM   11  C19 UNL     1      14.066  -4.122  22.339  1.00  0.00     0.065 C
BRANCH  11  12
HETATM   12  N3  UNL     1      14.016  -3.694  23.680  1.00  0.00    -0.341 N
HETATM   13  C20 UNL     1      13.196  -4.044  24.745  1.00  0.00     0.222 C
HETATM   14  O1  UNL     1      12.262  -4.850  24.666  1.00  0.00    -0.273 OA
ATOM     15  H3  UNL     1      14.719  -2.992  23.914  1.00  0.00     0.167 HD
BRANCH  13  16
HETATM   16  C21 UNL     1      13.465  -3.392  26.087  1.00  0.00     0.130 C
BRANCH  16  17
HETATM   17  C22 UNL     1      12.407  -3.782  27.065  1.00  0.00     0.238 C
BRANCH  17  18
HETATM   18  N4  UNL     1      11.112  -3.311  26.625  1.00  0.00    -0.079 N
ATOM     19  H43 UNL     1      10.815  -2.483  27.141  1.00  0.00     0.274 HD
ATOM     20  H42 UNL     1      11.154  -2.901  25.692  1.00  0.00     0.274 HD
ATOM     21  H41 UNL     1      10.421  -4.059  26.680  1.00  0.00     0.274 HD
ENDBRANCH  17  18
ENDBRANCH  16  17
ENDBRANCH  13  16
ENDBRANCH  11  12
ENDBRANCH  10  11
ENDBRANCH   9  10
ENDBRANCH   8   9
BRANCH   8  22
HETATM   22  C23 UNL     1      14.808  -5.826  18.345  1.00  0.00     0.257 C
BRANCH  22  23
HETATM   23  C24 UNL     1      16.157  -5.413  17.848  1.00  0.00     0.150 C
BRANCH  23  24
HETATM   24  N5  UNL     1      16.060  -4.114  17.226  1.00  0.00    -0.363 N
HETATM   25  C25 UNL     1      16.552  -2.906  17.786  1.00  0.00     0.181 C
HETATM   26  N6  UNL     1      17.330  -2.192  17.044  1.00  0.00    -0.374 N
HETATM   27  N7  UNL     1      16.246  -2.453  19.077  1.00  0.00    -0.064 NA
ATOM     28  H62 UNL     1      17.552  -2.522  16.105  1.00  0.00     0.158 HD
ATOM     29  H61 UNL     1      17.683  -1.324  17.447  1.00  0.00     0.158 HD
ATOM     30  H5  UNL     1      15.603  -4.060  16.316  1.00  0.00     0.162 HD
ENDBRANCH  23  24
ENDBRANCH  22  23
ENDBRANCH   8  22
BRANCH   4  31
HETATM   31  C5  UNL     1      13.400 -10.247  20.704  1.00  0.00     0.130 C
HETATM   32  C6  UNL     1      14.000 -11.628  20.615  1.00  0.00     0.044 C
HETATM   33  C7  UNL     1      13.453 -12.514  21.708  1.00  0.00    -0.012 C
HETATM   34  C8  UNL     1      13.557 -11.934  23.074  1.00  0.00     0.009 C
HETATM   35  C12 UNL     1      11.986 -12.770  21.337  1.00  0.00     0.009 C
HETATM   36  C9  UNL     1      12.736 -10.660  23.098  1.00  0.00    -0.012 C
HETATM   37  C10 UNL     1      11.305 -10.885  22.724  1.00  0.00     0.009 C
HETATM   38  C14 UNL     1      13.443  -9.702  22.129  1.00  0.00     0.044 C
HETATM   39  C11 UNL     1      11.301 -11.453  21.310  1.00  0.00    -0.012 C
HETATM   40  C13 UNL     1      11.901 -10.418  20.420  1.00  0.00     0.044 C
ENDBRANCH   4  31
TORSDOF 11
ENDMDL