MODEL 1
REMARK VINA RESULT: -6.448937852      0.000      0.000
REMARK  10 active torsions:
REMARK  status: ('A' for Active; 'I' for Inactive)
REMARK    1  A    between atoms: C3_3  and  N1_4
REMARK       I    between atoms: N1_4  and  C4_6
REMARK    2  A    between atoms: N3_8  and  C5_10
REMARK    3  A    between atoms: C5_10  and  C6_11
REMARK    4  A    between atoms: C6_11  and  C7_12
REMARK    5  A    between atoms: C7_12  and  C8_13
REMARK    6  A    between atoms: C8_13  and  C9_14
REMARK    7  A    between atoms: C9_14  and  C10_15
REMARK    8  A    between atoms: C10_15  and  C11_19
REMARK       I    between atoms: C11_19  and  N5_21
REMARK    9  A    between atoms: N5_21  and  C12_23
REMARK   10  A    between atoms: C12_23  and  C13_24
REMARK       I    between atoms: C13_24  and  N6_26
ROOT
HETATM    1  C1  UNL     1      13.052 -16.014  21.954  1.00  0.00     0.014 C
HETATM    2  C2  UNL     1      12.750 -16.750  22.857  1.00  0.00    -0.098 C
HETATM    3  C3  UNL     1      12.365 -17.632  23.971  1.00  0.00     0.215 C
ENDROOT
BRANCH   3   4
HETATM    4  N1  UNL     1      13.122 -17.252  25.129  1.00  0.00    -0.354 N
HETATM    5  C4  UNL     1      14.517 -17.424  25.207  1.00  0.00     0.184 C
HETATM    6  N2  UNL     1      15.080 -18.664  24.874  1.00  0.00    -0.064 NA
HETATM    7  N3  UNL     1      15.262 -16.462  25.575  1.00  0.00    -0.365 N
ATOM      8  H3  UNL     1      16.272 -16.589  25.629  1.00  0.00     0.162 HD
ATOM      9  H1  UNL     1      12.631 -16.841  25.925  1.00  0.00     0.163 HD
BRANCH   7  10
HETATM   10  C5  UNL     1      14.679 -15.204  25.912  1.00  0.00     0.122 C
BRANCH  10  11
HETATM   11  C6  UNL     1      15.020 -14.090  24.943  1.00  0.00     0.020 C
BRANCH  11  12
HETATM   12  C7  UNL     1      13.730 -13.470  24.516  1.00  0.00     0.002 C
BRANCH  12  13
HETATM   13  C8  UNL     1      13.829 -12.605  23.284  1.00  0.00     0.006 C
BRANCH  13  14
HETATM   14  C9  UNL     1      12.512 -12.336  22.645  1.00  0.00     0.062 C
BRANCH  14  15
HETATM   15  C10 UNL     1      12.364 -10.885  22.418  1.00  0.00     0.071 C
HETATM   16  N4  UNL     1      11.699 -10.206  23.318  1.00  0.00    -0.398 N
ATOM     17  H42 UNL     1      11.316 -10.713  24.116  1.00  0.00     0.156 HD
ATOM     18  H41 UNL     1      11.596  -9.204  23.161  1.00  0.00     0.156 HD
BRANCH  15  19
HETATM   19  C11 UNL     1      12.910 -10.161  21.280  1.00  0.00     0.264 C
HETATM   20  O1  UNL     1      12.126  -9.936  20.306  1.00  0.00    -0.266 OA
HETATM   21  N5  UNL     1      14.250  -9.746  21.294  1.00  0.00    -0.338 N
ATOM     22  H5  UNL     1      14.802  -9.969  22.123  1.00  0.00     0.164 HD
BRANCH  21  23
HETATM   23  C12 UNL     1      14.919  -9.016  20.211  1.00  0.00     0.114 A
HETATM   24  C21 UNL     1      16.364  -8.874  20.502  1.00  0.00     0.041 A
HETATM   25  C22 UNL     1      17.166  -9.597  19.494  1.00  0.00     0.003 A
HETATM   26  C23 UNL     1      16.216 -10.263  18.562  1.00  0.00     0.003 A
HETATM   27  C24 UNL     1      14.850  -9.893  18.992  1.00  0.00     0.041 A
BRANCH  23  28
HETATM   28  C13 UNL     1      14.200  -7.756  19.925  1.00  0.00     0.250 C
HETATM   29  O2  UNL     1      14.021  -7.529  18.673  1.00  0.00    -0.270 OA
HETATM   30  N6  UNL     1      13.703  -6.809  20.807  1.00  0.00    -0.315 N
HETATM   31  C14 UNL     1      13.760  -6.806  22.260  1.00  0.00     0.156 C
HETATM   32  C18 UNL     1      13.001  -5.571  20.479  1.00  0.00     0.198 C
HETATM   33  C15 UNL     1      13.032  -5.516  22.702  1.00  0.00     0.259 C
HETATM   34  N7  UNL     1      12.079  -5.423  21.583  1.00  0.00    -0.047 N
HETATM   35  C16 UNL     1      11.183  -6.549  21.702  1.00  0.00     0.275 C
HETATM   36  C17 UNL     1      11.319  -4.219  21.586  1.00  0.00     0.275 C
HETATM   37  C19 UNL     1      14.022  -4.466  20.537  1.00  0.00     0.071 C
HETATM   38  C20 UNL     1      12.334  -5.563  19.154  1.00  0.00     0.071 C
ENDBRANCH  23  28
ENDBRANCH  21  23
ENDBRANCH  15  19
ENDBRANCH  14  15
ENDBRANCH  13  14
ENDBRANCH  12  13
ENDBRANCH  11  12
ENDBRANCH  10  11
ENDBRANCH   7  10
ENDBRANCH   3   4
TORSDOF 10
ENDMDL