MODEL 4
REMARK VINA RESULT: -6.015268908      3.220      5.593
REMARK  11 active torsions:
REMARK  status: ('A' for Active; 'I' for Inactive)
REMARK    1  A    between atoms: C2_2  and  C3_3
REMARK    2  A    between atoms: C3_3  and  C4_4
REMARK    3  A    between atoms: C5_5  and  C6_6
REMARK    4  A    between atoms: C6_6  and  C7_7
REMARK    5  A    between atoms: C7_7  and  C8_8
REMARK    6  A    between atoms: C8_8  and  C9_9
REMARK    7  A    between atoms: C13_18  and  O2_19
REMARK    8  A    between atoms: C18_28  and  C19_29
REMARK    9  A    between atoms: C19_29  and  C20_30
REMARK   10  A    between atoms: C20_30  and  C21_31
REMARK   11  A    between atoms: C21_31  and  N5_32
ROOT
HETATM    1  C9  UNL     1      14.015  -5.090  16.736  1.00  0.00     0.042 C
HETATM    2  C10 UNL     1      12.557  -5.268  16.203  1.00  0.00     0.132 C
HETATM    3  N1  UNL     1      12.221  -6.602  15.878  1.00  0.00    -0.359 N
ATOM      4  H1  UNL     1      12.687  -7.004  15.064  1.00  0.00     0.162 HD
HETATM    5  C11 UNL     1      11.298  -7.447  16.567  1.00  0.00     0.235 C
HETATM    6  O1  UNL     1      10.651  -8.300  15.914  1.00  0.00    -0.272 OA
HETATM    7  C12 UNL     1      11.055  -7.373  18.036  1.00  0.00     0.224 C
HETATM    8  N2  UNL     1      10.255  -6.237  18.402  1.00  0.00    -0.362 N
ATOM      9  H2  UNL     1       9.706  -5.834  17.641  1.00  0.00     0.162 HD
HETATM   10  C13 UNL     1      10.112  -5.596  19.638  1.00  0.00     0.136 C
HETATM   11  C14 UNL     1      10.064  -6.118  20.979  1.00  0.00     0.060 C
HETATM   12  C15 UNL     1      10.917  -6.774  21.725  1.00  0.00     0.068 C
HETATM   13  C16 UNL     1      12.250  -7.237  21.505  1.00  0.00     0.173 C
HETATM   14  N3  UNL     1      12.444  -8.475  21.778  1.00  0.00    -0.411 NA
HETATM   15  C17 UNL     1      12.613  -9.691  22.090  1.00  0.00     0.231 C
HETATM   16  N4  UNL     1      13.415  -6.601  21.060  1.00  0.00    -0.352 N
ATOM     17  H4  UNL     1      14.122  -7.204  20.640  1.00  0.00     0.163 HD
HETATM   18  C18 UNL     1      13.739  -5.192  21.122  1.00  0.00     0.177 C
HETATM   19  C22 UNL     1      14.881  -4.853  20.229  1.00  0.00     0.245 C
HETATM   20  O3  UNL     1      16.040  -5.193  20.615  1.00  0.00    -0.271 OA
HETATM   21  N6  UNL     1      14.808  -4.176  18.972  1.00  0.00    -0.334 N
HETATM   22  C23 UNL     1      15.828  -3.149  18.655  1.00  0.00     0.158 C
HETATM   23  C24 UNL     1      13.788  -4.424  18.038  1.00  0.00     0.072 C
ENDROOT
BRANCH  18  24
HETATM   24  C19 UNL     1      14.264  -4.900  22.514  1.00  0.00     0.036 C
BRANCH  24  25
HETATM   25  C20 UNL     1      13.378  -4.102  23.391  1.00  0.00     0.030 C
BRANCH  25  26
HETATM   26  C21 UNL     1      14.298  -3.483  24.464  1.00  0.00     0.230 C
BRANCH  26  27
HETATM   27  N5  UNL     1      15.662  -3.706  24.042  1.00  0.00    -0.079 N
ATOM     28  H53 UNL     1      15.772  -3.700  23.028  1.00  0.00     0.274 HD
ATOM     29  H52 UNL     1      16.277  -2.917  24.247  1.00  0.00     0.274 HD
ATOM     30  H51 UNL     1      15.975  -4.577  24.471  1.00  0.00     0.274 HD
ENDBRANCH  26  27
ENDBRANCH  25  26
ENDBRANCH  24  25
ENDBRANCH  18  24
BRANCH  10  31
HETATM   31  O2  UNL     1      10.003  -4.285  19.493  1.00  0.00    -0.346 OA
ATOM     32  H2  UNL     1       9.226  -3.952  19.926  1.00  0.00     0.219 HD
ENDBRANCH  10  31
BRANCH   1  33
HETATM   33  C8  UNL     1      14.700  -6.376  16.665  1.00  0.00     0.012 C
BRANCH  33  34
HETATM   34  C7  UNL     1      16.145  -6.512  16.570  1.00  0.00     0.004 C
BRANCH  34  35
HETATM   35  C6  UNL     1      16.725  -7.746  17.243  1.00  0.00     0.027 C
BRANCH  35  36
HETATM   36  C5  UNL     1      16.045  -7.995  18.555  1.00  0.00    -0.030 C
HETATM   37  C4  UNL     1      16.293  -8.985  19.353  1.00  0.00    -0.027 C
BRANCH  37  38
HETATM   38  C3  UNL     1      17.272 -10.059  19.148  1.00  0.00     0.053 C
BRANCH  38  39
HETATM   39  C2  UNL     1      16.578 -11.391  19.121  1.00  0.00    -0.033 C
HETATM   40  C1  UNL     1      15.462 -11.584  19.788  1.00  0.00     0.007 C
ENDBRANCH  38  39
ENDBRANCH  37  38
ENDBRANCH  35  36
ENDBRANCH  34  35
ENDBRANCH  33  34
ENDBRANCH   1  33
TORSDOF 11
ENDMDL