MODEL 3
REMARK VINA RESULT: -6.489577960      4.600      6.584
REMARK  11 active torsions:
REMARK  status: ('A' for Active; 'I' for Inactive)
REMARK    1  A    between atoms: C2_2  and  C4_4
REMARK    2  A    between atoms: C4_4  and  C5_5
REMARK    3  A    between atoms: C11_14  and  C12_15
REMARK    4  A    between atoms: C12_15  and  C13_16
REMARK    5  A    between atoms: C13_16  and  C14_17
REMARK    6  A    between atoms: C14_17  and  N2_18
REMARK    7  A    between atoms: N5_24  and  C17_25
REMARK    8  A    between atoms: C17_25  and  C18_26
REMARK    9  A    between atoms: C19_27  and  C20_28
REMARK   10  A    between atoms: C20_28  and  C21_29
REMARK   11  A    between atoms: C21_29  and  N6_30
ROOT
HETATM    1  C5  UNL     1      13.991  -4.606  23.314  1.00  0.00     0.177 C
HETATM    2  N1  UNL     1      15.167  -5.097  22.695  1.00  0.00    -0.346 N
ATOM      3  H1  UNL     1      16.028  -5.182  23.235  1.00  0.00     0.163 HD
HETATM    4  C6  UNL     1      15.150  -5.478  21.304  1.00  0.00     0.247 C
HETATM    5  O1  UNL     1      16.116  -5.188  20.577  1.00  0.00    -0.271 OA
HETATM    6  C7  UNL     1      13.929  -6.223  20.814  1.00  0.00     0.117 C
HETATM    7  C8  UNL     1      14.158  -6.486  19.351  1.00  0.00     0.041 C
HETATM    8  C9  UNL     1      15.122  -7.683  19.296  1.00  0.00     0.003 C
HETATM    9  C10 UNL     1      14.365  -8.970  19.665  1.00  0.00     0.005 C
HETATM   10  C11 UNL     1      13.291  -8.667  20.624  1.00  0.00    -0.012 C
HETATM   11  C16 UNL     1      13.785  -7.518  21.544  1.00  0.00     0.045 C
HETATM   12  N5  UNL     1      12.829  -5.371  21.126  1.00  0.00    -0.321 N
HETATM   13  C25 UNL     1      12.888  -4.557  22.279  1.00  0.00     0.244 C
HETATM   14  O2  UNL     1      11.928  -3.719  22.453  1.00  0.00    -0.271 OA
ENDROOT
BRANCH  12  15
HETATM   15  C17 UNL     1      11.626  -5.268  20.311  1.00  0.00     0.221 C
BRANCH  15  16
HETATM   16  C18 UNL     1      10.715  -6.314  20.817  1.00  0.00    -0.087 C
HETATM   17  C19 UNL     1       9.977  -7.183  21.212  1.00  0.00    -0.103 C
BRANCH  17  18
HETATM   18  C20 UNL     1       9.093  -8.254  21.664  1.00  0.00     0.122 C
BRANCH  18  19
HETATM   19  C21 UNL     1       9.212  -9.474  20.781  1.00  0.00     0.249 C
BRANCH  19  20
HETATM   20  N6  UNL     1       9.255 -10.696  21.530  1.00  0.00    -0.067 N
HETATM   21  C22 UNL     1       9.755 -11.891  20.889  1.00  0.00     0.272 C
HETATM   22  C23 UNL     1       9.440 -10.542  22.965  1.00  0.00     0.265 A
HETATM   23  C24 UNL     1       8.093 -10.904  22.388  1.00  0.00     0.265 A
ENDBRANCH  19  20
ENDBRANCH  18  19
ENDBRANCH  17  18
ENDBRANCH  15  16
ENDBRANCH  12  15
BRANCH  10  24
HETATM   24  C12 UNL     1      12.808  -9.706  21.568  1.00  0.00     0.006 C
BRANCH  24  25
HETATM   25  C13 UNL     1      13.723 -10.690  22.150  1.00  0.00     0.020 C
BRANCH  25  26
HETATM   26  C14 UNL     1      13.057 -11.832  22.839  1.00  0.00     0.122 C
BRANCH  26  27
HETATM   27  N2  UNL     1      14.092 -12.498  23.653  1.00  0.00    -0.367 N
HETATM   28  C15 UNL     1      13.798 -13.522  24.352  1.00  0.00     0.196 C
HETATM   29  N3  UNL     1      14.791 -14.186  25.153  1.00  0.00    -0.067 NA
HETATM   30  N4  UNL     1      12.465 -14.010  24.336  1.00  0.00    -0.067 NA
ATOM     31  H2  UNL     1      15.046 -12.137  23.655  1.00  0.00     0.161 HD
ENDBRANCH  26  27
ENDBRANCH  25  26
ENDBRANCH  24  25
ENDBRANCH  10  24
BRANCH   1  32
HETATM   32  C4  UNL     1      14.015  -3.262  23.940  1.00  0.00     0.038 C
BRANCH  32  33
HETATM   33  C2  UNL     1      13.761  -3.114  25.380  1.00  0.00    -0.020 C
HETATM   34  C1  UNL     1      12.555  -3.841  25.853  1.00  0.00     0.009 C
HETATM   35  C3  UNL     1      14.984  -3.636  26.144  1.00  0.00     0.009 C
ENDBRANCH  32  33
ENDBRANCH   1  32
TORSDOF 11
ENDMDL