MODEL 2
REMARK VINA RESULT: -6.981317585      0.906      1.398
REMARK  10 active torsions:
REMARK  status: ('A' for Active; 'I' for Inactive)
REMARK    1  A    between atoms: C2_2  and  C3_3
REMARK    2  A    between atoms: C3_3  and  N1_4
REMARK       I    between atoms: N1_4  and  C4_6
REMARK    3  A    between atoms: C4_6  and  C5_8
REMARK    4  A    between atoms: C12_20  and  N4_21
REMARK       I    between atoms: N4_21  and  C13_23
REMARK       I    between atoms: C13_23  and  N5_25
REMARK    5  A    between atoms: N5_25  and  C14_27
REMARK    6  A    between atoms: C14_27  and  C15_28
REMARK    7  A    between atoms: C15_28  and  C16_29
REMARK    8  A    between atoms: C16_29  and  N6_30
REMARK    9  A    between atoms: N6_30  and  C19_33
REMARK   10  A    between atoms: C19_33  and  C20_34
ROOT
HETATM    1  C5  UNL     1      11.552  -4.397  22.513  1.00  0.00     0.208 C
HETATM    2  N2  UNL     1      11.269  -4.543  23.941  1.00  0.00    -0.344 N
ATOM      3  H2  UNL     1      10.409  -5.022  24.210  1.00  0.00     0.163 HD
HETATM    4  C6  UNL     1      12.111  -4.062  24.975  1.00  0.00     0.241 C
HETATM    5  O2  UNL     1      11.727  -4.322  26.161  1.00  0.00    -0.271 OA
HETATM    6  C7  UNL     1      13.358  -3.312  24.874  1.00  0.00     0.179 C
HETATM    7  C8  UNL     1      14.140  -3.527  26.166  1.00  0.00     0.037 C
HETATM    8  C9  UNL     1      15.577  -3.679  25.785  1.00  0.00     0.022 C
HETATM    9  C10 UNL     1      15.593  -3.292  24.310  1.00  0.00     0.127 C
HETATM   10  N3  UNL     1      14.281  -3.762  23.892  1.00  0.00    -0.337 N
HETATM   11  C11 UNL     1      14.036  -4.516  22.723  1.00  0.00     0.246 C
HETATM   12  O3  UNL     1      15.035  -4.653  21.972  1.00  0.00    -0.271 OA
HETATM   13  C12 UNL     1      12.822  -5.154  22.259  1.00  0.00     0.210 C
ENDROOT
BRANCH  13  14
HETATM   14  N4  UNL     1      12.768  -6.487  22.819  1.00  0.00    -0.327 N
HETATM   15  C13 UNL     1      12.829  -7.635  21.981  1.00  0.00     0.316 C
HETATM   16  O4  UNL     1      12.934  -7.454  20.739  1.00  0.00    -0.247 OA
HETATM   17  N5  UNL     1      12.777  -8.953  22.479  1.00  0.00    -0.343 N
ATOM     18  H5  UNL     1      12.693  -9.120  23.482  1.00  0.00     0.164 HD
ATOM     19  H4  UNL     1      12.685  -6.605  23.829  1.00  0.00     0.165 HD
BRANCH  17  20
HETATM   20  C14 UNL     1      12.846 -10.066  21.557  1.00  0.00     0.126 C
BRANCH  20  21
HETATM   21  C15 UNL     1      13.671 -11.199  22.103  1.00  0.00     0.048 C
BRANCH  21  22
HETATM   22  C16 UNL     1      13.144 -12.535  21.843  1.00  0.00     0.238 C
BRANCH  22  23
HETATM   23  N6  UNL     1      13.956 -13.651  21.559  1.00  0.00    -0.074 N
HETATM   24  C17 UNL     1      15.213 -13.468  20.930  1.00  0.00     0.272 C
HETATM   25  C18 UNL     1      13.204 -14.391  20.487  1.00  0.00     0.272 C
BRANCH  23  26
HETATM   26  C19 UNL     1      13.965 -14.656  22.596  1.00  0.00     0.244 C
BRANCH  26  27
HETATM   27  C20 UNL     1      13.976 -14.376  24.002  1.00  0.00    -0.027 C
HETATM   28  C21 UNL     1      12.723 -13.831  24.651  1.00  0.00     0.016 C
HETATM   29  C22 UNL     1      15.125 -13.629  24.618  1.00  0.00     0.016 C
HETATM   30  C23 UNL     1      14.109 -15.780  24.679  1.00  0.00     0.016 C
ENDBRANCH  26  27
ENDBRANCH  23  26
ENDBRANCH  22  23
ENDBRANCH  21  22
ENDBRANCH  20  21
ENDBRANCH  17  20
ENDBRANCH  13  14
BRANCH   1  31
HETATM   31  C4  UNL     1      10.420  -4.976  21.789  1.00  0.00     0.243 C
HETATM   32  N1  UNL     1      10.008  -4.395  20.559  1.00  0.00    -0.356 N
ATOM     33  H1  UNL     1      10.513  -3.582  20.206  1.00  0.00     0.162 HD
HETATM   34  O1  UNL     1       9.768  -5.979  22.186  1.00  0.00    -0.271 OA
BRANCH  32  35
HETATM   35  C3  UNL     1       8.895  -4.914  19.786  1.00  0.00     0.149 C
BRANCH  35  36
HETATM   36  C2  UNL     1       7.804  -3.905  19.627  1.00  0.00    -0.018 C
HETATM   37  C1  UNL     1       7.542  -3.053  20.602  1.00  0.00     0.008 C
ENDBRANCH  35  36
ENDBRANCH  32  35
ENDBRANCH   1  31
TORSDOF 10
ENDMDL