MODEL 3
REMARK VINA RESULT: -5.937147559      2.153      5.990
REMARK  10 active torsions:
REMARK  status: ('A' for Active; 'I' for Inactive)
REMARK    1  A    between atoms: C5_5  and  N1_6
REMARK    2  A    between atoms: N1_6  and  C8_9
REMARK    3  A    between atoms: C8_9  and  N2_10
REMARK    4  A    between atoms: N2_10  and  C9_12
REMARK    5  A    between atoms: C9_12  and  C10_14
REMARK    6  A    between atoms: C13_22  and  C14_23
REMARK       I    between atoms: C14_23  and  N5_25
REMARK    7  A    between atoms: C16_27  and  C17_28
REMARK    8  A    between atoms: C17_28  and  C18_29
REMARK    9  A    between atoms: C18_29  and  C19_30
REMARK   10  A    between atoms: C21_32  and  C22_33
ROOT
HETATM    1  C1  UNL     1      15.297 -12.453  19.593  1.00  0.00     0.102 C
HETATM    2  C2  UNL     1      15.456 -11.273  19.885  1.00  0.00    -0.152 C
HETATM    3  C3  UNL     1      15.668  -9.911  20.209  1.00  0.00     0.002 C
HETATM    4  C4  UNL     1      16.941  -9.288  19.728  1.00  0.00     0.059 C
HETATM    5  C5  UNL     1      14.789  -9.216  20.902  1.00  0.00     0.218 C
ENDROOT
BRANCH   5   6
HETATM    6  N1  UNL     1      13.585  -9.752  21.375  1.00  0.00    -0.038 N
HETATM    7  C6  UNL     1      12.767 -10.162  20.258  1.00  0.00     0.280 C
HETATM    8  C7  UNL     1      13.765 -10.875  22.253  1.00  0.00     0.280 C
BRANCH   6   9
HETATM    9  C8  UNL     1      12.873  -8.713  22.134  1.00  0.00     0.365 C
BRANCH   9  10
HETATM   10  N2  UNL     1      12.961  -7.456  21.457  1.00  0.00    -0.360 N
ATOM     11  H2  UNL     1      13.901  -7.121  21.246  1.00  0.00     0.161 HD
BRANCH  10  12
HETATM   12  C9  UNL     1      11.897  -6.624  21.047  1.00  0.00     0.083 C
HETATM   13  S1  UNL     1      10.445  -7.367  20.797  1.00  0.00    -0.065 SA
BRANCH  12  14
HETATM   14  C10 UNL     1      12.077  -5.181  20.853  1.00  0.00     0.097 C
HETATM   15  C11 UNL     1      11.099  -4.303  21.583  1.00  0.00     0.138 C
HETATM   16  N3  UNL     1      11.151  -4.678  22.991  1.00  0.00    -0.342 N
HETATM   17  C12 UNL     1      12.481  -4.668  23.541  1.00  0.00     0.316 C
ATOM     18  H3  UNL     1      10.323  -4.924  23.534  1.00  0.00     0.164 HD
HETATM   19  O1  UNL     1      12.649  -4.786  24.759  1.00  0.00    -0.247 OA
HETATM   20  N4  UNL     1      13.583  -4.521  22.662  1.00  0.00    -0.329 N
HETATM   21  C13 UNL     1      13.458  -4.684  21.230  1.00  0.00     0.190 C
ATOM     22  H4  UNL     1      14.497  -4.292  23.053  1.00  0.00     0.165 HD
BRANCH  21  23
HETATM   23  C14 UNL     1      14.570  -5.394  20.625  1.00  0.00     0.244 C
HETATM   24  O2  UNL     1      15.485  -5.799  21.426  1.00  0.00    -0.271 OA
HETATM   25  N5  UNL     1      14.758  -5.691  19.254  1.00  0.00    -0.335 N
HETATM   26  C15 UNL     1      15.807  -6.391  18.484  1.00  0.00     0.134 A
HETATM   27  C21 UNL     1      14.057  -5.467  18.006  1.00  0.00     0.193 A
HETATM   28  C16 UNL     1      15.108  -6.176  17.200  1.00  0.00     0.037 A
BRANCH  28  29
HETATM   29  C17 UNL     1      14.649  -7.400  16.447  1.00  0.00     0.009 C
BRANCH  29  30
HETATM   30  C18 UNL     1      15.626  -7.829  15.397  1.00  0.00     0.000 C
BRANCH  30  31
HETATM   31  C19 UNL     1      16.461  -9.016  15.837  1.00  0.00    -0.005 C
HETATM   32  C20 UNL     1      15.586 -10.154  16.313  1.00  0.00     0.005 C
ENDBRANCH  30  31
ENDBRANCH  29  30
ENDBRANCH  28  29
BRANCH  27  33
HETATM   33  C22 UNL     1      14.021  -4.035  17.550  1.00  0.00     0.197 C
HETATM   34  O3  UNL     1      13.024  -3.673  16.884  1.00  0.00    -0.646 OA
HETATM   35  O4  UNL     1      15.031  -3.166  17.848  1.00  0.00    -0.646 OA
ENDBRANCH  27  33
ENDBRANCH  21  23
ENDBRANCH  12  14
ENDBRANCH  10  12
ENDBRANCH   9  10
ENDBRANCH   6   9
ENDBRANCH   5   6
TORSDOF 10
ENDMDL