MODEL 1
REMARK VINA RESULT: -7.977078158      0.000      0.000
REMARK  8 active torsions:
REMARK  status: ('A' for Active; 'I' for Inactive)
REMARK    1  A    between atoms: C2_2  and  C3_3
REMARK    2  A    between atoms: C3_3  and  C4_4
REMARK       I    between atoms: C4_4  and  N1_6
REMARK    3  A    between atoms: N1_6  and  C5_7
REMARK    4  A    between atoms: N1_6  and  S1_18
REMARK    5  A    between atoms: C5_7  and  C6_8
REMARK       I    between atoms: N2_12  and  C10_13
REMARK    6  A    between atoms: S1_18  and  N5_21
REMARK    7  A    between atoms: C14_24  and  C15_25
REMARK    8  A    between atoms: C15_25  and  C16_26
ROOT
HETATM    1  S1  UNL     1      12.964 -10.384  21.311  1.00  0.00     0.112 S
HETATM    2  C11 UNL     1      12.269 -10.432  19.557  1.00  0.00     0.161 C
HETATM    3  O2  UNL     1      11.124 -10.902  21.865  1.00  0.00    -0.228 OA
ENDROOT
BRANCH   1   4
HETATM    4  N1  UNL     1      14.011 -11.872  21.008  1.00  0.00    -0.260 N
HETATM    5  C4  UNL     1      14.218 -12.800  22.059  1.00  0.00     0.235 C
HETATM    6  O1  UNL     1      14.849 -13.866  21.781  1.00  0.00    -0.272 OA
BRANCH   5   7
HETATM    7  C3  UNL     1      13.776 -12.653  23.453  1.00  0.00     0.130 C
BRANCH   7   8
HETATM    8  C2  UNL     1      14.721 -13.383  24.382  1.00  0.00    -0.028 C
HETATM    9  C1  UNL     1      14.302 -14.357  25.169  1.00  0.00     0.007 C
ENDBRANCH   7   8
ENDBRANCH   5   7
BRANCH   4  10
HETATM   10  C5  UNL     1      14.583 -12.208  19.751  1.00  0.00     0.168 C
BRANCH  10  11
HETATM   11  C6  UNL     1      15.955 -11.730  19.483  1.00  0.00     0.106 C
HETATM   12  C7  UNL     1      16.166 -10.267  19.300  1.00  0.00     0.028 C
HETATM   13  C8  UNL     1      17.606 -10.230  18.752  1.00  0.00     0.022 C
HETATM   14  C9  UNL     1      17.884 -11.655  18.265  1.00  0.00     0.126 C
HETATM   15  N2  UNL     1      16.535 -12.240  18.250  1.00  0.00    -0.350 N
HETATM   16  C10 UNL     1      16.037 -13.067  17.232  1.00  0.00     0.184 C
HETATM   17  N3  UNL     1      16.030 -12.671  16.007  1.00  0.00    -0.374 N
HETATM   18  N4  UNL     1      15.533 -14.349  17.533  1.00  0.00    -0.064 NA
ATOM     19  H32 UNL     1      16.395 -11.743  15.790  1.00  0.00     0.158 HD
ATOM     20  H31 UNL     1      15.668 -13.273  15.268  1.00  0.00     0.158 HD
ENDBRANCH  10  11
ENDBRANCH   4  10
ENDBRANCH   1   4
BRANCH   1  21
HETATM   21  N5  UNL     1      13.344  -8.696  21.248  1.00  0.00    -0.307 N
HETATM   22  C12 UNL     1      12.253  -7.868  21.745  1.00  0.00     0.139 C
HETATM   23  C13 UNL     1      12.196  -6.658  20.878  1.00  0.00     0.026 C
HETATM   24  C14 UNL     1      13.443  -5.822  21.196  1.00  0.00    -0.003 C
HETATM   25  C20 UNL     1      14.455  -6.603  21.973  1.00  0.00     0.050 C
HETATM   26  C21 UNL     1      14.546  -8.031  21.564  1.00  0.00     0.075 C
BRANCH  24  27
HETATM   27  C15 UNL     1      12.947  -4.610  21.948  1.00  0.00     0.064 C
BRANCH  27  28
HETATM   28  C16 UNL     1      13.836  -4.224  23.068  1.00  0.00     0.037 A
HETATM   29  N6  UNL     1      15.156  -3.997  23.032  1.00  0.00    -0.301 N
HETATM   30  N7  UNL     1      15.595  -3.664  24.251  1.00  0.00    -0.266 N
ATOM     31  H6  UNL     1      15.740  -4.068  22.199  1.00  0.00     0.186 HD
HETATM   32  C17 UNL     1      14.576  -3.663  25.124  1.00  0.00     0.267 A
ATOM     33  H7  UNL     1      16.564  -3.442  24.482  1.00  0.00     0.190 HD
HETATM   34  O3  UNL     1      14.610  -3.402  26.345  1.00  0.00    -0.266 OA
HETATM   35  C18 UNL     1      13.453  -4.018  24.377  1.00  0.00     0.031 A
HETATM   36  C19 UNL     1      12.080  -4.150  24.934  1.00  0.00     0.056 C
ENDBRANCH  27  28
ENDBRANCH  24  27
ENDBRANCH   1  21
TORSDOF 8
ENDMDL