MODEL 2
REMARK VINA RESULT: -7.196996196      4.403     13.717
REMARK  9 active torsions:
REMARK  status: ('A' for Active; 'I' for Inactive)
REMARK    1  A    between atoms: C2_2  and  C4_4
REMARK       I    between atoms: C4_4  and  N1_6
REMARK    2  A    between atoms: N1_6  and  C5_8
REMARK    3  A    between atoms: C5_8  and  C6_9
REMARK    4  A    between atoms: C6_9  and  C7_10
REMARK    5  A    between atoms: C7_10  and  N2_11
REMARK       I    between atoms: N2_11  and  C8_13
REMARK       I    between atoms: C8_13  and  N3_15
REMARK    6  A    between atoms: N3_15  and  C9_17
REMARK       I    between atoms: N4_20  and  C12_21
REMARK       I    between atoms: C12_21  and  N5_23
REMARK    7  A    between atoms: N5_23  and  C13_25
REMARK    8  A    between atoms: C13_25  and  C14_26
REMARK    9  A    between atoms: C14_26  and  N6_27
ROOT
HETATM    1  C9  UNL     1      13.234  -8.706  21.633  1.00  0.00     0.105 C
HETATM    2  C10 UNL     1      12.702  -8.469  20.237  1.00  0.00     0.047 C
HETATM    3  C11 UNL     1      12.730  -6.953  20.187  1.00  0.00     0.129 C
HETATM    4  N4  UNL     1      14.009  -6.651  20.752  1.00  0.00    -0.332 N
HETATM    5  C12 UNL     1      14.859  -5.589  20.357  1.00  0.00     0.318 C
HETATM    6  O3  UNL     1      15.981  -5.395  20.915  1.00  0.00    -0.247 OA
HETATM    7  N5  UNL     1      14.463  -4.715  19.317  1.00  0.00    -0.341 N
ATOM      8  H5  UNL     1      13.568  -4.844  18.845  1.00  0.00     0.164 HD
HETATM    9  C23 UNL     1      14.278  -7.611  21.790  1.00  0.00     0.152 C
ENDROOT
BRANCH   1  10
HETATM   10  N3  UNL     1      13.892  -9.976  21.763  1.00  0.00    -0.337 N
HETATM   11  C8  UNL     1      13.408 -11.026  22.580  1.00  0.00     0.316 C
HETATM   12  N2  UNL     1      14.124 -12.244  22.640  1.00  0.00    -0.343 N
HETATM   13  O2  UNL     1      12.351 -10.806  23.213  1.00  0.00    -0.247 OA
ATOM     14  H2  UNL     1      14.977 -12.313  22.085  1.00  0.00     0.164 HD
ATOM     15  H3  UNL     1      14.753 -10.129  21.238  1.00  0.00     0.164 HD
BRANCH  12  16
HETATM   16  C7  UNL     1      13.749 -13.397  23.422  1.00  0.00     0.126 C
BRANCH  16  17
HETATM   17  C6  UNL     1      14.905 -13.829  24.270  1.00  0.00     0.039 C
BRANCH  17  18
HETATM   18  C5  UNL     1      14.398 -14.515  25.507  1.00  0.00     0.124 C
BRANCH  18  19
HETATM   19  N1  UNL     1      15.151 -15.705  25.787  1.00  0.00    -0.361 N
HETATM   20  C4  UNL     1      14.548 -16.970  25.564  1.00  0.00     0.221 C
HETATM   21  O1  UNL     1      13.373 -17.065  25.130  1.00  0.00    -0.273 OA
ATOM     22  H1  UNL     1      16.106 -15.643  26.141  1.00  0.00     0.162 HD
BRANCH  20  23
HETATM   23  C2  UNL     1      15.338 -18.199  25.859  1.00  0.00     0.070 C
HETATM   24  C1  UNL     1      14.362 -19.269  26.262  1.00  0.00     0.019 C
HETATM   25  C3  UNL     1      16.266 -17.907  27.006  1.00  0.00     0.019 C
ENDBRANCH  20  23
ENDBRANCH  18  19
ENDBRANCH  17  18
ENDBRANCH  16  17
ENDBRANCH  12  16
ENDBRANCH   1  10
BRANCH   7  26
HETATM   26  C13 UNL     1      15.349  -3.634  18.932  1.00  0.00     0.153 C
BRANCH  26  27
HETATM   27  C14 UNL     1      15.977  -3.882  17.592  1.00  0.00     0.266 C
BRANCH  27  28
HETATM   28  N6  UNL     1      16.981  -2.931  17.205  1.00  0.00    -0.008 N
HETATM   29  C15 UNL     1      17.228  -2.062  18.346  1.00  0.00     0.283 C
HETATM   30  C16 UNL     1      16.587  -2.179  16.058  1.00  0.00     0.247 C
HETATM   31  C17 UNL     1      16.303  -2.945  14.832  1.00  0.00     0.029 C
HETATM   32  C18 UNL     1      17.374  -3.079  13.827  1.00  0.00     0.002 C
HETATM   33  C19 UNL     1      18.689  -2.461  14.094  1.00  0.00     0.001 C
HETATM   34  C20 UNL     1      19.600  -3.165  15.029  1.00  0.00     0.009 C
HETATM   35  C21 UNL     1      19.001  -4.214  15.899  1.00  0.00     0.111 C
HETATM   36  C22 UNL     1      18.182  -3.676  17.002  1.00  0.00     0.318 C
HETATM   37  O4  UNL     1      18.669  -3.943  18.088  1.00  0.00    -0.265 OA
ENDBRANCH  27  28
ENDBRANCH  26  27
ENDBRANCH   7  26
TORSDOF 9
ENDMDL