MODEL 5
REMARK VINA RESULT: -8.593514908      1.617      2.274
REMARK  11 active torsions:
REMARK  status: ('A' for Active; 'I' for Inactive)
REMARK    1  A    between atoms: C2_2  and  C4_4
REMARK    2  A    between atoms: C4_4  and  C5_5
REMARK    3  A    between atoms: C5_5  and  N1_6
REMARK    4  A    between atoms: C5_5  and  C22_30
REMARK       I    between atoms: N1_6  and  C6_8
REMARK    5  A    between atoms: C6_8  and  O2_10
REMARK    6  A    between atoms: O2_10  and  C7_11
REMARK    7  A    between atoms: C11_15  and  O3_16
REMARK    8  A    between atoms: O3_16  and  C12_17
REMARK    9  A    between atoms: C12_17  and  C13_21
REMARK       I    between atoms: C22_30  and  N3_32
REMARK   10  A    between atoms: N3_32  and  C23_34
REMARK   11  A    between atoms: C23_34  and  C24_35
ROOT
HETATM    1  N1  UNL     1       2.540 -21.302  25.245  1.00  0.00    -0.324 N
ATOM      2  H1  UNL     1       2.318 -20.379  24.872  1.00  0.00     0.165 HD
HETATM    3  C6  UNL     1       3.792 -21.849  24.967  1.00  0.00     0.361 C
HETATM    4  O1  UNL     1       4.035 -23.003  25.432  1.00  0.00    -0.238 OA
ENDROOT
BRANCH   3   5
HETATM    5  O2  UNL     1       4.736 -21.215  24.236  1.00  0.00    -0.297 OA
BRANCH   5   6
HETATM    6  C7  UNL     1       5.264 -19.953  24.476  1.00  0.00     0.146 C
HETATM    7  C8  UNL     1       4.431 -18.794  23.927  1.00  0.00     0.021 C
HETATM    8  C9  UNL     1       3.931 -17.932  25.014  1.00  0.00     0.010 C
HETATM    9  C18 UNL     1       5.634 -18.359  23.185  1.00  0.00     0.005 C
HETATM   10  C10 UNL     1       4.273 -16.486  24.979  1.00  0.00     0.033 C
HETATM   11  C11 UNL     1       5.149 -16.082  23.851  1.00  0.00     0.130 C
HETATM   12  C17 UNL     1       6.275 -17.083  23.737  1.00  0.00     0.038 C
HETATM   13  C19 UNL     1       6.396 -19.621  23.545  1.00  0.00    -0.016 C
HETATM   14  C20 UNL     1       6.567 -20.470  22.319  1.00  0.00     0.018 C
HETATM   15  C21 UNL     1       7.710 -19.336  24.269  1.00  0.00     0.018 C
BRANCH  11  16
HETATM   16  O3  UNL     1       5.529 -14.778  23.748  1.00  0.00    -0.333 OA
BRANCH  16  17
HETATM   17  C12 UNL     1       5.024 -13.730  23.021  1.00  0.00     0.119 C
HETATM   18  N2  UNL     1       4.798 -12.676  23.613  1.00  0.00    -0.383 N
ATOM     19  H22 UNL     1       4.977 -12.577  24.613  1.00  0.00     0.158 HD
ATOM     20  H21 UNL     1       4.422 -11.897  23.072  1.00  0.00     0.158 HD
BRANCH  17  21
HETATM   21  C13 UNL     1       4.758 -13.878  21.535  1.00  0.00     0.013 C
HETATM   22  C14 UNL     1       6.080 -14.217  20.880  1.00  0.00     0.023 C
HETATM   23  C15 UNL     1       4.280 -12.558  20.987  1.00  0.00     0.023 C
HETATM   24  C16 UNL     1       3.755 -14.973  21.273  1.00  0.00     0.023 C
ENDBRANCH  17  21
ENDBRANCH  16  17
ENDBRANCH  11  16
ENDBRANCH   5   6
ENDBRANCH   3   5
BRANCH   1  25
HETATM   25  C5  UNL     1       1.549 -21.981  26.035  1.00  0.00     0.179 C
BRANCH  25  26
HETATM   26  C4  UNL     1       0.606 -21.030  26.694  1.00  0.00     0.038 C
BRANCH  26  27
HETATM   27  C2  UNL     1       0.894 -20.990  28.199  1.00  0.00    -0.020 C
HETATM   28  C1  UNL     1       1.274 -22.402  28.608  1.00  0.00     0.009 C
HETATM   29  C3  UNL     1      -0.440 -20.673  28.899  1.00  0.00     0.009 C
ENDBRANCH  26  27
ENDBRANCH  25  26
BRANCH  25  30
HETATM   30  C22 UNL     1       0.792 -22.942  25.129  1.00  0.00     0.240 C
HETATM   31  O4  UNL     1       0.758 -24.139  25.357  1.00  0.00    -0.271 OA
HETATM   32  N3  UNL     1       0.131 -22.389  23.996  1.00  0.00    -0.359 N
ATOM     33  H3  UNL     1       0.219 -21.386  23.829  1.00  0.00     0.162 HD
BRANCH  32  34
HETATM   34  C23 UNL     1      -0.666 -23.179  23.058  1.00  0.00     0.127 C
BRANCH  34  35
HETATM   35  C24 UNL     1      -1.940 -22.394  22.777  1.00  0.00     0.006 C
HETATM   36  C25 UNL     1      -2.780 -22.174  24.005  1.00  0.00     0.034 C
HETATM   37  C26 UNL     1      -4.039 -21.431  23.561  1.00  0.00     0.232 C
HETATM   38  N4  UNL     1      -4.807 -22.181  22.588  1.00  0.00    -0.075 N
HETATM   39  C27 UNL     1      -3.990 -22.486  21.431  1.00  0.00     0.232 C
ATOM     40  H42 UNL     1      -5.221 -23.020  22.994  1.00  0.00     0.277 HD
ATOM     41  H41 UNL     1      -5.668 -21.698  22.330  1.00  0.00     0.277 HD
HETATM   42  C28 UNL     1      -2.824 -23.318  21.887  1.00  0.00     0.034 C
ENDBRANCH  34  35
ENDBRANCH  32  34
ENDBRANCH  25  30
ENDBRANCH   1  25
TORSDOF 11
ENDMDL