MODEL 3
REMARK VINA RESULT: -7.465012816      2.027      4.069
REMARK  14 active torsions:
REMARK  status: ('A' for Active; 'I' for Inactive)
REMARK    1  A    between atoms: C2_2  and  N1_5
REMARK       I    between atoms: N1_5  and  C5_7
REMARK    2  A    between atoms: C5_7  and  C6_9
REMARK    3  A    between atoms: C7_10  and  C8_11
REMARK    4  A    between atoms: C8_11  and  O2_12
REMARK    5  A    between atoms: N2_14  and  O3_16
REMARK    6  A    between atoms: N3_26  and  C17_27
REMARK    7  A    between atoms: C17_27  and  O4_28
REMARK    8  A    between atoms: C17_27  and  C18_30
REMARK    9  A    between atoms: C18_30  and  C19_31
REMARK   10  A    between atoms: C18_30  and  C25_37
REMARK   11  A    between atoms: C19_31  and  C20_32
REMARK   12  A    between atoms: C25_37  and  N4_38
REMARK   13  A    between atoms: N4_38  and  O5_39
REMARK   14  A    between atoms: N4_38  and  C26_41
ROOT
HETATM    1  C6  UNL     1      -0.055 -24.645  29.228  1.00  0.00     0.192 C
HETATM    2  C7  UNL     1      -1.029 -23.731  29.906  1.00  0.00     0.097 C
HETATM    3  C9  UNL     1      -2.159 -23.638  28.937  1.00  0.00     0.059 C
HETATM    4  C10 UNL     1      -1.347 -23.498  27.617  1.00  0.00     0.088 C
HETATM    5  C11 UNL     1      -1.103 -22.126  27.317  1.00  0.00    -0.152 C
HETATM    6  C12 UNL     1      -0.955 -20.788  26.943  1.00  0.00     0.082 C
HETATM    7  C13 UNL     1      -1.829 -20.549  25.673  1.00  0.00     0.011 C
HETATM    8  C14 UNL     1      -2.877 -21.649  25.514  1.00  0.00     0.001 C
HETATM    9  C15 UNL     1      -2.500 -23.032  25.382  1.00  0.00     0.004 C
HETATM   10  C16 UNL     1      -2.393 -23.980  26.546  1.00  0.00     0.044 C
HETATM   11  N3  UNL     1      -0.274 -24.391  27.790  1.00  0.00    -0.331 N
ENDROOT
BRANCH  11  12
HETATM   12  C17 UNL     1       0.610 -25.058  26.900  1.00  0.00     0.121 C
BRANCH  12  13
HETATM   13  O4  UNL     1       0.515 -26.369  26.882  1.00  0.00    -0.349 OA
ATOM     14  H4  UNL     1      -0.257 -26.718  26.452  1.00  0.00     0.219 HD
ENDBRANCH  12  13
BRANCH  12  15
HETATM   15  C18 UNL     1       1.638 -24.585  25.977  1.00  0.00     0.081 C
BRANCH  15  16
HETATM   16  C19 UNL     1       2.375 -23.373  26.564  1.00  0.00     0.019 C
BRANCH  16  17
HETATM   17  C20 UNL     1       2.622 -22.309  25.501  1.00  0.00    -0.014 C
HETATM   18  C21 UNL     1       2.465 -20.912  25.989  1.00  0.00     0.005 C
HETATM   19  C22 UNL     1       3.497 -20.106  25.199  1.00  0.00     0.000 C
HETATM   20  C23 UNL     1       4.260 -21.097  24.359  1.00  0.00     0.000 C
HETATM   21  C24 UNL     1       4.134 -22.360  25.211  1.00  0.00     0.005 C
ENDBRANCH  16  17
ENDBRANCH  15  16
BRANCH  15  22
HETATM   22  C25 UNL     1       1.059 -24.191  24.649  1.00  0.00     0.171 C
BRANCH  22  23
HETATM   23  N4  UNL     1       1.542 -24.950  23.552  1.00  0.00    -0.235 N
BRANCH  23  24
HETATM   24  O5  UNL     1       2.372 -24.418  22.598  1.00  0.00    -0.285 OA
ATOM     25  H5  UNL     1       2.268 -24.603  21.672  1.00  0.00     0.245 HD
ENDBRANCH  23  24
BRANCH  23  26
HETATM   26  C26 UNL     1       1.205 -26.297  23.369  1.00  0.00     0.376 C
HETATM   27  O6  UNL     1       1.176 -26.826  22.251  1.00  0.00    -0.281 OA
ENDBRANCH  23  26
ENDBRANCH  22  23
ENDBRANCH  15  22
ENDBRANCH  12  15
ENDBRANCH  11  12
BRANCH   1  28
HETATM   28  C5  UNL     1      -0.341 -26.071  29.548  1.00  0.00     0.242 C
HETATM   29  N1  UNL     1      -1.575 -26.640  29.185  1.00  0.00    -0.351 N
ATOM     30  H1  UNL     1      -2.252 -26.046  28.707  1.00  0.00     0.163 HD
HETATM   31  O1  UNL     1       0.517 -26.740  30.134  1.00  0.00    -0.271 OA
BRANCH  29  32
HETATM   32  C2  UNL     1      -1.948 -28.010  29.446  1.00  0.00     0.022 C
HETATM   33  C1  UNL     1      -0.927 -28.969  28.867  1.00  0.00     0.037 C
HETATM   34  C3  UNL     1      -2.029 -28.315  30.918  1.00  0.00     0.037 C
HETATM   35  C4  UNL     1      -3.296 -28.286  28.820  1.00  0.00     0.037 C
ENDBRANCH  29  32
ENDBRANCH   1  28
BRANCH   2  36
HETATM   36  C8  UNL     1      -0.491 -22.385  30.194  1.00  0.00     0.142 C
HETATM   37  N2  UNL     1       0.778 -22.134  30.191  1.00  0.00    -0.251 N
ATOM     38  H2  UNL     1       1.434 -22.886  29.983  1.00  0.00     0.196 HD
BRANCH  36  39
HETATM   39  O2  UNL     1      -1.357 -21.362  30.477  1.00  0.00    -0.348 OA
ATOM     40  H2  UNL     1      -1.883 -20.990  29.779  1.00  0.00     0.219 HD
ENDBRANCH  36  39
BRANCH  37  41
HETATM   41  O3  UNL     1       1.263 -20.878  30.461  1.00  0.00    -0.288 OA
ATOM     42  H3  UNL     1       2.093 -20.580  30.108  1.00  0.00     0.244 HD
ENDBRANCH  37  41
ENDBRANCH   2  36
TORSDOF 14
ENDMDL