MODEL 5
REMARK VINA RESULT: -8.341462186      2.228      3.611
REMARK  12 active torsions:
REMARK  status: ('A' for Active; 'I' for Inactive)
REMARK    1  A    between atoms: C5_5  and  C6_6
REMARK    2  A    between atoms: C6_6  and  C7_7
REMARK    3  A    between atoms: C7_7  and  C8_8
REMARK    4  A    between atoms: C8_8  and  C10_10
REMARK    5  A    between atoms: C14_14  and  C15_15
REMARK    6  A    between atoms: C16_16  and  C17_17
REMARK    7  A    between atoms: C24_25  and  C26_27
REMARK    8  A    between atoms: C26_27  and  O2_28
REMARK    9  A    between atoms: C27_30  and  O3_31
REMARK   10  A    between atoms: C28_33  and  O4_34
REMARK   11  A    between atoms: C28_33  and  C29_36
REMARK   12  A    between atoms: C29_36  and  O5_37
ROOT
HETATM    1  C1  UNL     1       5.234 -22.767  24.060  1.00  0.00     0.017 C
HETATM    2  C2  UNL     1       4.322 -22.205  24.611  1.00  0.00    -0.083 C
HETATM    3  C3  UNL     1       3.227 -21.544  25.252  1.00  0.00    -0.013 C
HETATM    4  C4  UNL     1       2.129 -22.323  25.863  1.00  0.00     0.057 C
HETATM    5  C5  UNL     1       3.198 -20.234  25.297  1.00  0.00    -0.011 C
ENDROOT
BRANCH   5   6
HETATM    6  C6  UNL     1       4.268 -19.370  24.704  1.00  0.00     0.028 C
BRANCH   6   7
HETATM    7  C7  UNL     1       3.915 -17.915  24.924  1.00  0.00     0.010 C
BRANCH   7   8
HETATM    8  C8  UNL     1       4.842 -17.064  24.121  1.00  0.00     0.011 C
HETATM    9  C9  UNL     1       5.769 -17.819  23.213  1.00  0.00     0.012 C
BRANCH   8  10
HETATM   10  C10 UNL     1       4.128 -15.967  23.370  1.00  0.00     0.126 C
HETATM   11  C11 UNL     1       4.011 -14.703  24.150  1.00  0.00     0.033 C
HETATM   12  C12 UNL     1       3.027 -13.788  23.449  1.00  0.00     0.010 C
HETATM   13  C13 UNL     1       2.802 -14.180  22.031  1.00  0.00     0.028 C
HETATM   14  C14 UNL     1       1.606 -13.494  21.421  1.00  0.00     0.046 C
HETATM   15  C30 UNL     1       2.525 -15.657  21.852  1.00  0.00     0.165 C
HETATM   16  C27 UNL     1       0.454 -14.445  21.617  1.00  0.00     0.165 C
HETATM   17  C28 UNL     1       1.100 -15.830  21.412  1.00  0.00     0.131 C
HETATM   18  O6  UNL     1       2.813 -16.367  23.031  1.00  0.00    -0.377 OA
BRANCH  14  19
HETATM   19  C15 UNL     1       1.419 -12.125  21.861  1.00  0.00    -0.022 C
HETATM   20  C16 UNL     1       0.319 -11.538  22.261  1.00  0.00    -0.023 C
BRANCH  20  21
HETATM   21  C17 UNL     1       0.289 -10.089  22.694  1.00  0.00     0.037 C
HETATM   22  C18 UNL     1       0.401  -9.926  24.166  1.00  0.00    -0.022 C
HETATM   23  C19 UNL     1       1.862 -10.238  24.531  1.00  0.00     0.020 C
HETATM   24  C20 UNL     1      -0.467 -10.811  24.994  1.00  0.00     0.020 C
HETATM   25  C21 UNL     1       0.213  -8.497  24.502  1.00  0.00    -0.014 C
HETATM   26  C22 UNL     1      -0.321  -7.585  23.743  1.00  0.00     0.048 C
HETATM   27  C23 UNL     1      -0.794  -7.941  22.435  1.00  0.00     0.160 C
HETATM   28  O1  UNL     1      -1.187  -7.068  21.633  1.00  0.00    -0.292 OA
HETATM   29  C24 UNL     1      -0.820  -9.346  22.030  1.00  0.00     0.050 C
HETATM   30  C25 UNL     1      -0.523  -9.371  20.522  1.00  0.00     0.027 C
BRANCH  29  31
HETATM   31  C26 UNL     1      -2.184  -9.939  22.297  1.00  0.00     0.182 C
BRANCH  31  32
HETATM   32  O2  UNL     1      -3.007  -8.915  22.819  1.00  0.00    -0.400 OA
ATOM     33  H2  UNL     1      -3.215  -9.139  23.718  1.00  0.00     0.209 HD
ENDBRANCH  31  32
ENDBRANCH  29  31
ENDBRANCH  20  21
ENDBRANCH  14  19
BRANCH  16  34
HETATM   34  O3  UNL     1      -0.090 -14.406  22.900  1.00  0.00    -0.392 OA
ATOM     35  H3  UNL     1      -0.401 -15.249  23.207  1.00  0.00     0.210 HD
ENDBRANCH  16  34
BRANCH  17  36
HETATM   36  O4  UNL     1       1.024 -16.099  20.047  1.00  0.00    -0.382 OA
ATOM     37  H4  UNL     1       1.918 -16.095  19.725  1.00  0.00     0.210 HD
ENDBRANCH  17  36
BRANCH  17  38
HETATM   38  C29 UNL     1       0.348 -16.892  22.134  1.00  0.00     0.207 C
BRANCH  38  39
HETATM   39  O5  UNL     1       0.219 -16.663  23.496  1.00  0.00    -0.398 OA
ATOM     40  H5  UNL     1      -0.668 -16.768  23.822  1.00  0.00     0.209 HD
ENDBRANCH  38  39
ENDBRANCH  17  38
ENDBRANCH   8  10
ENDBRANCH   7   8
ENDBRANCH   6   7
ENDBRANCH   5   6
TORSDOF 12
ENDMDL